REMARK  10 active torsions:
REMARK  status: ('A' for Active; 'I' for Inactive)
REMARK    1  A    between atoms: C5_5  and  C8_8 
REMARK    2  A    between atoms: C11_11  and  C14_14 
REMARK       I    between atoms: C14_14  and  N16_16 
REMARK    3  A    between atoms: N16_16  and  S17_17 
REMARK    4  A    between atoms: S17_17  and  C18_18 
REMARK    5  A    between atoms: C20_20  and  N26_26 
REMARK    6  A    between atoms: C21_21  and  N29_29 
REMARK    7  A    between atoms: N29_29  and  C30_30 
REMARK    8  A    between atoms: C30_30  and  C31_31 
REMARK    9  A    between atoms: C31_31  and  S32_32 
REMARK   10  A    between atoms: S32_32  and  C33_33 
ROOT
ATOM      1  C18 N3B d   1      11.941  -2.571  -1.586  0.00  0.00     0.082 A 
ATOM      2  C19 N3B d   1      10.929  -1.612  -1.565  0.00  0.00    -0.026 A 
ATOM      3  C20 N3B d   1      10.940  -0.555  -2.471  0.00  0.00     0.130 A 
ATOM      4  C21 N3B d   1      11.964  -0.444  -3.409  0.00  0.00     0.061 A 
ATOM      5  C22 N3B d   1      12.975  -1.401  -3.429  0.00  0.00    -0.054 A 
ATOM      6  C23 N3B d   1      12.963  -2.464  -2.517  0.00  0.00    -0.058 A 
ATOM      7  H10 N3B d   1      10.128  -1.690  -0.838  0.00  0.00     0.089 H 
ATOM      8  H11 N3B d   1      13.776  -1.323  -4.155  0.00  0.00     0.087 H 
ATOM      9  H12 N3B d   1      13.754  -3.205  -2.539  0.00  0.00     0.086 H 
ENDROOT
BRANCH   1  10
ATOM     10  S17 N3B d   1      11.918  -3.882  -0.454  0.00  0.00     0.265 S 
ATOM     11  O24 N3B d   1      13.154  -4.594  -0.591  0.00  0.00    -0.200 OA
ATOM     12  O25 N3B d   1      11.817  -3.359   0.878  0.00  0.00    -0.200 OA
BRANCH  10  13
ATOM     13  N16 N3B d   1      10.554  -4.976  -0.762  0.00  0.00    -0.246 N 
ATOM     14  C14 N3B d   1      10.555  -5.744  -1.866  0.00  0.00     0.265 C 
ATOM     15  O15 N3B d   1      11.511  -5.660  -2.629  0.00  0.00    -0.267 OA
ATOM     16  H9  N3B d   1       9.790  -5.021  -0.119  0.00  0.00     0.182 HD
BRANCH  14  17
ATOM     17  C11 N3B d   1       9.478  -6.658  -2.183  0.00  0.00     0.033 A 
ATOM     18  C10 N3B d   1       9.653  -7.565  -3.223  0.00  0.00    -0.067 A 
ATOM     19  C9  N3B d   1       8.636  -8.458  -3.557  0.00  0.00    -0.071 A 
ATOM     20  H6  N3B d   1      10.585  -7.577  -3.777  0.00  0.00     0.085 H 
ATOM     21  C8  N3B d   1       7.438  -8.457  -2.860  0.00  0.00    -0.026 A 
ATOM     22  H5  N3B d   1       8.784  -9.160  -4.370  0.00  0.00     0.084 H 
ATOM     23  C13 N3B d   1       7.260  -7.553  -1.820  0.00  0.00    -0.071 A 
ATOM     24  C12 N3B d   1       8.281  -6.651  -1.481  0.00  0.00    -0.067 A 
ATOM     25  H8  N3B d   1       6.327  -7.544  -1.267  0.00  0.00     0.084 H 
ATOM     26  H7  N3B d   1       8.134  -5.948  -0.669  0.00  0.00     0.085 H 
BRANCH  21  27
ATOM     27  C5  N3B d   1       6.394  -9.393  -3.223  0.00  0.00    -0.026 A 
ATOM     28  C4  N3B d   1       5.859  -9.380  -4.504  0.00  0.00    -0.069 A 
ATOM     29  C3  N3B d   1       4.862 -10.279  -4.867  0.00  0.00    -0.045 A 
ATOM     30  H3  N3B d   1       6.223  -8.661  -5.229  0.00  0.00     0.085 H 
ATOM     31  C2  N3B d   1       4.390 -11.203  -3.941  0.00  0.00     0.116 A 
ATOM     32  H2  N3B d   1       4.453 -10.259  -5.871  0.00  0.00     0.088 H 
ATOM     33  C1  N3B d   1       4.921 -11.223  -2.655  0.00  0.00    -0.045 A 
ATOM     34  F7  N3B d   1       3.435 -12.064  -4.281  0.00  0.00    -0.206 F 
ATOM     35  C6  N3B d   1       5.922 -10.318  -2.300  0.00  0.00    -0.069 A 
ATOM     36  H1  N3B d   1       4.557 -11.941  -1.929  0.00  0.00     0.088 H 
ATOM     37  H4  N3B d   1       6.334 -10.337  -1.298  0.00  0.00     0.085 H 
ENDBRANCH  21  27
ENDBRANCH  14  17
ENDBRANCH  10  13
ENDBRANCH   1  10
BRANCH   3  38
ATOM     38  N26 N3B d   1       9.922   0.357  -2.407  0.00  0.00    -0.113 N 
ATOM     39  O27 N3B d   1       9.031   0.234  -1.570  0.00  0.00    -0.532 OA
ATOM     40  O28 N3B d   1       9.826   1.315  -3.142  0.00  0.00    -0.532 OA
ENDBRANCH   3  38
BRANCH   4  41
ATOM     41  N29 N3B d   1      12.032   0.592  -4.346  0.00  0.00    -0.387 N 
ATOM     42  H13 N3B d   1      11.275   1.290  -4.320  0.00  0.00     0.159 HD
BRANCH  41  43
ATOM     43  C30 N3B d   1      13.063   0.783  -5.353  0.00  0.00     0.001 C 
ATOM     44  H14 N3B d   1      14.047   0.582  -4.905  0.00  0.00     0.065 H 
ATOM     45  H15 N3B d   1      13.029   1.822  -5.711  0.00  0.00     0.065 H 
BRANCH  43  46
ATOM     46  C31 N3B d   1      12.846  -0.170  -6.545  0.00  0.00    -0.004 C 
ATOM     47  H16 N3B d   1      13.190  -1.177  -6.266  0.00  0.00     0.051 H 
ATOM     48  H17 N3B d   1      13.430   0.192  -7.404  0.00  0.00     0.051 H 
BRANCH  46  49
ATOM     49  S32 N3B d   1      11.093  -0.253  -7.014  0.00  0.00    -0.128 SA
BRANCH  49  50
ATOM     50  C33 N3B d   1       9.995  -1.240  -6.116  0.00  0.00     0.000 A 
ATOM     51  C34 N3B d   1       9.078  -0.644  -5.257  0.00  0.00    -0.067 A 
ATOM     52  C35 N3B d   1       8.195  -1.432  -4.529  0.00  0.00    -0.082 A 
ATOM     53  H18 N3B d   1       9.052   0.435  -5.155  0.00  0.00     0.085 H 
ATOM     54  C36 N3B d   1       8.228  -2.815  -4.661  0.00  0.00    -0.083 A 
ATOM     55  H19 N3B d   1       7.481  -0.968  -3.858  0.00  0.00     0.083 H 
ATOM     56  C37 N3B d   1       9.145  -3.410  -5.520  0.00  0.00    -0.082 A 
ATOM     57  H20 N3B d   1       7.538  -3.430  -4.094  0.00  0.00     0.083 H 
ATOM     58  C38 N3B d   1      10.028  -2.623  -6.248  0.00  0.00    -0.067 A 
ATOM     59  H21 N3B d   1       9.171  -4.489  -5.622  0.00  0.00     0.083 H 
ATOM     60  H22 N3B d   1      10.742  -3.087  -6.918  0.00  0.00     0.085 H 
ENDBRANCH  49  50
ENDBRANCH  46  49
ENDBRANCH  43  46
ENDBRANCH  41  43
ENDBRANCH   4  41
TORSDOF 10
