REMARK  17 active torsions:
REMARK  status: ('A' for Active; 'I' for Inactive)
REMARK    1  A    between atoms: C2_2  and  C1_1 
REMARK    2  A    between atoms: C3_3  and  C2_2 
REMARK    3  A    between atoms: C4_4  and  C3_3 
REMARK    4  A    between atoms: C5_5  and  C4_4 
REMARK    5  A    between atoms: C5_5  and  N6_6 
REMARK    6  A    between atoms: C31_40  and  C5_5 
REMARK       I    between atoms: N6_6  and  C7_7 
REMARK    7  A    between atoms: C7_7  and  O9_9 
REMARK    8  A    between atoms: O9_9  and  C10_10 
REMARK    9  A    between atoms: C10_10  and  C11_11 
REMARK   10  A    between atoms: C10_10  and  C27_27 
REMARK   11  A    between atoms: C11_11  and  C12_12 
REMARK   12  A    between atoms: C15_15  and  C17_17 
REMARK   13  A    between atoms: C20_20  and  C23_23 
REMARK   14  A    between atoms: C27_27  and  C28_28 
REMARK   15  A    between atoms: C27_27  and  C29_29 
REMARK   16  A    between atoms: C27_27  and  C30_30 
REMARK       I    between atoms: C33_31  and  N35_33 
REMARK   17  A    between atoms: C33_31  and  C31_40 
ROOT
ATOM      1  C10 3FC d   1      17.978  52.141 205.794  0.00  0.00     0.063 C 
ATOM      2  H12 3FC d   1      18.626  53.015 205.953  0.00  0.00     0.086 H 
ENDROOT
BRANCH   1   3
ATOM      3  O9  3FC d   1      17.246  52.273 204.587  0.00  0.00    -0.297 OA
BRANCH   3   4
ATOM      4  C7  3FC d   1      17.331  53.468 204.022  0.00  0.00     0.361 C 
ATOM      5  N6  3FC d   1      16.473  53.771 203.011  0.00  0.00    -0.326 N 
ATOM      6  H11 3FC d   1      15.887  53.054 202.633  0.00  0.00     0.165 HD
ATOM      7  O8  3FC d   1      18.168  54.293 204.409  0.00  0.00    -0.238 OA
BRANCH   5   8
ATOM      8  C5  3FC d   1      16.393  55.090 202.480  0.00  0.00     0.069 C 
ATOM      9  H10 3FC d   1      16.717  55.831 203.226  0.00  0.00     0.083 H 
BRANCH   8  10
ATOM     10  C4  3FC d   1      17.269  55.164 201.214  0.00  0.00    -0.040 C 
ATOM     11  H8  3FC d   1      16.789  55.828 200.480  0.00  0.00     0.036 H 
ATOM     12  H9  3FC d   1      18.257  55.566 201.481  0.00  0.00     0.036 H 
BRANCH  10  13
ATOM     13  C3  3FC d   1      17.443  53.764 200.593  0.00  0.00    -0.063 C 
ATOM     14  H6  3FC d   1      17.728  53.046 201.376  0.00  0.00     0.033 H 
ATOM     15  H7  3FC d   1      16.497  53.446 200.131  0.00  0.00     0.033 H 
BRANCH  13  16
ATOM     16  C2  3FC d   1      18.539  53.824 199.529  0.00  0.00    -0.068 C 
ATOM     17  H4  3FC d   1      18.080  53.983 198.542  0.00  0.00     0.032 H 
ATOM     18  H5  3FC d   1      19.221  54.657 199.755  0.00  0.00     0.032 H 
BRANCH  16  19
ATOM     19  C1  3FC d   1      19.330  52.507 199.517  0.00  0.00    -0.077 C 
ATOM     20  H1  3FC d   1      20.116  52.558 198.749  0.00  0.00     0.027 H 
ATOM     21  H2  3FC d   1      18.650  51.673 199.290  0.00  0.00     0.027 H 
ATOM     22  H3  3FC d   1      19.791  52.347 200.503  0.00  0.00     0.027 H 
ENDBRANCH  16  19
ENDBRANCH  13  16
ENDBRANCH  10  13
ENDBRANCH   8  10
BRANCH   8  23
ATOM     23  C31 3FC d   1      14.977  55.335 202.059  0.00  0.00     0.176 C 
ATOM     24  O32 3FC d   1      14.055  54.355 202.224  0.00  0.00    -0.189 OA
BRANCH  23  25
ATOM     25  C33 3FC d   1      14.650  56.543 201.144  0.00  0.00     0.294 C 
ATOM     26  O34 3FC d   1      15.212  57.621 201.303  0.00  0.00    -0.264 OA
ATOM     27  N35 3FC d   1      13.739  56.381 200.135  0.00  0.00    -0.258 N 
ATOM     28  N36 3FC d   1      13.766  57.092 199.092  0.00  0.00    -0.232 N 
ATOM     29  H28 3FC d   1      13.032  55.680 200.227  0.00  0.00     0.190 HD
ATOM     30  C37 3FC d   1      14.841  57.089 198.180  0.00  0.00     0.041 A 
ATOM     31  C40 3FC d   1      12.790  57.832 198.742  0.00  0.00     0.381 A 
ATOM     32  C38 3FC d   1      14.277  58.065 197.074  0.00  0.00     0.047 A 
ATOM     33  H29 3FC d   1      15.030  56.083 197.777  0.00  0.00     0.070 H 
ATOM     34  H30 3FC d   1      15.762  57.480 198.636  0.00  0.00     0.070 H 
ATOM     35  O39 3FC d   1      12.954  58.462 197.585  0.00  0.00    -0.301 OA
ATOM     36  H31 3FC d   1      14.183  57.547 196.108  0.00  0.00     0.077 H 
ATOM     37  H32 3FC d   1      14.930  58.943 196.958  0.00  0.00     0.077 H 
ATOM     38  O41 3FC d   1      11.778  57.951 199.426  0.00  0.00    -0.236 OA
ENDBRANCH  23  25
ENDBRANCH   8  23
ENDBRANCH   5   8
ENDBRANCH   3   4
ENDBRANCH   1   3
BRANCH   1  39
ATOM     39  C11 3FC d   1      18.808  50.859 205.680  0.00  0.00     0.024 C 
ATOM     40  H13 3FC d   1      18.171  50.041 205.313  0.00  0.00     0.049 H 
ATOM     41  H14 3FC d   1      19.212  50.594 206.668  0.00  0.00     0.049 H 
BRANCH  39  42
ATOM     42  C12 3FC d   1      19.941  51.082 204.719  0.00  0.00     0.172 A 
ATOM     43  N13 3FC d   1      19.853  50.859 203.370  0.00  0.00    -0.126 NA
ATOM     44  N14 3FC d   1      20.963  51.140 202.865  0.00  0.00    -0.121 NA
ATOM     45  C15 3FC d   1      21.793  51.512 203.870  0.00  0.00     0.202 A 
ATOM     46  O16 3FC d   1      21.198  51.547 205.137  0.00  0.00    -0.273 OA
BRANCH  45  47
ATOM     47  C17 3FC d   1      23.175  51.820 203.689  0.00  0.00     0.019 A 
ATOM     48  C18 3FC d   1      23.963  52.102 204.821  0.00  0.00    -0.068 A 
ATOM     49  C19 3FC d   1      25.309  52.331 204.687  0.00  0.00    -0.067 A 
ATOM     50  H15 3FC d   1      23.504  52.138 205.803  0.00  0.00     0.085 H 
ATOM     51  C20 3FC d   1      25.902  52.299 203.439  0.00  0.00     0.048 A 
ATOM     52  H16 3FC d   1      25.911  52.538 205.565  0.00  0.00     0.084 H 
ATOM     53  C21 3FC d   1      25.129  52.036 202.288  0.00  0.00    -0.067 A 
ATOM     54  C22 3FC d   1      23.759  51.800 202.412  0.00  0.00    -0.068 A 
ATOM     55  H17 3FC d   1      25.598  52.017 201.311  0.00  0.00     0.084 H 
ATOM     56  H18 3FC d   1      23.154  51.604 201.534  0.00  0.00     0.085 H 
BRANCH  51  57
ATOM     57  C23 3FC d   1      27.372  52.549 203.319  0.00  0.00     0.417 C 
ATOM     58  F24 3FC d   1      27.693  52.826 202.022  0.00  0.00    -0.166 F 
ATOM     59  F25 3FC d   1      28.043  51.444 203.723  0.00  0.00    -0.166 F 
ATOM     60  F26 3FC d   1      27.718  53.595 204.110  0.00  0.00    -0.166 F 
ENDBRANCH  51  57
ENDBRANCH  45  47
ENDBRANCH  39  42
ENDBRANCH   1  39
BRANCH   1  61
ATOM     61  C27 3FC d   1      16.985  51.976 206.983  0.00  0.00    -0.024 C 
BRANCH  61  62
ATOM     62  C28 3FC d   1      16.037  50.792 206.684  0.00  0.00    -0.067 C 
ATOM     63  H19 3FC d   1      15.331  50.667 207.519  0.00  0.00     0.028 H 
ATOM     64  H20 3FC d   1      16.627  49.872 206.562  0.00  0.00     0.028 H 
ATOM     65  H21 3FC d   1      15.478  50.995 205.758  0.00  0.00     0.028 H 
ENDBRANCH  61  62
BRANCH  61  66
ATOM     66  C29 3FC d   1      16.167  53.257 207.176  0.00  0.00    -0.067 C 
ATOM     67  H22 3FC d   1      16.845  54.097 207.388  0.00  0.00     0.028 H 
ATOM     68  H23 3FC d   1      15.472  53.125 208.018  0.00  0.00     0.028 H 
ATOM     69  H24 3FC d   1      15.597  53.469 206.260  0.00  0.00     0.028 H 
ENDBRANCH  61  66
BRANCH  61  70
ATOM     70  C30 3FC d   1      17.752  51.684 208.269  0.00  0.00    -0.067 C 
ATOM     71  H25 3FC d   1      18.344  50.765 208.142  0.00  0.00     0.028 H 
ATOM     72  H26 3FC d   1      17.041  51.551 209.098  0.00  0.00     0.028 H 
ATOM     73  H27 3FC d   1      18.424  52.525 208.494  0.00  0.00     0.028 H 
ENDBRANCH  61  70
ENDBRANCH   1  61
TORSDOF 17
