REMARK  23 active torsions:
REMARK  status: ('A' for Active; 'I' for Inactive)
REMARK    1  A    between atoms: N6_1  and  O7_47 
REMARK    2  A    between atoms: N1_2  and  C2_3 
REMARK       I    between atoms: C1_14  and  N1_2 
REMARK    3  A    between atoms: C2_3  and  C4_6 
REMARK    4  A    between atoms: C2_3  and  C3_15 
REMARK    5  A    between atoms: C5_8  and  N2_4 
REMARK    6  A    between atoms: N2_4  and  C8_17 
REMARK    7  A    between atoms: N2_4  and  S1_18 
REMARK    8  A    between atoms: C4_6  and  C11_19 
REMARK    9  A    between atoms: N4_7  and  C19_27 
REMARK   10  A    between atoms: C3_15  and  C5_8 
REMARK   11  A    between atoms: C3_15  and  O1_10 
REMARK   12  A    between atoms: C19_27  and  C1_14 
REMARK   13  A    between atoms: C8_17  and  C7_16 
REMARK   14  A    between atoms: C7_16  and  C17_25 
REMARK   15  A    between atoms: C7_16  and  C18_26 
REMARK   16  A    between atoms: S1_18  and  C38_40 
REMARK   17  A    between atoms: C19_27  and  C21_29 
REMARK   18  A    between atoms: C21_29  and  C22_30 
REMARK   19  A    between atoms: C21_29  and  C23_31 
REMARK   20  A    between atoms: C10_42  and  N5_32 
REMARK   21  A    between atoms: C35_37  and  C40_41 
REMARK   22  A    between atoms: C10_42  and  C24_43 
REMARK   23  A    between atoms: C28_45  and  C25_48 
ROOT
ATOM      1  C2  OIS d   1      14.303  23.032   5.663  0.00  0.00     0.042 C 
ATOM      2  H2  OIS d   1      13.413  22.463   5.969  0.00  0.00     0.077 H 
ENDROOT
BRANCH   1   3
ATOM      3  N1  OIS d   1      15.277  22.087   5.054  0.00  0.00    -0.352 N 
ATOM      4  C1  OIS d   1      14.887  20.802   4.738  0.00  0.00     0.241 C 
ATOM      5  O4  OIS d   1      13.750  20.347   4.913  0.00  0.00    -0.271 OA
ATOM      6  H1  OIS d   1      16.215  22.383   4.874  0.00  0.00     0.163 HD
BRANCH   4   7
ATOM      7  C19 OIS d   1      16.007  19.888   4.137  0.00  0.00     0.096 C 
ATOM      8  H25 OIS d   1      16.636  20.497   3.471  0.00  0.00     0.088 H 
BRANCH   7   9
ATOM      9  N4  OIS d   1      16.852  19.349   5.239  0.00  0.00    -0.319 N 
ATOM     10  C6  OIS d   1      16.356  18.353   6.203  0.00  0.00     0.015 A 
ATOM     11  C31 OIS d   1      17.559  18.115   7.114  0.00  0.00     0.015 A 
ATOM     12  H7  OIS d   1      16.059  17.425   5.693  0.00  0.00     0.067 H 
ATOM     13  H8  OIS d   1      15.502  18.748   6.773  0.00  0.00     0.067 H 
ATOM     14  N5  OIS d   1      18.588  19.006   6.561  0.00  0.00    -0.327 N 
ATOM     15  H33 OIS d   1      17.884  17.065   7.071  0.00  0.00     0.067 H 
ATOM     16  H34 OIS d   1      17.324  18.384   8.154  0.00  0.00     0.067 H 
ATOM     17  C20 OIS d   1      18.146  19.698   5.485  0.00  0.00     0.321 A 
ATOM     18  O5  OIS d   1      18.823  20.503   4.851  0.00  0.00    -0.247 OA
BRANCH  14  19
ATOM     19  C10 OIS d   1      19.950  19.124   7.122  0.00  0.00     0.040 C 
ATOM     20  H40 OIS d   1      20.352  20.109   6.843  0.00  0.00     0.074 H 
ATOM     21  H41 OIS d   1      20.574  18.334   6.677  0.00  0.00     0.074 H 
BRANCH  19  22
ATOM     22  C24 OIS d   1      20.025  18.994   8.617  0.00  0.00     0.059 A 
ATOM     23  N3  OIS d   1      19.679  17.769   9.351  0.00  0.00    -0.249 NA
ATOM     24  C28 OIS d   1      19.835  17.913  10.674  0.00  0.00     0.071 A 
ATOM     25  S2  OIS d   1      20.409  19.534  11.127  0.00  0.00    -0.085 SA
ATOM     26  C9  OIS d   1      20.421  19.979   9.439  0.00  0.00    -0.018 A 
ATOM     27  H42 OIS d   1      20.722  20.964   9.085  0.00  0.00     0.098 H 
BRANCH  24  28
ATOM     28  C25 OIS d   1      19.559  16.817  11.702  0.00  0.00    -0.029 C 
ATOM     29  H44 OIS d   1      19.215  15.908  11.186  0.00  0.00     0.036 H 
ATOM     30  H45 OIS d   1      18.781  17.158  12.402  0.00  0.00     0.036 H 
ATOM     31  H46 OIS d   1      20.482  16.596  12.259  0.00  0.00     0.036 H 
ENDBRANCH  24  28
ENDBRANCH  19  22
ENDBRANCH  14  19
ENDBRANCH   7   9
BRANCH   7  32
ATOM     32  C21 OIS d   1      15.400  18.708   3.306  0.00  0.00    -0.033 C 
ATOM     33  H26 OIS d   1      14.780  18.106   3.986  0.00  0.00     0.042 H 
BRANCH  32  34
ATOM     34  C22 OIS d   1      14.511  19.190   2.148  0.00  0.00    -0.071 C 
ATOM     35  H27 OIS d   1      14.115  18.320   1.603  0.00  0.00     0.028 H 
ATOM     36  H28 OIS d   1      15.106  19.812   1.463  0.00  0.00     0.028 H 
ATOM     37  H29 OIS d   1      13.676  19.783   2.549  0.00  0.00     0.028 H 
ENDBRANCH  32  34
BRANCH  32  38
ATOM     38  C23 OIS d   1      16.509  17.806   2.727  0.00  0.00    -0.071 C 
ATOM     39  H30 OIS d   1      17.156  17.451   3.543  0.00  0.00     0.028 H 
ATOM     40  H31 OIS d   1      17.110  18.380   2.006  0.00  0.00     0.028 H 
ATOM     41  H32 OIS d   1      16.052  16.944   2.220  0.00  0.00     0.028 H 
ENDBRANCH  32  38
ENDBRANCH   7  32
ENDBRANCH   4   7
ENDBRANCH   1   3
BRANCH   1  42
ATOM     42  C4  OIS d   1      14.974  23.605   6.941  0.00  0.00    -0.020 C 
ATOM     43  H3  OIS d   1      14.239  24.228   7.471  0.00  0.00     0.043 H 
ATOM     44  H4  OIS d   1      15.830  24.226   6.637  0.00  0.00     0.043 H 
BRANCH  42  45
ATOM     45  C11 OIS d   1      15.467  22.543   7.885  0.00  0.00    -0.056 A 
ATOM     46  C12 OIS d   1      16.839  22.482   8.215  0.00  0.00    -0.077 A 
ATOM     47  C13 OIS d   1      17.318  21.489   9.085  0.00  0.00    -0.082 A 
ATOM     48  H14 OIS d   1      17.527  23.206   7.794  0.00  0.00     0.084 H 
ATOM     49  C14 OIS d   1      16.446  20.535   9.642  0.00  0.00    -0.083 A 
ATOM     50  H15 OIS d   1      18.373  21.457   9.331  0.00  0.00     0.083 H 
ATOM     51  C15 OIS d   1      15.069  20.582   9.321  0.00  0.00    -0.082 A 
ATOM     52  H16 OIS d   1      16.826  19.771  10.311  0.00  0.00     0.083 H 
ATOM     53  C16 OIS d   1      14.585  21.582   8.446  0.00  0.00    -0.077 A 
ATOM     54  H17 OIS d   1      14.387  19.854   9.745  0.00  0.00     0.083 H 
ATOM     55  H18 OIS d   1      13.530  21.615   8.201  0.00  0.00     0.084 H 
ENDBRANCH  42  45
ENDBRANCH   1  42
BRANCH   1  56
ATOM     56  C3  OIS d   1      13.823  24.123   4.664  0.00  0.00     0.071 C 
ATOM     57  H10 OIS d   1      13.409  23.617   3.779  0.00  0.00     0.088 H 
BRANCH  56  58
ATOM     58  C5  OIS d   1      12.734  25.061   5.249  0.00  0.00     0.031 C 
ATOM     59  H5  OIS d   1      13.033  25.393   6.254  0.00  0.00     0.069 H 
ATOM     60  H6  OIS d   1      12.611  25.937   4.595  0.00  0.00     0.069 H 
BRANCH  58  61
ATOM     61  N2  OIS d   1      11.464  24.321   5.330  0.00  0.00    -0.304 N 
BRANCH  61  62
ATOM     62  C8  OIS d   1      10.534  24.601   4.243  0.00  0.00     0.008 C 
ATOM     63  H12 OIS d   1      10.680  25.645   3.928  0.00  0.00     0.066 H 
ATOM     64  H13 OIS d   1       9.511  24.474   4.627  0.00  0.00     0.066 H 
BRANCH  62  65
ATOM     65  C7  OIS d   1      10.697  23.699   3.005  0.00  0.00    -0.045 C 
ATOM     66  H11 OIS d   1      11.713  23.831   2.605  0.00  0.00     0.041 H 
BRANCH  65  67
ATOM     67  C17 OIS d   1       9.688  24.085   1.926  0.00  0.00    -0.072 C 
ATOM     68  H19 OIS d   1       9.819  23.431   1.051  0.00  0.00     0.028 H 
ATOM     69  H20 OIS d   1       9.851  25.132   1.629  0.00  0.00     0.028 H 
ATOM     70  H21 OIS d   1       8.668  23.970   2.320  0.00  0.00     0.028 H 
ENDBRANCH  65  67
BRANCH  65  71
ATOM     71  C18 OIS d   1      10.503  22.225   3.386  0.00  0.00    -0.072 C 
ATOM     72  H22 OIS d   1      11.230  21.948   4.163  0.00  0.00     0.028 H 
ATOM     73  H23 OIS d   1      10.657  21.594   2.498  0.00  0.00     0.028 H 
ATOM     74  H24 OIS d   1       9.483  22.076   3.769  0.00  0.00     0.028 H 
ENDBRANCH  65  71
ENDBRANCH  62  65
ENDBRANCH  61  62
BRANCH  61  75
ATOM     75  S1  OIS d   1      10.692  24.235   6.928  0.00  0.00     0.260 S 
ATOM     76  O2  OIS d   1       9.735  23.175   6.781  0.00  0.00    -0.200 OA
ATOM     77  O3  OIS d   1      11.750  24.011   7.867  0.00  0.00    -0.200 OA
BRANCH  75  78
ATOM     78  C38 OIS d   1       9.784  25.676   7.428  0.00  0.00     0.079 A 
ATOM     79  C32 OIS d   1       8.448  25.855   6.989  0.00  0.00    -0.059 A 
ATOM     80  C34 OIS d   1       7.712  26.986   7.407  0.00  0.00    -0.070 A 
ATOM     81  H35 OIS d   1       7.991  25.124   6.332  0.00  0.00     0.085 H 
ATOM     82  C35 OIS d   1       8.314  27.942   8.265  0.00  0.00    -0.017 A 
ATOM     83  H36 OIS d   1       6.690  27.123   7.073  0.00  0.00     0.084 H 
ATOM     84  C36 OIS d   1       9.653  27.755   8.698  0.00  0.00    -0.070 A 
ATOM     85  C37 OIS d   1      10.385  26.623   8.280  0.00  0.00    -0.059 A 
ATOM     86  H37 OIS d   1      10.115  28.485   9.353  0.00  0.00     0.084 H 
ATOM     87  H38 OIS d   1      11.407  26.483   8.614  0.00  0.00     0.085 H 
BRANCH  82  88
ATOM     88  C40 OIS d   1       7.586  29.126   8.728  0.00  0.00     0.038 C 
ATOM     89  N6  OIS d   1       6.373  29.483   8.273  0.00  0.00    -0.148 NA
ATOM     90  H39 OIS d   1       8.055  29.753   9.485  0.00  0.00     0.119 H 
BRANCH  89  91
ATOM     91  O7  OIS d   1       5.770  30.630   8.783  0.00  0.00    -0.266 OA
ATOM     92  H43 OIS d   1       6.322  31.382   8.605  0.00  0.00     0.247 HD
ENDBRANCH  89  91
ENDBRANCH  82  88
ENDBRANCH  75  78
ENDBRANCH  61  75
ENDBRANCH  58  61
ENDBRANCH  56  58
BRANCH  56  93
ATOM     93  O1  OIS d   1      14.912  24.926   4.272  0.00  0.00    -0.392 OA
ATOM     94  H9  OIS d   1      14.624  25.549   3.616  0.00  0.00     0.210 HD
ENDBRANCH  56  93
ENDBRANCH   1  56
TORSDOF 23
