REMARK  6 active torsions:
REMARK  status: ('A' for Active; 'I' for Inactive)
REMARK    1  A    between atoms: CB2_6  and  C1_1 
REMARK    2  A    between atoms: C2_2  and  N_3 
REMARK    3  A    between atoms: C2_2  and  CD2_17 
REMARK       I    between atoms: N_3  and  C_4 
REMARK    4  A    between atoms: C_4  and  CC1_20 
REMARK    5  A    between atoms: OAB_27  and  CB6_8 
REMARK    6  A    between atoms: CA1_11  and  OAB_27 
ROOT
ATOM      1  CB2 PH7 d   1     -11.038  55.611  47.382  0.00  0.00    -0.034 A 
ATOM      2  CB3 PH7 d   1     -12.167  55.743  46.544  0.00  0.00    -0.070 A 
ATOM      3  CB6 PH7 d   1     -13.432  56.768  48.378  0.00  0.00     0.076 A 
ATOM      4  CB1 PH7 d   1     -11.145  56.049  48.691  0.00  0.00    -0.070 A 
ATOM      5  CB5 PH7 d   1     -12.306  56.613  49.189  0.00  0.00    -0.050 A 
ATOM      6  CB4 PH7 d   1     -13.346  56.360  47.040  0.00  0.00    -0.050 A 
ATOM      7  H3  PH7 d   1     -12.134  55.374  45.525  0.00  0.00     0.084 H 
ATOM      8  H4  PH7 d   1     -10.289  55.947  49.349  0.00  0.00     0.084 H 
ATOM      9  H5  PH7 d   1     -12.342  56.939  50.222  0.00  0.00     0.087 H 
ATOM     10  H15 PH7 d   1     -14.189  56.517  46.376  0.00  0.00     0.087 H 
ENDROOT
BRANCH   1  11
ATOM     11  C1  PH7 d   1      -9.739  55.117  46.892  0.00  0.00    -0.040 C 
ATOM     12  C2  PH7 d   1      -8.622  54.764  47.579  0.00  0.00     0.113 C 
ATOM     13  H1  PH7 d   1      -9.663  55.020  45.810  0.00  0.00     0.088 H 
BRANCH  12  14
ATOM     14  N   PH7 d   1      -8.465  54.728  49.040  0.00  0.00    -0.317 N 
ATOM     15  C   PH7 d   1      -8.178  55.822  49.802  0.00  0.00     0.256 C 
ATOM     16  O   PH7 d   1      -8.057  56.956  49.342  0.00  0.00    -0.267 OA
ATOM     17  H2  PH7 d   1      -8.575  53.849  49.503  0.00  0.00     0.169 HD
BRANCH  15  18
ATOM     18  CC1 PH7 d   1      -8.046  55.536  51.227  0.00  0.00     0.032 A 
ATOM     19  CC2 PH7 d   1      -7.272  56.390  52.039  0.00  0.00    -0.068 A 
ATOM     20  CC3 PH7 d   1      -7.311  56.244  53.437  0.00  0.00    -0.082 A 
ATOM     21  H10 PH7 d   1      -6.650  57.155  51.588  0.00  0.00     0.085 H 
ATOM     22  CC4 PH7 d   1      -8.128  55.241  54.021  0.00  0.00    -0.083 A 
ATOM     23  H11 PH7 d   1      -6.718  56.896  54.068  0.00  0.00     0.083 H 
ATOM     24  CC5 PH7 d   1      -8.860  54.344  53.208  0.00  0.00    -0.082 A 
ATOM     25  H12 PH7 d   1      -8.192  55.161  55.100  0.00  0.00     0.083 H 
ATOM     26  CC6 PH7 d   1      -8.801  54.478  51.809  0.00  0.00    -0.068 A 
ATOM     27  H13 PH7 d   1      -9.460  53.562  53.658  0.00  0.00     0.083 H 
ATOM     28  H14 PH7 d   1      -9.330  53.776  51.174  0.00  0.00     0.085 H 
ENDBRANCH  15  18
ENDBRANCH  12  14
BRANCH  12  29
ATOM     29  CD2 PH7 d   1      -7.450  54.282  46.796  0.00  0.00     0.227 C 
ATOM     30  OC1 PH7 d   1      -7.497  54.388  45.553  0.00  0.00    -0.643 OA
ATOM     31  OC2 PH7 d   1      -6.491  53.729  47.378  0.00  0.00    -0.643 OA
ENDBRANCH  12  29
ENDBRANCH   1  11
BRANCH   3  32
ATOM     32  OAB PH7 d   1     -14.612  57.286  48.873  0.00  0.00    -0.309 OA
BRANCH  32  33
ATOM     33  CA1 PH7 d   1     -14.812  57.569  50.235  0.00  0.00     0.093 A 
ATOM     34  CA2 PH7 d   1     -14.571  58.868  50.725  0.00  0.00     0.044 A 
ATOM     35  CA3 PH7 d   1     -14.809  59.178  52.093  0.00  0.00    -0.063 A 
ATOM     36 BRA2 PH7 d   1     -14.095  60.210  49.516  0.00  0.00    -0.048 Br
ATOM     37  CA4 PH7 d   1     -15.333  58.195  52.956  0.00  0.00    -0.082 A 
ATOM     38  H6  PH7 d   1     -14.587  60.169  52.471  0.00  0.00     0.085 H 
ATOM     39  CA5 PH7 d   1     -15.620  56.902  52.472  0.00  0.00    -0.080 A 
ATOM     40  H7  PH7 d   1     -15.516  58.434  53.997  0.00  0.00     0.083 H 
ATOM     41  CA6 PH7 d   1     -15.348  56.597  51.126  0.00  0.00    -0.049 A 
ATOM     42  H8  PH7 d   1     -16.045  56.152  53.129  0.00  0.00     0.083 H 
ATOM     43  H9  PH7 d   1     -15.552  55.598  50.758  0.00  0.00     0.087 H 
ENDBRANCH  32  33
ENDBRANCH   3  32
TORSDOF 6
