REMARK WARNING: 32 MAX_TORS EXCEEDED!!!
REMARK  43 active torsions:
REMARK  status: ('A' for Active; 'I' for Inactive)
REMARK    1  A    between atoms: CA_2  and  N_1 
REMARK    2  A    between atoms: CA_2  and  CB_5 
REMARK    3  A    between atoms: C_3  and  CA_2 
REMARK       I    between atoms: N_12  and  C_3 
REMARK    4  A    between atoms: CB_5  and  CG_6 
REMARK    5  A    between atoms: CG_6  and  CD_7 
REMARK    6  A    between atoms: CD_7  and  NE_8 
REMARK       I    between atoms: NE_8  and  CZ_9 
REMARK       I    between atoms: CZ_9  and  NH1_10 
REMARK    7  A    between atoms: CA_13  and  N_12 
REMARK    8  A    between atoms: CA_13  and  CB_16 
REMARK    9  A    between atoms: C_14  and  CA_13 
REMARK       I    between atoms: N_17  and  C_14 
REMARK   10  A    between atoms: CA_18  and  N_17 
REMARK   11  A    between atoms: CA_18  and  CB_21 
REMARK   12  A    between atoms: C_19  and  CA_18 
REMARK       I    between atoms: N_24  and  C_19 
REMARK   13  A    between atoms: CB_21  and  CG2_23 
REMARK   14  A    between atoms: CB_21  and  CG1_22 
REMARK   15  A    between atoms: CA_25  and  N_24 
REMARK   16  A    between atoms: CA_25  and  CB_28 
REMARK   17  A    between atoms: C_26  and  CA_25 
REMARK       I    between atoms: N_33  and  C_26 
REMARK   18  A    between atoms: CB_28  and  CG_29 
REMARK   19  A    between atoms: CG_29  and  CD_30 
REMARK   20  A    between atoms: CA_34  and  N_33 
REMARK   21  A    between atoms: CA_34  and  CB_37 
REMARK   22  A    between atoms: C_35  and  CA_34 
REMARK       I    between atoms: N_41  and  C_35 
REMARK   23  A    between atoms: CB_37  and  CG_38 
REMARK       I    between atoms: CG_38  and  ND2_40 
REMARK   24  A    between atoms: CA_42  and  N_41 
REMARK   25  A    between atoms: CA_42  and  CB_45 
REMARK   26  A    between atoms: C_43  and  CA_42 
REMARK       I    between atoms: N_50  and  C_43 
REMARK   27  A    between atoms: CB_45  and  CG_46 
REMARK   28  A    between atoms: CG_46  and  CD_47 
REMARK       I    between atoms: CD_47  and  NE2_49 
REMARK   29  A    between atoms: CA_51  and  N_50 
REMARK   30  A    between atoms: C_52  and  CA_51 
REMARK   31  A    between atoms: CA_51  and  CB_54 
REMARK       I    between atoms: C_52  and  N_66 
REMARK   32  A    between atoms: CB_54  and  CG_55 
REMARK   33  A    between atoms: CZ_60  and  OH_61 
REMARK   34  A    between atoms: OH_61  and  P_62 
REMARK   35  A    between atoms: N_66  and  CA_67 
REMARK   36  A    between atoms: CA_67  and  CB_70 
REMARK   37  A    between atoms: CA_67  and  C_68 
REMARK       I    between atoms: C_68  and  N_72 
REMARK   38  A    between atoms: CB_70  and  OG_71 
REMARK   39  A    between atoms: N_72  and  CA_73 
REMARK   40  A    between atoms: CA_73  and  CB_76 
REMARK   41  A    between atoms: CA_73  and  C_74 
REMARK   42  A    between atoms: C_74  and  O1_83 
REMARK   43  A    between atoms: CB_76  and  CG_77 
ROOT
ATOM      1  CA  ASN d   1      68.769  35.067   5.951  0.00  0.00     0.097 C 
ATOM      2  H37 ASN d   1      69.112  34.167   5.419  0.00  0.00     0.088 H 
ENDROOT
BRANCH   1   3
ATOM      3  N   ASN d   1      67.910  35.827   5.061  0.00  0.00    -0.346 N 
ATOM      4  C   GLU d   1      66.935  35.235   4.386  0.00  0.00     0.241 C 
ATOM      5  O   GLU d   1      66.708  34.028   4.462  0.00  0.00    -0.271 OA
ATOM      6  H36 ASN d   1      68.056  36.811   4.956  0.00  0.00     0.163 HD
BRANCH   4   7
ATOM      7  CA  GLU d   1      66.107  36.139   3.484  0.00  0.00     0.090 C 
ATOM      8  H31 GLU d   1      66.743  36.987   3.188  0.00  0.00     0.087 H 
BRANCH   7   9
ATOM      9  N   GLU d   1      65.677  35.462   2.272  0.00  0.00    -0.346 N 
ATOM     10  C   VAL d   1      66.571  34.925   1.453  0.00  0.00     0.241 C 
ATOM     11  O   VAL d   1      67.780  34.955   1.676  0.00  0.00    -0.271 OA
ATOM     12  H30 GLU d   1      64.703  35.401   2.055  0.00  0.00     0.163 HD
BRANCH  10  13
ATOM     13  CA  VAL d   1      66.037  34.257   0.194  0.00  0.00     0.092 C 
ATOM     14  H22 VAL d   1      64.974  34.496   0.045  0.00  0.00     0.088 H 
BRANCH  13  15
ATOM     15  N   VAL d   1      66.838  34.807  -0.891  0.00  0.00    -0.346 N 
ATOM     16  C   ALA d   1      66.365  35.747  -1.701  0.00  0.00     0.240 C 
ATOM     17  O   ALA d   1      65.217  36.190  -1.620  0.00  0.00    -0.271 OA
ATOM     18  H21 VAL d   1      67.769  34.468  -1.030  0.00  0.00     0.163 HD
BRANCH  16  19
ATOM     19  CA  ALA d   1      67.348  36.254  -2.751  0.00  0.00     0.086 C 
ATOM     20  H17 ALA d   1      68.068  35.441  -2.925  0.00  0.00     0.086 H 
BRANCH  19  21
ATOM     21  N   ALA d   1      66.786  36.596  -4.057  0.00  0.00    -0.346 N 
ATOM     22  C   ARG d   1      66.470  35.645  -4.932  0.00  0.00     0.248 C 
ATOM     23  O   ARG d   1      66.605  34.449  -4.680  0.00  0.00    -0.271 OA
ATOM     24  H16 ALA d   1      66.638  37.556  -4.295  0.00  0.00     0.163 HD
BRANCH  22  25
ATOM     25  CA  ARG d   1      65.923  36.096  -6.294  0.00  0.00     0.176 C 
ATOM     26  H4  ARG d   1      66.372  37.064  -6.560  0.00  0.00     0.099 H 
BRANCH  25  27
ATOM     27  N   ARG d   1      66.289  35.080  -7.325  0.00  0.00    -0.067 N 
ATOM     28  H1  ARG d   1      65.933  35.369  -8.223  0.00  0.00     0.275 HD
ATOM     29  H2  ARG d   1      65.888  34.189  -7.076  0.00  0.00     0.275 HD
ATOM     30  H3  ARG d   1      67.292  34.996  -7.372  0.00  0.00     0.275 HD
ENDBRANCH  25  27
BRANCH  25  31
ATOM     31  CB  ARG d   1      64.401  36.248  -6.244  0.00  0.00    -0.029 C 
ATOM     32  H5  ARG d   1      63.988  35.389  -5.695  0.00  0.00     0.036 H 
ATOM     33  H6  ARG d   1      64.021  36.241  -7.276  0.00  0.00     0.036 H 
BRANCH  31  34
ATOM     34  CG  ARG d   1      63.919  37.515  -5.571  0.00  0.00    -0.047 C 
ATOM     35  H7  ARG d   1      64.373  37.582  -4.571  0.00  0.00     0.035 H 
ATOM     36  H8  ARG d   1      62.824  37.473  -5.475  0.00  0.00     0.035 H 
BRANCH  34  37
ATOM     37  CD  ARG d   1      64.297  38.761  -6.370  0.00  0.00     0.009 C 
ATOM     38  H9  ARG d   1      63.648  38.830  -7.256  0.00  0.00     0.064 H 
ATOM     39  H10 ARG d   1      65.346  38.678  -6.690  0.00  0.00     0.064 H 
BRANCH  37  40
ATOM     40  NE  ARG d   1      64.137  39.971  -5.565  0.00  0.00    -0.227 N 
ATOM     41  CZ  ARG d   1      64.550  41.181  -5.932  0.00  0.00     0.665 C 
ATOM     42  NH2 ARG d   1      64.371  42.212  -5.119  0.00  0.00    -0.235 N 
ATOM     43  NH1 ARG d   1      65.151  41.360  -7.104  0.00  0.00    -0.235 N 
ATOM     44  H14 ARG d   1      63.906  42.077  -4.210  0.00  0.00     0.174 HD
ATOM     45  H15 ARG d   1      64.697  43.149  -5.396  0.00  0.00     0.174 HD
ATOM     46  H12 ARG d   1      65.468  42.300  -7.382  0.00  0.00     0.174 HD
ATOM     47  H13 ARG d   1      65.299  40.559  -7.734  0.00  0.00     0.174 HD
ATOM     48  H11 ARG d   1      63.672  39.880  -4.650  0.00  0.00     0.177 HD
ENDBRANCH  37  40
ENDBRANCH  34  37
ENDBRANCH  31  34
ENDBRANCH  25  31
ENDBRANCH  22  25
ENDBRANCH  19  21
BRANCH  19  49
ATOM     49  CB  ALA d   1      68.117  37.447  -2.187  0.00  0.00    -0.049 C 
ATOM     50  H18 ALA d   1      68.536  37.182  -1.205  0.00  0.00     0.030 H 
ATOM     51  H19 ALA d   1      67.435  38.303  -2.075  0.00  0.00     0.030 H 
ATOM     52  H20 ALA d   1      68.933  37.715  -2.874  0.00  0.00     0.030 H 
ENDBRANCH  19  49
ENDBRANCH  16  19
ENDBRANCH  13  15
BRANCH  13  53
ATOM     53  CB  VAL d   1      66.211  32.727   0.310  0.00  0.00    -0.033 C 
ATOM     54  H23 VAL d   1      67.284  32.486   0.306  0.00  0.00     0.042 H 
BRANCH  53  55
ATOM     55  CG2 VAL d   1      65.543  32.045  -0.877  0.00  0.00    -0.071 C 
ATOM     56  H27 VAL d   1      65.994  32.411  -1.811  0.00  0.00     0.028 H 
ATOM     57  H28 VAL d   1      64.467  32.275  -0.874  0.00  0.00     0.028 H 
ATOM     58  H29 VAL d   1      65.686  30.957  -0.802  0.00  0.00     0.028 H 
ENDBRANCH  53  55
BRANCH  53  59
ATOM     59  CG1 VAL d   1      65.594  32.228   1.615  0.00  0.00    -0.071 C 
ATOM     60  H24 VAL d   1      65.723  31.138   1.688  0.00  0.00     0.028 H 
ATOM     61  H25 VAL d   1      64.522  32.472   1.631  0.00  0.00     0.028 H 
ATOM     62  H26 VAL d   1      66.093  32.714   2.466  0.00  0.00     0.028 H 
ENDBRANCH  53  59
ENDBRANCH  13  53
ENDBRANCH  10  13
ENDBRANCH   7   9
BRANCH   7  63
ATOM     63  CB  GLU d   1      64.896  36.694   4.233  0.00  0.00    -0.029 C 
ATOM     64  H32 GLU d   1      65.243  37.151   5.171  0.00  0.00     0.037 H 
ATOM     65  H33 GLU d   1      64.213  35.862   4.461  0.00  0.00     0.037 H 
BRANCH  63  66
ATOM     66  CG  GLU d   1      64.130  37.748   3.431  0.00  0.00     0.018 C 
ATOM     67  H34 GLU d   1      63.340  38.170   4.070  0.00  0.00     0.049 H 
ATOM     68  H35 GLU d   1      63.673  37.261   2.557  0.00  0.00     0.049 H 
BRANCH  66  69
ATOM     69  CD  GLU d   1      65.025  38.888   2.943  0.00  0.00     0.172 C 
ATOM     70  OE2 GLU d   1      65.232  39.005   1.711  0.00  0.00    -0.648 OA
ATOM     71  OE1 GLU d   1      65.526  39.662   3.791  0.00  0.00    -0.648 OA
ENDBRANCH  66  69
ENDBRANCH  63  66
ENDBRANCH   7  63
ENDBRANCH   4   7
ENDBRANCH   1   3
BRANCH   1  72
ATOM     72  CB  ASN d   1      69.994  35.903   6.329  0.00  0.00     0.036 C 
ATOM     73  H38 ASN d   1      70.583  35.350   7.076  0.00  0.00     0.051 H 
ATOM     74  H39 ASN d   1      69.653  36.855   6.762  0.00  0.00     0.051 H 
BRANCH  72  75
ATOM     75  CG  ASN d   1      70.879  36.200   5.131  0.00  0.00     0.217 C 
ATOM     76  ND2 ASN d   1      71.226  37.472   4.940  0.00  0.00    -0.370 N 
ATOM     77  H40 ASN d   1      71.808  37.721   4.165  0.00  0.00     0.159 HD
ATOM     78  H41 ASN d   1      70.905  38.178   5.571  0.00  0.00     0.159 HD
ATOM     79  OD1 ASN d   1      71.248  35.290   4.385  0.00  0.00    -0.274 OA
ENDBRANCH  72  75
ENDBRANCH   1  72
BRANCH   1  80
ATOM     80  C   ASN d   1      68.009  34.624   7.197  0.00  0.00     0.241 C 
ATOM     81  O   ASN d   1      67.090  35.307   7.659  0.00  0.00    -0.271 OA
ATOM     82  N   GLN d   1      68.403  33.474   7.735  0.00  0.00    -0.346 N 
ATOM     83  H42 GLN d   1      69.166  32.980   7.318  0.00  0.00     0.163 HD
BRANCH  82  84
ATOM     84  CA  GLN d   1      67.759  32.912   8.911  0.00  0.00     0.090 C 
ATOM     85  H43 GLN d   1      66.682  33.118   8.828  0.00  0.00     0.087 H 
BRANCH  84  86
ATOM     86  CB  GLN d   1      67.955  31.391   8.923  0.00  0.00    -0.030 C 
ATOM     87  H44 GLN d   1      67.366  30.965   9.748  0.00  0.00     0.037 H 
ATOM     88  H45 GLN d   1      69.021  31.173   9.083  0.00  0.00     0.037 H 
BRANCH  86  89
ATOM     89  CG  GLN d   1      67.511  30.738   7.614  0.00  0.00     0.011 C 
ATOM     90  H46 GLN d   1      68.112  31.160   6.795  0.00  0.00     0.047 H 
ATOM     91  H47 GLN d   1      66.450  30.976   7.451  0.00  0.00     0.047 H 
BRANCH  89  92
ATOM     92  CD  GLN d   1      67.671  29.230   7.595  0.00  0.00     0.215 C 
ATOM     93  NE2 GLN d   1      66.760  28.551   6.914  0.00  0.00    -0.370 N 
ATOM     94  H48 GLN d   1      66.813  27.554   6.865  0.00  0.00     0.159 HD
ATOM     95  H49 GLN d   1      66.019  29.036   6.449  0.00  0.00     0.159 HD
ATOM     96  OE1 GLN d   1      68.610  28.686   8.163  0.00  0.00    -0.274 OA
ENDBRANCH  89  92
ENDBRANCH  86  89
ENDBRANCH  84  86
BRANCH  84  97
ATOM     97  C   GLN d   1      68.235  33.519  10.223  0.00  0.00     0.241 C 
ATOM     98  O   GLN d   1      69.284  33.157  10.762  0.00  0.00    -0.271 OA
ATOM     99  N   PTR d   1      67.453  34.460  10.729  0.00  0.00    -0.346 N 
ATOM    100  H50 PTR d   1      66.634  34.739  10.227  0.00  0.00     0.163 HD
BRANCH  99 101
ATOM    101  CA  PTR d   1      67.760  35.092  11.992  0.00  0.00     0.093 C 
ATOM    102  H51 PTR d   1      68.835  35.019  12.213  0.00  0.00     0.088 H 
BRANCH 101 103
ATOM    103  C   PTR d   1      66.950  34.311  13.016  0.00  0.00     0.241 C 
ATOM    104  O   PTR d   1      66.017  33.596  12.652  0.00  0.00    -0.271 OA
ATOM    105  N   SER d   1      67.302  34.433  14.287  0.00  0.00    -0.344 N 
ATOM    106  H58 SER d   1      68.067  35.027  14.537  0.00  0.00     0.163 HD
BRANCH 105 107
ATOM    107  CA  SER d   1      66.582  33.707  15.322  0.00  0.00     0.109 C 
ATOM    108  H59 SER d   1      65.655  33.302  14.890  0.00  0.00     0.090 H 
BRANCH 107 109
ATOM    109  CB  SER d   1      67.435  32.548  15.843  0.00  0.00     0.044 C 
ATOM    110  H60 SER d   1      66.917  32.072  16.689  0.00  0.00     0.077 H 
ATOM    111  H61 SER d   1      68.406  32.939  16.181  0.00  0.00     0.077 H 
BRANCH 109 112
ATOM    112  OG  SER d   1      67.651  31.583  14.829  0.00  0.00    -0.398 OA
ATOM    113  H62 SER d   1      68.101  31.989  14.098  0.00  0.00     0.209 HD
ENDBRANCH 109 112
ENDBRANCH 107 109
BRANCH 107 114
ATOM    114  C   SER d   1      66.226  34.626  16.468  0.00  0.00     0.243 C 
ATOM    115  O   SER d   1      66.620  35.787  16.487  0.00  0.00    -0.271 OA
ATOM    116  N   PHE d   1      65.474  34.103  17.425  0.00  0.00    -0.344 N 
ATOM    117  H63 PHE d   1      65.160  33.157  17.345  0.00  0.00     0.163 HD
BRANCH 116 118
ATOM    118  CA  PHE d   1      65.100  34.888  18.590  0.00  0.00     0.097 C 
ATOM    119  H64 PHE d   1      66.012  35.323  19.025  0.00  0.00     0.089 H 
BRANCH 118 120
ATOM    120  CB  PHE d   1      64.163  36.022  18.184  0.00  0.00    -0.013 C 
ATOM    121  H65 PHE d   1      63.128  35.708  18.386  0.00  0.00     0.043 H 
ATOM    122  H66 PHE d   1      64.286  36.207  17.107  0.00  0.00     0.043 H 
BRANCH 120 123
ATOM    123  CG  PHE d   1      64.423  37.303  18.919  0.00  0.00    -0.056 A 
ATOM    124  CD1 PHE d   1      65.429  38.163  18.498  0.00  0.00    -0.077 A 
ATOM    125  CE1 PHE d   1      65.688  39.345  19.179  0.00  0.00    -0.082 A 
ATOM    126  H67 PHE d   1      66.020  37.908  17.626  0.00  0.00     0.084 H 
ATOM    127  CZ  PHE d   1      64.934  39.680  20.298  0.00  0.00    -0.083 A 
ATOM    128  H69 PHE d   1      66.477  40.006  18.839  0.00  0.00     0.083 H 
ATOM    129  CE2 PHE d   1      63.924  38.827  20.731  0.00  0.00    -0.082 A 
ATOM    130  H71 PHE d   1      65.132  40.603  20.831  0.00  0.00     0.083 H 
ATOM    131  CD2 PHE d   1      63.673  37.644  20.039  0.00  0.00    -0.077 A 
ATOM    132  H70 PHE d   1      63.334  39.082  21.604  0.00  0.00     0.083 H 
ATOM    133  H68 PHE d   1      62.884  36.982  20.378  0.00  0.00     0.084 H 
ENDBRANCH 120 123
ENDBRANCH 118 120
BRANCH 118 134
ATOM    134  C   PHE d   1      64.428  34.014  19.645  0.00  0.00     0.163 C 
ATOM    135  O   PHE d   1      63.283  34.355  20.026  0.00  0.00    -0.648 OA
BRANCH 134 136
ATOM    136  O1  PHE d   1      65.031  32.937  20.139  0.00  0.00    -0.775 OA
ATOM    137  H72 PHE d   1      64.503  32.168  19.957  0.00  0.00     0.167 HD
ENDBRANCH 134 136
ENDBRANCH 118 134
ENDBRANCH 116 118
ENDBRANCH 107 114
ENDBRANCH 105 107
ENDBRANCH 101 103
BRANCH 101 138
ATOM    138  CB  PTR d   1      67.347  36.561  11.964  0.00  0.00    -0.014 C 
ATOM    139  H52 PTR d   1      67.299  36.932  12.998  0.00  0.00     0.043 H 
ATOM    140  H53 PTR d   1      66.353  36.638  11.500  0.00  0.00     0.043 H 
BRANCH 138 141
ATOM    141  CG  PTR d   1      68.314  37.427  11.183  0.00  0.00    -0.056 A 
ATOM    142  CD1 PTR d   1      69.595  37.688  11.673  0.00  0.00    -0.074 A 
ATOM    143  CE1 PTR d   1      70.513  38.441  10.941  0.00  0.00    -0.050 A 
ATOM    144  H54 PTR d   1      69.882  37.297  12.643  0.00  0.00     0.084 H 
ATOM    145  CZ  PTR d   1      70.154  38.942   9.700  0.00  0.00     0.082 A 
ATOM    146  H56 PTR d   1      71.502  38.633  11.341  0.00  0.00     0.087 H 
ATOM    147  CE2 PTR d   1      68.881  38.701   9.189  0.00  0.00    -0.050 A 
ATOM    148  CD2 PTR d   1      67.969  37.946   9.934  0.00  0.00    -0.074 A 
ATOM    149  H57 PTR d   1      68.599  39.096   8.220  0.00  0.00     0.087 H 
ATOM    150  H55 PTR d   1      66.978  37.761   9.535  0.00  0.00     0.084 H 
BRANCH 145 151
ATOM    151  OH  PTR d   1      71.080  39.663   8.974  0.00  0.00    -0.240 OA
BRANCH 151 152
ATOM    152  P   PTR d   1      70.870  40.486   7.560  0.00  0.00     0.427 P 
ATOM    153  O1P PTR d   1      70.366  39.491   6.593  0.00  0.00    -0.617 OA
ATOM    154  O2P PTR d   1      72.253  40.976   7.256  0.00  0.00    -0.617 OA
ATOM    155  O3P PTR d   1      69.921  41.541   7.947  0.00  0.00    -0.617 OA
ENDBRANCH 151 152
ENDBRANCH 145 151
ENDBRANCH 138 141
ENDBRANCH 101 138
ENDBRANCH  99 101
ENDBRANCH  84  97
ENDBRANCH  82  84
ENDBRANCH   1  80
TORSDOF 43
