REMARK  7 active torsions:
REMARK  status: ('A' for Active; 'I' for Inactive)
REMARK    1  A    between atoms: N1_1  and  C2_2 
REMARK       I    between atoms: N1_1  and  C5_5 
REMARK    2  A    between atoms: C2_2  and  C3_3 
REMARK    3  A    between atoms: C2_2  and  C4_4 
REMARK    4  A    between atoms: C5_5  and  C7_7 
REMARK    5  A    between atoms: C10_10  and  C13_13 
REMARK    6  A    between atoms: C15_15  and  C19_19 
REMARK    7  A    between atoms: C17_17  and  C22_22 
ROOT
ATOM      1  N1  IPC d   1      27.790  62.008   6.365  0.00  0.00    -0.319 N 
ATOM      2  C5  IPC d   1      27.076  61.535   7.526  0.00  0.00     0.192 C 
ATOM      3  O6  IPC d   1      26.803  62.284   8.580  0.00  0.00    -0.171 OA
ATOM      4  C14 IPC d   1      28.068  61.251   5.311  0.00  0.00     0.062 A 
ATOM      5  C15 IPC d   1      29.149  60.177   5.306  0.00  0.00     0.109 A 
ATOM      6  S16 IPC d   1      29.302  59.350   3.867  0.00  0.00    -0.080 SA
ATOM      7  C17 IPC d   1      28.042  60.247   3.110  0.00  0.00     0.018 A 
ATOM      8  C18 IPC d   1      27.504  61.205   4.014  0.00  0.00    -0.038 A 
ATOM      9  H15 IPC d   1      26.695  61.873   3.721  0.00  0.00     0.089 H 
ENDROOT
BRANCH   1  10
ATOM     10  C2  IPC d   1      28.294  63.588   6.337  0.00  0.00     0.012 C 
ATOM     11  H1  IPC d   1      28.468  63.823   7.397  0.00  0.00     0.072 H 
BRANCH  10  12
ATOM     12  C3  IPC d   1      27.321  64.604   5.858  0.00  0.00    -0.057 C 
ATOM     13  H2  IPC d   1      27.785  65.601   5.892  0.00  0.00     0.030 H 
ATOM     14  H3  IPC d   1      26.430  64.592   6.503  0.00  0.00     0.030 H 
ATOM     15  H4  IPC d   1      27.027  64.372   4.824  0.00  0.00     0.030 H 
ENDBRANCH  10  12
BRANCH  10  16
ATOM     16  C4  IPC d   1      29.677  63.896   5.594  0.00  0.00    -0.057 C 
ATOM     17  H5  IPC d   1      29.891  64.974   5.649  0.00  0.00     0.030 H 
ATOM     18  H6  IPC d   1      29.603  63.591   4.540  0.00  0.00     0.030 H 
ATOM     19  H7  IPC d   1      30.488  63.336   6.082  0.00  0.00     0.030 H 
ENDBRANCH  10  16
ENDBRANCH   1  10
BRANCH   2  20
ATOM     20  C7  IPC d   1      26.479  59.978   7.751  0.00  0.00     0.018 A 
ATOM     21  C8  IPC d   1      26.824  59.318   9.043  0.00  0.00    -0.068 A 
ATOM     22  C9  IPC d   1      26.198  57.890   9.080  0.00  0.00    -0.076 A 
ATOM     23  H8  IPC d   1      27.418  59.762   9.834  0.00  0.00     0.085 H 
ATOM     24  C10 IPC d   1      25.368  57.330   7.912  0.00  0.00    -0.062 A 
ATOM     25  H9  IPC d   1      26.353  57.272   9.957  0.00  0.00     0.084 H 
ATOM     26  C11 IPC d   1      25.172  58.130   6.786  0.00  0.00    -0.076 A 
ATOM     27  C12 IPC d   1      25.713  59.414   6.717  0.00  0.00    -0.068 A 
ATOM     28  H10 IPC d   1      24.592  57.749   5.954  0.00  0.00     0.084 H 
ATOM     29  H11 IPC d   1      25.534  60.003   5.825  0.00  0.00     0.085 H 
BRANCH  24  30
ATOM     30  C13 IPC d   1      24.754  55.954   7.925  0.00  0.00    -0.051 C 
ATOM     31  H12 IPC d   1      24.997  55.453   8.874  0.00  0.00     0.033 H 
ATOM     32  H13 IPC d   1      25.155  55.366   7.086  0.00  0.00     0.033 H 
ATOM     33  H14 IPC d   1      23.662  56.039   7.824  0.00  0.00     0.033 H 
ENDBRANCH  24  30
ENDBRANCH   2  20
BRANCH   5  34
ATOM     34  C19 IPC d   1      30.069  59.789   6.432  0.00  0.00     0.219 C 
ATOM     35  O20 IPC d   1      30.997  58.837   6.355  0.00  0.00    -0.643 OA
ATOM     36  O21 IPC d   1      29.974  60.391   7.526  0.00  0.00    -0.643 OA
ENDBRANCH   5  34
BRANCH   7  37
ATOM     37  C22 IPC d   1      27.643  59.998   1.736  0.00  0.00    -0.019 A 
ATOM     38  C23 IPC d   1      28.315  58.955   0.932  0.00  0.00    -0.072 A 
ATOM     39  C24 IPC d   1      27.913  58.710  -0.437  0.00  0.00    -0.082 A 
ATOM     40  H16 IPC d   1      29.115  58.369   1.371  0.00  0.00     0.084 H 
ATOM     41  C25 IPC d   1      26.845  59.486  -1.037  0.00  0.00    -0.083 A 
ATOM     42  H17 IPC d   1      28.413  57.942  -1.017  0.00  0.00     0.083 H 
ATOM     43  C26 IPC d   1      26.167  60.515  -0.272  0.00  0.00    -0.082 A 
ATOM     44  H18 IPC d   1      26.552  59.296  -2.063  0.00  0.00     0.083 H 
ATOM     45  C27 IPC d   1      26.516  60.802   1.072  0.00  0.00    -0.072 A 
ATOM     46  H19 IPC d   1      25.370  61.081  -0.741  0.00  0.00     0.083 H 
ATOM     47  H20 IPC d   1      25.995  61.577   1.622  0.00  0.00     0.084 H 
ENDBRANCH   7  37
TORSDOF 7
