REMARK  7 active torsions:
REMARK  status: ('A' for Active; 'I' for Inactive)
REMARK    1  A    between atoms: N1_1  and  C2_2 
REMARK       I    between atoms: N1_1  and  C5_5 
REMARK    2  A    between atoms: N1_1  and  C15_15 
REMARK    3  A    between atoms: C2_2  and  C3_3 
REMARK    4  A    between atoms: C2_2  and  C4_4 
REMARK    5  A    between atoms: C5_5  and  C7_7 
REMARK    6  A    between atoms: C16_16  and  C20_20 
REMARK    7  A    between atoms: C18_18  and  C23_23 
ROOT
ATOM      1  N1  JPC d   1      28.104  61.948   6.200  0.00  0.00    -0.308 N 
ATOM      2  C5  JPC d   1      27.153  61.639   7.244  0.00  0.00     0.260 C 
ATOM      3  O6  JPC d   1      26.755  62.462   8.069  0.00  0.00    -0.267 OA
ENDROOT
BRANCH   1   4
ATOM      4  C2  JPC d   1      28.578  63.415   6.207  0.00  0.00     0.013 C 
ATOM      5  H1  JPC d   1      28.638  63.721   7.262  0.00  0.00     0.072 H 
BRANCH   4   6
ATOM      6  C3  JPC d   1      27.596  64.376   5.485  0.00  0.00    -0.057 C 
ATOM      7  H2  JPC d   1      27.991  65.402   5.526  0.00  0.00     0.030 H 
ATOM      8  H3  JPC d   1      26.616  64.341   5.983  0.00  0.00     0.030 H 
ATOM      9  H4  JPC d   1      27.486  64.067   4.435  0.00  0.00     0.030 H 
ENDBRANCH   4   6
BRANCH   4  10
ATOM     10  C4  JPC d   1      29.997  63.632   5.563  0.00  0.00    -0.057 C 
ATOM     11  H5  JPC d   1      30.260  64.699   5.607  0.00  0.00     0.030 H 
ATOM     12  H6  JPC d   1      29.978  63.302   4.514  0.00  0.00     0.030 H 
ATOM     13  H7  JPC d   1      30.745  63.047   6.118  0.00  0.00     0.030 H 
ENDBRANCH   4  10
ENDBRANCH   1   4
BRANCH   1  14
ATOM     14  C15 JPC d   1      28.582  60.986   5.227  0.00  0.00     0.063 A 
ATOM     15  C16 JPC d   1      29.565  59.988   5.337  0.00  0.00     0.109 A 
ATOM     16  S17 JPC d   1      29.803  59.074   3.912  0.00  0.00    -0.080 SA
ATOM     17  C18 JPC d   1      28.612  59.942   3.048  0.00  0.00     0.018 A 
ATOM     18  C19 JPC d   1      28.077  60.903   3.885  0.00  0.00    -0.038 A 
ATOM     19  H11 JPC d   1      27.296  61.577   3.537  0.00  0.00     0.089 H 
BRANCH  15  20
ATOM     20  C20 JPC d   1      30.378  59.686   6.555  0.00  0.00     0.219 C 
ATOM     21  O21 JPC d   1      31.208  58.776   6.483  0.00  0.00    -0.643 OA
ATOM     22  O22 JPC d   1      30.154  60.384   7.564  0.00  0.00    -0.643 OA
ENDBRANCH  15  20
BRANCH  17  23
ATOM     23  C23 JPC d   1      28.235  59.687   1.628  0.00  0.00    -0.019 A 
ATOM     24  C24 JPC d   1      29.142  58.984   0.728  0.00  0.00    -0.072 A 
ATOM     25  C25 JPC d   1      28.787  58.737  -0.644  0.00  0.00    -0.082 A 
ATOM     26  H12 JPC d   1      30.101  58.641   1.100  0.00  0.00     0.084 H 
ATOM     27  C26 JPC d   1      27.516  59.187  -1.149  0.00  0.00    -0.083 A 
ATOM     28  H13 JPC d   1      29.476  58.213  -1.297  0.00  0.00     0.083 H 
ATOM     29  C27 JPC d   1      26.601  59.882  -0.284  0.00  0.00    -0.082 A 
ATOM     30  H14 JPC d   1      27.248  59.002  -2.183  0.00  0.00     0.083 H 
ATOM     31  C28 JPC d   1      26.951  60.131   1.084  0.00  0.00    -0.072 A 
ATOM     32  H15 JPC d   1      25.644  60.218  -0.667  0.00  0.00     0.083 H 
ATOM     33  H16 JPC d   1      26.253  60.657   1.726  0.00  0.00     0.084 H 
ENDBRANCH  17  23
ENDBRANCH   1  14
BRANCH   2  34
ATOM     34  C7  JPC d   1      26.557  60.232   7.401  0.00  0.00     0.054 A 
ATOM     35  C8  JPC d   1      27.063  59.421   8.476  0.00  0.00    -0.064 A 
ATOM     36  C9  JPC d   1      26.568  58.092   8.689  0.00  0.00    -0.061 A 
ATOM     37  H8  JPC d   1      27.828  59.819   9.133  0.00  0.00     0.085 H 
ATOM     38  C10 JPC d   1      25.555  57.559   7.823  0.00  0.00     0.035 A 
ATOM     39  H9  JPC d   1      26.958  57.491   9.502  0.00  0.00     0.086 H 
ATOM     40  C11 JPC d   1      25.029  58.356   6.737  0.00  0.00    -0.040 A 
ATOM     41 CL13 JPC d   1      24.975  55.980   8.080  0.00  0.00    -0.084 Cl
ATOM     42  C12 JPC d   1      25.511  59.695   6.509  0.00  0.00     0.051 A 
ATOM     43  H10 JPC d   1      24.265  57.943   6.088  0.00  0.00     0.088 H 
ATOM     44 CL14 JPC d   1      24.825  60.610   5.173  0.00  0.00    -0.083 Cl
ENDBRANCH   2  34
TORSDOF 7
