REMARK  9 active torsions:
REMARK  status: ('A' for Active; 'I' for Inactive)
REMARK    1  A    between atoms: C1_1  and  C17_10 
REMARK    2  A    between atoms: N2_2  and  C6_6 
REMARK    3  A    between atoms: C5_5  and  C35_24 
REMARK    4  A    between atoms: C6_6  and  O7_7 
REMARK    5  A    between atoms: O7_7  and  C10_8 
REMARK    6  A    between atoms: C10_8  and  C11_9 
REMARK    7  A    between atoms: C21_14  and  O23_16 
REMARK    8  A    between atoms: O23_16  and  C24_17 
REMARK    9  A    between atoms: C29_22  and  O34_23 
ROOT
ATOM      1  C1  PGJ d   1      18.928  39.525  18.027  0.00  0.00     0.086 A 
ATOM      2  N2  PGJ d   1      17.978  40.250  18.918  0.00  0.00    -0.126 NA
ATOM      3  O3  PGJ d   1      17.989  39.398  20.164  0.00  0.00    -0.213 OA
ATOM      4  C4  PGJ d   1      18.845  38.368  20.014  0.00  0.00     0.313 A 
ATOM      5  C5  PGJ d   1      19.455  38.477  18.675  0.00  0.00     0.077 A 
ATOM      6  O47 PGJ d   1      19.142  37.541  20.823  0.00  0.00    -0.258 OA
ENDROOT
BRANCH   1   7
ATOM      7  C17 PGJ d   1      18.947  39.822  16.601  0.00  0.00     0.087 A 
ATOM      8  C18 PGJ d   1      18.953  38.814  15.649  0.00  0.00    -0.036 A 
ATOM      9  C19 PGJ d   1      18.987  39.184  14.312  0.00  0.00     0.009 A 
ATOM     10  H8  PGJ d   1      18.932  37.770  15.940  0.00  0.00     0.089 H 
ATOM     11  N20 PGJ d   1      19.015  40.463  13.934  0.00  0.00    -0.219 NA
ATOM     12  H9  PGJ d   1      18.991  38.411  13.552  0.00  0.00     0.115 H 
ATOM     13  C21 PGJ d   1      18.989  41.494  14.853  0.00  0.00     0.274 A 
ATOM     14  N22 PGJ d   1      18.945  41.086  16.178  0.00  0.00    -0.205 NA
BRANCH  13  15
ATOM     15  O23 PGJ d   1      18.956  42.783  14.418  0.00  0.00    -0.274 OA
BRANCH  15  16
ATOM     16  C24 PGJ d   1      18.297  43.736  15.186  0.00  0.00     0.112 A 
ATOM     17  C25 PGJ d   1      18.984  44.882  15.554  0.00  0.00    -0.047 A 
ATOM     18  C26 PGJ d   1      18.367  45.861  16.323  0.00  0.00    -0.080 A 
ATOM     19  H10 PGJ d   1      20.012  45.016  15.239  0.00  0.00     0.087 H 
ATOM     20  C27 PGJ d   1      17.054  45.691  16.728  0.00  0.00    -0.080 A 
ATOM     21  H11 PGJ d   1      18.912  46.755  16.605  0.00  0.00     0.083 H 
ATOM     22  C28 PGJ d   1      16.358  44.539  16.386  0.00  0.00    -0.048 A 
ATOM     23  H12 PGJ d   1      16.567  46.461  17.315  0.00  0.00     0.083 H 
ATOM     24  C29 PGJ d   1      16.965  43.579  15.588  0.00  0.00     0.099 A 
ATOM     25  H13 PGJ d   1      15.345  44.390  16.741  0.00  0.00     0.087 H 
BRANCH  24  26
ATOM     26  O34 PGJ d   1      16.252  42.451  15.245  0.00  0.00    -0.358 OA
ATOM     27  H14 PGJ d   1      15.473  42.704  14.765  0.00  0.00     0.217 HD
ENDBRANCH  24  26
ENDBRANCH  15  16
ENDBRANCH  13  15
ENDBRANCH   1   7
BRANCH   2  28
ATOM     28  C6  PGJ d   1      18.399  41.621  19.222  0.00  0.00     0.091 C 
ATOM     29  H1  PGJ d   1      19.041  41.997  18.412  0.00  0.00     0.102 H 
ATOM     30  H2  PGJ d   1      18.959  41.633  20.169  0.00  0.00     0.102 H 
BRANCH  28  31
ATOM     31  O7  PGJ d   1      17.253  42.445  19.339  0.00  0.00    -0.375 OA
BRANCH  31  32
ATOM     32  C10 PGJ d   1      17.470  43.791  19.696  0.00  0.00     0.018 C 
ATOM     33  H3  PGJ d   1      16.914  44.024  20.616  0.00  0.00     0.073 H 
ATOM     34  H4  PGJ d   1      17.128  44.449  18.884  0.00  0.00     0.073 H 
BRANCH  32  35
ATOM     35  C11 PGJ d   1      18.958  43.999  19.931  0.00  0.00    -0.056 C 
ATOM     36  H5  PGJ d   1      19.142  45.047  20.211  0.00  0.00     0.030 H 
ATOM     37  H6  PGJ d   1      19.511  43.763  19.010  0.00  0.00     0.030 H 
ATOM     38  H7  PGJ d   1      19.297  43.338  20.742  0.00  0.00     0.030 H 
ENDBRANCH  32  35
ENDBRANCH  31  32
ENDBRANCH  28  31
ENDBRANCH   2  28
BRANCH   5  39
ATOM     39  C35 PGJ d   1      20.380  37.422  18.258  0.00  0.00    -0.018 C 
ATOM     40  C36 PGJ d   1      19.963  36.101  18.457  0.00  0.00    -0.069 C 
ATOM     41  C37 PGJ d   1      20.781  35.053  18.059  0.00  0.00    -0.045 C 
ATOM     42  H15 PGJ d   1      19.005  35.897  18.920  0.00  0.00     0.085 H 
ATOM     43  C38 PGJ d   1      22.019  35.351  17.505  0.00  0.00     0.116 C 
ATOM     44  H16 PGJ d   1      20.461  34.024  18.178  0.00  0.00     0.088 H 
ATOM     45  C39 PGJ d   1      22.468  36.648  17.344  0.00  0.00    -0.045 C 
ATOM     46  F45 PGJ d   1      22.803  34.315  17.190  0.00  0.00    -0.206 F 
ATOM     47  C40 PGJ d   1      21.592  37.696  17.638  0.00  0.00    -0.069 C 
ATOM     48  H17 PGJ d   1      23.476  36.847  16.998  0.00  0.00     0.088 H 
ATOM     49  H18 PGJ d   1      21.857  38.716  17.384  0.00  0.00     0.085 H 
ENDBRANCH   5  39
TORSDOF 9
