REMARK  5 active torsions:
REMARK  status: ('A' for Active; 'I' for Inactive)
REMARK    1  A    between atoms: C4_4  and  S7_7 
REMARK    2  A    between atoms: S7_7  and  N8_8 
REMARK    3  A    between atoms: N8_8  and  C11_11 
REMARK    4  A    between atoms: C14_14  and  C20_20 
REMARK    5  A    between atoms: C16_16  and  C17_17 
ROOT
ATOM      1  C11 A41 d   1      16.192  30.206  16.914  0.00  0.00     0.059 A 
ATOM      2  C12 A41 d   1      15.574  31.463  16.661  0.00  0.00    -0.055 A 
ATOM      3  C13 A41 d   1      16.335  32.583  16.250  0.00  0.00    -0.075 A 
ATOM      4  C14 A41 d   1      17.738  32.480  16.077  0.00  0.00    -0.061 A 
ATOM      5  C15 A41 d   1      18.366  31.236  16.323  0.00  0.00    -0.059 A 
ATOM      6  C16 A41 d   1      17.624  30.091  16.738  0.00  0.00     0.068 A 
ATOM      7  H7  A41 d   1      14.502  31.564  16.785  0.00  0.00     0.087 H 
ATOM      8  H8  A41 d   1      15.840  33.529  16.066  0.00  0.00     0.084 H 
ATOM      9  H9  A41 d   1      19.439  31.151  16.193  0.00  0.00     0.086 H 
ENDROOT
BRANCH   1  10
ATOM     10  N8  A41 d   1      15.418  29.130  17.319  0.00  0.00    -0.280 N 
ATOM     11  H6  A41 d   1      15.226  28.420  16.641  0.00  0.00     0.179 HD
BRANCH  10  12
ATOM     12  S7  A41 d   1      14.792  28.928  18.822  0.00  0.00     0.263 S 
ATOM     13  O9  A41 d   1      14.236  30.193  19.231  0.00  0.00    -0.200 OA
ATOM     14  O10 A41 d   1      13.927  27.777  18.792  0.00  0.00    -0.200 OA
BRANCH  12  15
ATOM     15  C4  A41 d   1      16.182  28.539  19.865  0.00  0.00     0.079 A 
ATOM     16  C3  A41 d   1      16.811  29.564  20.614  0.00  0.00    -0.060 A 
ATOM     17  C2  A41 d   1      17.920  29.255  21.441  0.00  0.00    -0.082 A 
ATOM     18  H3  A41 d   1      16.445  30.583  20.555  0.00  0.00     0.085 H 
ATOM     19  C1  A41 d   1      18.398  27.922  21.518  0.00  0.00    -0.083 A 
ATOM     20  H2  A41 d   1      18.403  30.038  22.015  0.00  0.00     0.083 H 
ATOM     21  C6  A41 d   1      17.764  26.899  20.767  0.00  0.00    -0.082 A 
ATOM     22  H1  A41 d   1      19.247  27.685  22.150  0.00  0.00     0.083 H 
ATOM     23  C5  A41 d   1      16.657  27.205  19.940  0.00  0.00    -0.060 A 
ATOM     24  H5  A41 d   1      18.128  25.880  20.827  0.00  0.00     0.083 H 
ATOM     25  H4  A41 d   1      16.174  26.422  19.366  0.00  0.00     0.085 H 
ENDBRANCH  12  15
ENDBRANCH  10  12
ENDBRANCH   1  10
BRANCH   6  26
ATOM     26  C17 A41 d   1      18.396  28.841  16.966  0.00  0.00     0.211 C 
ATOM     27  O18 A41 d   1      19.347  28.843  17.695  0.00  0.00    -0.644 OA
ATOM     28  O19 A41 d   1      17.846  27.682  16.547  0.00  0.00    -0.644 OA
ENDBRANCH   6  26
BRANCH   4  29
ATOM     29  C20 A41 d   1      18.548  33.674  15.640  0.00  0.00    -0.051 C 
ATOM     30  H10 A41 d   1      17.882  34.538  15.502  0.00  0.00     0.033 H 
ATOM     31  H11 A41 d   1      19.054  33.446  14.691  0.00  0.00     0.033 H 
ATOM     32  H12 A41 d   1      19.299  33.909  16.409  0.00  0.00     0.033 H 
ENDBRANCH   4  29
TORSDOF 5
