REMARK  4 active torsions:
REMARK  status: ('A' for Active; 'I' for Inactive)
REMARK    1  A    between atoms: C9_9  and  N14_14 
REMARK    2  A    between atoms: C10_10  and  C11_11 
REMARK    3  A    between atoms: N14_14  and  S15_15 
REMARK    4  A    between atoms: S15_15  and  C16_16 
ROOT
ATOM      1  C1  A75 d   1      19.995  33.686  15.984  0.00  0.00    -0.061 C 
ATOM      2  C2  A75 d   1      18.475  33.811  15.783  0.00  0.00    -0.040 C 
ATOM      3  C3  A75 d   1      17.697  32.568  16.215  0.00  0.00    -0.051 A 
ATOM      4  C4  A75 d   1      18.349  31.278  16.378  0.00  0.00    -0.033 A 
ATOM      5  C5  A75 d   1      19.857  31.111  16.119  0.00  0.00    -0.039 C 
ATOM      6  C6  A75 d   1      20.554  32.339  15.492  0.00  0.00    -0.061 C 
ATOM      7  C7  A75 d   1      16.304  32.677  16.465  0.00  0.00    -0.074 A 
ATOM      8  C8  A75 d   1      15.545  31.560  16.864  0.00  0.00    -0.055 A 
ATOM      9  C9  A75 d   1      16.164  30.310  17.025  0.00  0.00     0.060 A 
ATOM     10  C10 A75 d   1      17.552  30.159  16.787  0.00  0.00     0.074 A 
ATOM     11  H1  A75 d   1      20.217  33.788  17.056  0.00  0.00     0.033 H 
ATOM     12  H2  A75 d   1      20.491  34.496  15.428  0.00  0.00     0.033 H 
ATOM     13  H3  A75 d   1      18.279  33.991  14.716  0.00  0.00     0.040 H 
ATOM     14  H4  A75 d   1      18.116  34.668  16.371  0.00  0.00     0.040 H 
ATOM     15  H5  A75 d   1      19.994  30.258  15.439  0.00  0.00     0.040 H 
ATOM     16  H6  A75 d   1      20.346  30.895  17.080  0.00  0.00     0.040 H 
ATOM     17  H7  A75 d   1      21.625  32.295  15.741  0.00  0.00     0.033 H 
ATOM     18  H8  A75 d   1      20.429  32.289  14.400  0.00  0.00     0.033 H 
ATOM     19  H9  A75 d   1      15.816  33.638  16.347  0.00  0.00     0.084 H 
ATOM     20  H10 A75 d   1      14.482  31.665  17.047  0.00  0.00     0.087 H 
ENDROOT
BRANCH   9  21
ATOM     21  N14 A75 d   1      15.310  29.188  17.444  0.00  0.00    -0.280 N 
ATOM     22  H11 A75 d   1      15.088  28.528  16.727  0.00  0.00     0.179 HD
BRANCH  21  23
ATOM     23  S15 A75 d   1      14.671  28.865  18.918  0.00  0.00     0.263 S 
ATOM     24  O17 A75 d   1      13.909  27.641  18.782  0.00  0.00    -0.200 OA
ATOM     25  O18 A75 d   1      13.974  30.060  19.363  0.00  0.00    -0.200 OA
BRANCH  23  26
ATOM     26  C16 A75 d   1      16.049  28.555  20.006  0.00  0.00     0.079 A 
ATOM     27  C19 A75 d   1      16.655  29.649  20.759  0.00  0.00    -0.060 A 
ATOM     28  C20 A75 d   1      17.776  29.380  21.645  0.00  0.00    -0.082 A 
ATOM     29  H12 A75 d   1      16.271  30.658  20.658  0.00  0.00     0.085 H 
ATOM     30  C21 A75 d   1      18.291  28.026  21.778  0.00  0.00    -0.083 A 
ATOM     31  H13 A75 d   1      18.228  30.189  22.207  0.00  0.00     0.083 H 
ATOM     32  C22 A75 d   1      17.683  26.937  21.025  0.00  0.00    -0.082 A 
ATOM     33  H14 A75 d   1      19.128  27.827  22.438  0.00  0.00     0.083 H 
ATOM     34  C23 A75 d   1      16.564  27.198  20.140  0.00  0.00    -0.060 A 
ATOM     35  H15 A75 d   1      18.068  25.929  21.127  0.00  0.00     0.083 H 
ATOM     36  H16 A75 d   1      16.112  26.387  19.580  0.00  0.00     0.085 H 
ENDBRANCH  23  26
ENDBRANCH  21  23
ENDBRANCH   9  21
BRANCH  10  37
ATOM     37  C11 A75 d   1      18.205  28.739  16.986  0.00  0.00     0.212 C 
ATOM     38  O12 A75 d   1      17.810  27.765  16.151  0.00  0.00    -0.644 OA
ATOM     39  O13 A75 d   1      19.009  28.540  17.861  0.00  0.00    -0.644 OA
ENDBRANCH  10  37
TORSDOF 4
