REMARK WARNING: 32 MAX_TORS EXCEEDED!!!
REMARK  64 active torsions:
REMARK  status: ('A' for Active; 'I' for Inactive)
REMARK    1  A    between atoms: N_1  and  CA_2 
REMARK    2  A    between atoms: CA_2  and  C_3 
REMARK    3  A    between atoms: CA_2  and  CB_5 
REMARK       I    between atoms: C_3  and  N_10 
REMARK    4  A    between atoms: CB_5  and  CG_6 
REMARK    5  A    between atoms: CG_6  and  CD_7 
REMARK    6  A    between atoms: CD_7  and  CE_8 
REMARK    7  A    between atoms: CE_8  and  NZ_9 
REMARK    8  A    between atoms: N_10  and  CA_11 
REMARK    9  A    between atoms: CA_11  and  C_12 
REMARK   10  A    between atoms: CA_11  and  CB_14 
REMARK       I    between atoms: C_12  and  N_16 
REMARK   11  A    between atoms: CB_14  and  OG_15 
REMARK   12  A    between atoms: N_16  and  CA_17 
REMARK   13  A    between atoms: CA_17  and  C_18 
REMARK   14  A    between atoms: CA_17  and  CB_20 
REMARK       I    between atoms: C_18  and  N_24 
REMARK   15  A    between atoms: CB_20  and  CG_21 
REMARK   16  A    between atoms: N_24  and  CA_25 
REMARK   17  A    between atoms: CA_25  and  C_26 
REMARK   18  A    between atoms: CA_25  and  CB_27 
REMARK       I    between atoms: C_26  and  N_35 
REMARK   19  A    between atoms: CB_27  and  CG_28 
REMARK   20  A    between atoms: N_35  and  CA_36 
REMARK   21  A    between atoms: CA_36  and  C_37 
REMARK   22  A    between atoms: CA_36  and  CB_39 
REMARK       I    between atoms: C_37  and  N_46 
REMARK   23  A    between atoms: CB_39  and  CG_40 
REMARK   24  A    between atoms: N_46  and  CA_47 
REMARK   25  A    between atoms: CA_47  and  C_48 
REMARK   26  A    between atoms: CA_47  and  CB_50 
REMARK       I    between atoms: C_48  and  N_52 
REMARK   27  A    between atoms: CB_50  and  OG_51 
REMARK   28  A    between atoms: N_52  and  CA_53 
REMARK   29  A    between atoms: CA_53  and  C_54 
REMARK   30  A    between atoms: CA_53  and  CB_56 
REMARK       I    between atoms: C_54  and  N_61 
REMARK   31  A    between atoms: CB_56  and  CG_57 
REMARK   32  A    between atoms: CG_57  and  CD_58 
REMARK   33  A    between atoms: CD_58  and  CE_59 
REMARK   34  A    between atoms: CE_59  and  NZ_60 
REMARK   35  A    between atoms: N_61  and  CA_62 
REMARK   36  A    between atoms: CA_62  and  C_63 
REMARK   37  A    between atoms: CA_62  and  CB_65 
REMARK       I    between atoms: C_63  and  N_73 
REMARK   38  A    between atoms: CB_65  and  CG_66 
REMARK   39  A    between atoms: CZ_71  and  OH_72 
REMARK   40  A    between atoms: N_73  and  CA_74 
REMARK   41  A    between atoms: CA_74  and  C_75 
REMARK   42  A    between atoms: CA_74  and  CB_77 
REMARK       I    between atoms: C_75  and  N_81 
REMARK   43  A    between atoms: CB_77  and  CG_78 
REMARK   44  A    between atoms: CG_78  and  CD1_79 
REMARK   45  A    between atoms: CG_78  and  CD2_80 
REMARK   46  A    between atoms: N_81  and  CA_82 
REMARK   47  A    between atoms: CA_82  and  C_83 
REMARK   48  A    between atoms: CA_82  and  CB_85 
REMARK       I    between atoms: C_83  and  N_95 
REMARK   49  A    between atoms: CB_85  and  CG_86 
REMARK   50  A    between atoms: N_95  and  CA_96 
REMARK   51  A    between atoms: CA_96  and  C_97 
REMARK   52  A    between atoms: CA_96  and  CB_99 
REMARK       I    between atoms: C_97  and  N_101 
REMARK   53  A    between atoms: CB_99  and  OG_100 
REMARK   54  A    between atoms: N_101  and  CA_102 
REMARK   55  A    between atoms: CA_102  and  C_103 
REMARK   56  A    between atoms: CA_102  and  CB_105 
REMARK       I    between atoms: C_103  and  N_107 
REMARK   57  A    between atoms: CB_105  and  OG_106 
REMARK   58  A    between atoms: N_107  and  CA_108 
REMARK   59  A    between atoms: CA_108  and  C_109 
REMARK   60  A    between atoms: CA_108  and  CB_111 
REMARK   61  A    between atoms: CB_111  and  CG_112 
REMARK   62  A    between atoms: CG_112  and  CD_113 
REMARK   63  A    between atoms: CD_113  and  CE_114 
REMARK   64  A    between atoms: CE_114  and  NZ_115 
ROOT
ATOM      1  CA  DLY d   1      19.067  12.963  50.782  0.00  0.00     0.089 C 
ATOM      2  H55 DLY d   1      19.381  12.249  50.007  0.00  0.00     0.087 H 
ENDROOT
BRANCH   1   3
ATOM      3  N   DLY d   1      18.791  14.242  50.113  0.00  0.00    -0.346 N 
ATOM      4  C   DSN d   1      18.634  15.408  50.748  0.00  0.00     0.243 C 
ATOM      5  O   DSN d   1      18.719  15.542  51.988  0.00  0.00    -0.271 OA
ATOM      6  H54 DLY d   1      18.716  14.240  49.116  0.00  0.00     0.163 HD
BRANCH   4   7
ATOM      7  CA  DSN d   1      18.348  16.595  49.851  0.00  0.00     0.109 C 
ATOM      8  H50 DSN d   1      17.385  16.397  49.358  0.00  0.00     0.090 H 
BRANCH   7   9
ATOM      9  N   DSN d   1      19.349  16.767  48.776  0.00  0.00    -0.344 N 
ATOM     10  C   PHE d   1      20.647  16.567  48.979  0.00  0.00     0.241 C 
ATOM     11  O   PHE d   1      21.095  16.248  50.080  0.00  0.00    -0.271 OA
ATOM     12  H49 DSN d   1      19.039  17.043  47.866  0.00  0.00     0.163 HD
BRANCH  10  13
ATOM     13  CA  PHE d   1      21.581  16.704  47.753  0.00  0.00     0.093 C 
ATOM     14  H41 PHE d   1      22.574  16.336  48.051  0.00  0.00     0.088 H 
BRANCH  13  15
ATOM     15  N   PHE d   1      21.112  15.876  46.653  0.00  0.00    -0.346 N 
ATOM     16  C   ALC d   1      21.062  14.551  46.748  0.00  0.00     0.241 C 
ATOM     17  OXT ALC d   1      21.489  13.939  47.724  0.00  0.00    -0.271 OA
ATOM     18  H40 PHE d   1      20.820  16.315  45.803  0.00  0.00     0.163 HD
BRANCH  16  19
ATOM     19  CA  ALC d   1      20.455  13.795  45.585  0.00  0.00     0.089 C 
ATOM     20  H26 ALC d   1      20.262  12.763  45.913  0.00  0.00     0.087 H 
BRANCH  19  21
ATOM     21  N   ALC d   1      19.216  14.388  45.108  0.00  0.00    -0.346 N 
ATOM     22  C   ASP d   1      18.148  14.513  45.877  0.00  0.00     0.241 C 
ATOM     23  O   ASP d   1      18.109  14.076  47.019  0.00  0.00    -0.271 OA
ATOM     24  H25 ALC d   1      19.170  14.713  44.163  0.00  0.00     0.163 HD
BRANCH  22  25
ATOM     25  CA  ASP d   1      16.934  15.213  45.237  0.00  0.00     0.098 C 
ATOM     26  H22 ASP d   1      17.070  15.162  44.147  0.00  0.00     0.088 H 
BRANCH  25  27
ATOM     27  N   ASP d   1      15.663  14.550  45.558  0.00  0.00    -0.345 N 
ATOM     28  C   SER d   1      15.536  13.233  45.725  0.00  0.00     0.243 C 
ATOM     29  O   SER d   1      16.490  12.445  45.675  0.00  0.00    -0.271 OA
ATOM     30  H21 ASP d   1      14.846  15.119  45.657  0.00  0.00     0.163 HD
BRANCH  28  31
ATOM     31  CA  SER d   1      14.117  12.722  45.961  0.00  0.00     0.109 C 
ATOM     32  H17 SER d   1      13.403  13.472  45.590  0.00  0.00     0.090 H 
BRANCH  31  33
ATOM     33  N   SER d   1      13.931  11.476  45.198  0.00  0.00    -0.344 N 
ATOM     34  C   LYS d   1      12.752  11.111  44.682  0.00  0.00     0.249 C 
ATOM     35  O   LYS d   1      11.691  11.700  44.935  0.00  0.00    -0.271 OA
ATOM     36  H16 SER d   1      14.720  10.877  45.060  0.00  0.00     0.163 HD
BRANCH  34  37
ATOM     37  CA  LYS d   1      12.745   9.900  43.727  0.00  0.00     0.176 C 
ATOM     38  H4  LYS d   1      11.710   9.530  43.687  0.00  0.00     0.099 H 
BRANCH  37  39
ATOM     39  N   LYS d   1      13.133  10.289  42.330  0.00  0.00    -0.067 N 
ATOM     40  H1  LYS d   1      13.117   9.474  41.737  0.00  0.00     0.275 HD
ATOM     41  H2  LYS d   1      14.061  10.682  42.336  0.00  0.00     0.275 HD
ATOM     42  H3  LYS d   1      12.481  10.973  41.978  0.00  0.00     0.275 HD
ENDBRANCH  37  39
BRANCH  37  43
ATOM     43  CB  LYS d   1      13.621   8.739  44.238  0.00  0.00    -0.030 C 
ATOM     44  H5  LYS d   1      13.494   8.664  45.328  0.00  0.00     0.036 H 
ATOM     45  H6  LYS d   1      14.671   8.970  44.006  0.00  0.00     0.036 H 
BRANCH  43  46
ATOM     46  CG  LYS d   1      13.276   7.369  43.614  0.00  0.00    -0.061 C 
ATOM     47  H7  LYS d   1      12.743   7.537  42.667  0.00  0.00     0.033 H 
ATOM     48  H8  LYS d   1      12.625   6.819  44.309  0.00  0.00     0.033 H 
BRANCH  46  49
ATOM     49  CD  LYS d   1      14.524   6.521  43.333  0.00  0.00    -0.043 C 
ATOM     50  H9  LYS d   1      14.924   6.147  44.287  0.00  0.00     0.035 H 
ATOM     51  H10 LYS d   1      15.280   7.151  42.841  0.00  0.00     0.035 H 
BRANCH  49  52
ATOM     52  CE  LYS d   1      14.208   5.334  42.432  0.00  0.00     0.080 C 
ATOM     53  H11 LYS d   1      15.131   5.027  41.919  0.00  0.00     0.075 H 
ATOM     54  H12 LYS d   1      13.461   5.647  41.688  0.00  0.00     0.075 H 
BRANCH  52  55
ATOM     55  NZ  LYS d   1      13.671   4.167  43.182  0.00  0.00    -0.079 N 
ATOM     56  H13 LYS d   1      13.480   3.414  42.540  0.00  0.00     0.274 HD
ATOM     57  H14 LYS d   1      12.819   4.432  43.651  0.00  0.00     0.274 HD
ATOM     58  H15 LYS d   1      14.350   3.864  43.863  0.00  0.00     0.274 HD
ENDBRANCH  52  55
ENDBRANCH  49  52
ENDBRANCH  46  49
ENDBRANCH  43  46
ENDBRANCH  37  43
ENDBRANCH  34  37
ENDBRANCH  31  33
BRANCH  31  59
ATOM     59  CB  SER d   1      13.856  12.508  47.459  0.00  0.00     0.044 C 
ATOM     60  H18 SER d   1      14.816  12.318  47.961  0.00  0.00     0.077 H 
ATOM     61  H19 SER d   1      13.198  11.635  47.582  0.00  0.00     0.077 H 
BRANCH  59  62
ATOM     62  OG  SER d   1      13.232  13.645  48.073  0.00  0.00    -0.398 OA
ATOM     63  H20 SER d   1      13.091  13.467  48.995  0.00  0.00     0.209 HD
ENDBRANCH  59  62
ENDBRANCH  31  59
ENDBRANCH  28  31
ENDBRANCH  25  27
BRANCH  25  64
ATOM     64  CB  ASP d   1      16.843  16.708  45.630  0.00  0.00     0.043 C 
ATOM     65  H23 ASP d   1      16.697  16.773  46.718  0.00  0.00     0.052 H 
ATOM     66  H24 ASP d   1      15.976  17.150  45.117  0.00  0.00     0.052 H 
BRANCH  64  67
ATOM     67  CG  ASP d   1      18.092  17.520  45.259  0.00  0.00     0.175 C 
ATOM     68  OD1 ASP d   1      18.653  17.323  44.157  0.00  0.00    -0.648 OA
ATOM     69  OD2 ASP d   1      18.579  18.401  46.002  0.00  0.00    -0.648 OA
ENDBRANCH  64  67
ENDBRANCH  25  64
ENDBRANCH  22  25
ENDBRANCH  19  21
BRANCH  19  70
ATOM     70  CB  ALC d   1      21.380  13.783  44.377  0.00  0.00    -0.035 C 
ATOM     71  H27 ALC d   1      21.945  14.727  44.394  0.00  0.00     0.037 H 
ATOM     72  H28 ALC d   1      20.741  13.754  43.482  0.00  0.00     0.037 H 
BRANCH  70  73
ATOM     73  CG  ALC d   1      22.393  12.660  44.237  0.00  0.00    -0.052 C 
ATOM     74  CD2 ALC d   1      23.549  13.263  43.448  0.00  0.00    -0.062 C 
ATOM     75  CE2 ALC d   1      24.585  12.199  43.092  0.00  0.00    -0.065 C 
ATOM     76  H30 ALC d   1      24.030  14.044  44.055  0.00  0.00     0.033 H 
ATOM     77  H31 ALC d   1      23.158  13.708  42.521  0.00  0.00     0.033 H 
ATOM     78  CZ  ALC d   1      25.144  11.486  44.326  0.00  0.00    -0.065 C 
ATOM     79  H32 ALC d   1      25.416  12.682  42.557  0.00  0.00     0.033 H 
ATOM     80  H33 ALC d   1      24.112  11.452  42.437  0.00  0.00     0.033 H 
ATOM     81  CE1 ALC d   1      24.042  11.056  45.291  0.00  0.00    -0.065 C 
ATOM     82  H34 ALC d   1      25.828  12.169  44.851  0.00  0.00     0.033 H 
ATOM     83  H35 ALC d   1      25.697  10.593  43.999  0.00  0.00     0.033 H 
ATOM     84  CD1 ALC d   1      22.999  12.149  45.539  0.00  0.00    -0.062 C 
ATOM     85  H36 ALC d   1      24.504  10.789  46.253  0.00  0.00     0.033 H 
ATOM     86  H37 ALC d   1      23.533  10.176  44.871  0.00  0.00     0.033 H 
ATOM     87  H38 ALC d   1      22.196  11.738  46.168  0.00  0.00     0.033 H 
ATOM     88  H39 ALC d   1      23.481  12.989  46.061  0.00  0.00     0.033 H 
ATOM     89  H29 ALC d   1      21.933  11.819  43.697  0.00  0.00     0.040 H 
ENDBRANCH  70  73
ENDBRANCH  19  70
ENDBRANCH  16  19
ENDBRANCH  13  15
BRANCH  13  90
ATOM     90  CB  PHE d   1      21.746  18.164  47.302  0.00  0.00    -0.014 C 
ATOM     91  H42 PHE d   1      20.745  18.585  47.124  0.00  0.00     0.043 H 
ATOM     92  H43 PHE d   1      22.320  18.172  46.364  0.00  0.00     0.043 H 
BRANCH  90  93
ATOM     93  CG  PHE d   1      22.459  19.044  48.300  0.00  0.00    -0.056 A 
ATOM     94  CD1 PHE d   1      23.830  19.254  48.209  0.00  0.00    -0.077 A 
ATOM     95  CE1 PHE d   1      24.509  20.075  49.151  0.00  0.00    -0.082 A 
ATOM     96  H44 PHE d   1      24.390  18.785  47.408  0.00  0.00     0.084 H 
ATOM     97  CZ  PHE d   1      23.795  20.691  50.180  0.00  0.00    -0.083 A 
ATOM     98  H46 PHE d   1      25.580  20.222  49.070  0.00  0.00     0.083 H 
ATOM     99  CE2 PHE d   1      22.419  20.491  50.273  0.00  0.00    -0.082 A 
ATOM    100  H48 PHE d   1      24.306  21.319  50.900  0.00  0.00     0.083 H 
ATOM    101  CD2 PHE d   1      21.758  19.672  49.334  0.00  0.00    -0.077 A 
ATOM    102  H47 PHE d   1      21.856  20.966  51.068  0.00  0.00     0.083 H 
ATOM    103  H45 PHE d   1      20.687  19.527  49.416  0.00  0.00     0.084 H 
ENDBRANCH  90  93
ENDBRANCH  13  90
ENDBRANCH  10  13
ENDBRANCH   7   9
BRANCH   7 104
ATOM    104  CB  DSN d   1      18.178  17.876  50.675  0.00  0.00     0.044 C 
ATOM    105  H51 DSN d   1      19.110  18.085  51.221  0.00  0.00     0.077 H 
ATOM    106  H52 DSN d   1      17.355  17.742  51.392  0.00  0.00     0.077 H 
BRANCH 104 107
ATOM    107  OG  DSN d   1      17.879  18.975  49.810  0.00  0.00    -0.398 OA
ATOM    108  H53 DSN d   1      17.074  18.796  49.339  0.00  0.00     0.209 HD
ENDBRANCH 104 107
ENDBRANCH   7 104
ENDBRANCH   4   7
ENDBRANCH   1   3
BRANCH   1 109
ATOM    109  C   DLY d   1      20.176  13.068  51.782  0.00  0.00     0.241 C 
ATOM    110  O   DLY d   1      20.014  12.679  52.935  0.00  0.00    -0.271 OA
ATOM    111  N   TYR d   1      21.306  13.620  51.351  0.00  0.00    -0.346 N 
ATOM    112  H67 TYR d   1      21.348  13.972  50.416  0.00  0.00     0.163 HD
BRANCH 111 113
ATOM    113  CA  TYR d   1      22.490  13.728  52.202  0.00  0.00     0.093 C 
ATOM    114  H68 TYR d   1      22.713  12.716  52.572  0.00  0.00     0.088 H 
BRANCH 113 115
ATOM    115  C   TYR d   1      22.266  14.606  53.428  0.00  0.00     0.241 C 
ATOM    116  O   TYR d   1      22.601  14.232  54.560  0.00  0.00    -0.271 OA
ATOM    117  N   LEU d   1      21.651  15.759  53.200  0.00  0.00    -0.346 N 
ATOM    118  H76 LEU d   1      21.401  15.999  52.262  0.00  0.00     0.163 HD
BRANCH 117 119
ATOM    119  CA  LEU d   1      21.332  16.680  54.270  0.00  0.00     0.089 C 
ATOM    120  H77 LEU d   1      22.270  16.971  54.766  0.00  0.00     0.087 H 
BRANCH 119 121
ATOM    121  C   LEU d   1      20.420  16.038  55.317  0.00  0.00     0.241 C 
ATOM    122  O   LEU d   1      20.461  16.418  56.489  0.00  0.00    -0.271 OA
ATOM    123  N   TRP d   1      19.608  15.064  54.898  0.00  0.00    -0.346 N 
ATOM    124  H87 TRP d   1      19.685  14.724  53.961  0.00  0.00     0.163 HD
BRANCH 123 125
ATOM    125  CA  TRP d   1      18.599  14.486  55.804  0.00  0.00     0.093 C 
ATOM    126  H88 TRP d   1      18.716  15.030  56.753  0.00  0.00     0.088 H 
BRANCH 125 127
ATOM    127  C   TRP d   1      18.753  13.015  56.162  0.00  0.00     0.241 C 
ATOM    128  O   TRP d   1      18.312  12.601  57.219  0.00  0.00    -0.271 OA
ATOM    129  N   SER d   1      19.395  12.233  55.301  0.00  0.00    -0.344 N 
ATOM    130  H97 SER d   1      19.782  12.631  54.469  0.00  0.00     0.163 HD
BRANCH 129 131
ATOM    131  CA  SER d   1      19.545  10.796  55.550  0.00  0.00     0.109 C 
ATOM    132  H98 SER d   1      18.997  10.569  56.476  0.00  0.00     0.090 H 
BRANCH 131 133
ATOM    133  C   SER d   1      20.999  10.347  55.764  0.00  0.00     0.243 C 
ATOM    134  O   SER d   1      21.272   9.479  56.607  0.00  0.00    -0.271 OA
ATOM    135  N   SER d   1      21.923  10.961  55.029  0.00  0.00    -0.344 N 
ATOM    136 2H10 SER d   1      21.676  11.780  54.511  0.00  0.00     0.163 HD
BRANCH 135 137
ATOM    137  CA  SER d   1      23.291  10.458  54.968  0.00  0.00     0.109 C 
ATOM    138 3H10 SER d   1      23.211   9.420  54.614  0.00  0.00     0.090 H 
BRANCH 137 139
ATOM    139  C   SER d   1      24.040  10.400  56.288  0.00  0.00     0.243 C 
ATOM    140  O   SER d   1      24.028  11.355  57.081  0.00  0.00    -0.271 OA
ATOM    141  N   LYS d   1      24.703   9.255  56.469  0.00  0.00    -0.345 N 
ATOM    142 7H10 LYS d   1      24.605   8.550  55.767  0.00  0.00     0.163 HD
BRANCH 141 143
ATOM    143  CA  LYS d   1      25.555   8.954  57.604  0.00  0.00     0.096 C 
ATOM    144 8H10 LYS d   1      25.516   9.792  58.316  0.00  0.00     0.089 H 
BRANCH 143 145
ATOM    145  C   LYS d   1      27.018   8.779  57.127  0.00  0.00     0.196 C 
ATOM    146  O   LYS d   1      27.870   8.153  57.766  0.00  0.00    -0.646 OA
ATOM    147  OXT LYS d   1      27.423   9.279  56.071  0.00  0.00    -0.646 OA
ENDBRANCH 143 145
BRANCH 143 148
ATOM    148  CB  LYS d   1      25.036   7.694  58.300  0.00  0.00    -0.037 C 
ATOM    149 9H10 LYS d   1      25.891   7.193  58.778  0.00  0.00     0.036 H 
ATOM    150 0H11 LYS d   1      24.607   7.034  57.532  0.00  0.00     0.036 H 
BRANCH 148 151
ATOM    151  CG  LYS d   1      23.971   7.930  59.368  0.00  0.00    -0.061 C 
ATOM    152 1H11 LYS d   1      23.185   7.167  59.270  0.00  0.00     0.033 H 
ATOM    153 2H11 LYS d   1      23.532   8.929  59.227  0.00  0.00     0.033 H 
BRANCH 151 154
ATOM    154  CD  LYS d   1      24.586   7.843  60.765  0.00  0.00    -0.043 C 
ATOM    155 3H11 LYS d   1      25.230   8.721  60.922  0.00  0.00     0.035 H 
ATOM    156 4H11 LYS d   1      25.193   6.928  60.827  0.00  0.00     0.035 H 
BRANCH 154 157
ATOM    157  CE  LYS d   1      23.525   7.806  61.873  0.00  0.00     0.080 C 
ATOM    158 5H11 LYS d   1      22.898   6.913  61.733  0.00  0.00     0.075 H 
ATOM    159 6H11 LYS d   1      22.901   8.708  61.796  0.00  0.00     0.075 H 
BRANCH 157 160
ATOM    160  NZ  LYS d   1      24.141   7.757  63.252  0.00  0.00    -0.079 N 
ATOM    161 7H11 LYS d   1      23.410   7.734  63.946  0.00  0.00     0.274 HD
ATOM    162 8H11 LYS d   1      24.713   8.575  63.394  0.00  0.00     0.274 HD
ATOM    163 9H11 LYS d   1      24.711   6.930  63.336  0.00  0.00     0.274 HD
ENDBRANCH 157 160
ENDBRANCH 154 157
ENDBRANCH 151 154
ENDBRANCH 148 151
ENDBRANCH 143 148
ENDBRANCH 141 143
ENDBRANCH 137 139
BRANCH 137 164
ATOM    164  CB  SER d   1      24.129  11.215  53.947  0.00  0.00     0.044 C 
ATOM    165 4H10 SER d   1      23.458  11.704  53.226  0.00  0.00     0.077 H 
ATOM    166 5H10 SER d   1      24.778  10.502  53.418  0.00  0.00     0.077 H 
BRANCH 164 167
ATOM    167  OG  SER d   1      24.936  12.200  54.566  0.00  0.00    -0.398 OA
ATOM    168 6H10 SER d   1      25.522  11.783  55.187  0.00  0.00     0.209 HD
ENDBRANCH 164 167
ENDBRANCH 137 164
ENDBRANCH 135 137
ENDBRANCH 131 133
BRANCH 131 169
ATOM    169  CB  SER d   1      18.904   9.990  54.416  0.00  0.00     0.044 C 
ATOM    170  H99 SER d   1      19.081   8.918  54.591  0.00  0.00     0.077 H 
ATOM    171 0H10 SER d   1      19.361  10.286  53.460  0.00  0.00     0.077 H 
BRANCH 169 172
ATOM    172  OG  SER d   1      17.508  10.226  54.356  0.00  0.00    -0.398 OA
ATOM    173 1H10 SER d   1      17.132   9.717  53.647  0.00  0.00     0.209 HD
ENDBRANCH 169 172
ENDBRANCH 131 169
ENDBRANCH 129 131
ENDBRANCH 125 127
BRANCH 125 174
ATOM    174  CB  TRP d   1      17.183  14.780  55.308  0.00  0.00    -0.012 C 
ATOM    175  H89 TRP d   1      16.461  14.284  55.973  0.00  0.00     0.044 H 
ATOM    176  H90 TRP d   1      17.073  14.385  54.287  0.00  0.00     0.044 H 
BRANCH 174 177
ATOM    177  CG  TRP d   1      16.900  16.253  55.294  0.00  0.00    -0.028 A 
ATOM    178  CD1 TRP d   1      16.962  17.083  54.217  0.00  0.00    -0.015 A 
ATOM    179  NE1 TRP d   1      16.662  18.369  54.596  0.00  0.00    -0.365 N 
ATOM    180  H91 TRP d   1      17.213  16.773  53.203  0.00  0.00     0.112 H 
ATOM    181  CE2 TRP d   1      16.407  18.395  55.942  0.00  0.00     0.042 A 
ATOM    182  H92 TRP d   1      16.633  19.185  53.968  0.00  0.00     0.165 HD
ATOM    183  CD2 TRP d   1      16.561  17.080  56.420  0.00  0.00    -0.002 A 
ATOM    184  CZ2 TRP d   1      16.059  19.468  56.777  0.00  0.00    -0.056 A 
ATOM    185  CE3 TRP d   1      16.353  16.838  57.784  0.00  0.00    -0.070 A 
ATOM    186  CZ3 TRP d   1      16.007  17.904  58.610  0.00  0.00    -0.082 A 
ATOM    187  H93 TRP d   1      16.460  15.838  58.189  0.00  0.00     0.084 H 
ATOM    188  CH2 TRP d   1      15.867  19.201  58.102  0.00  0.00    -0.081 A 
ATOM    189  H95 TRP d   1      15.843  17.726  59.667  0.00  0.00     0.083 H 
ATOM    190  H96 TRP d   1      15.601  20.009  58.774  0.00  0.00     0.083 H 
ATOM    191  H94 TRP d   1      15.947  20.472  56.384  0.00  0.00     0.086 H 
ENDBRANCH 174 177
ENDBRANCH 125 174
ENDBRANCH 123 125
ENDBRANCH 119 121
BRANCH 119 192
ATOM    192  CB  LEU d   1      20.681  17.936  53.687  0.00  0.00    -0.035 C 
ATOM    193  H78 LEU d   1      19.717  17.631  53.255  0.00  0.00     0.037 H 
ATOM    194  H79 LEU d   1      21.342  18.302  52.888  0.00  0.00     0.037 H 
BRANCH 192 195
ATOM    195  CG  LEU d   1      20.403  19.119  54.621  0.00  0.00    -0.059 C 
ATOM    196  H80 LEU d   1      19.775  18.775  55.456  0.00  0.00     0.038 H 
BRANCH 195 197
ATOM    197  CD1 LEU d   1      21.697  19.698  55.195  0.00  0.00    -0.073 C 
ATOM    198  H81 LEU d   1      21.458  20.542  55.858  0.00  0.00     0.028 H 
ATOM    199  H82 LEU d   1      22.339  20.048  54.373  0.00  0.00     0.028 H 
ATOM    200  H83 LEU d   1      22.225  18.920  55.767  0.00  0.00     0.028 H 
ENDBRANCH 195 197
BRANCH 195 201
ATOM    201  CD2 LEU d   1      19.663  20.157  53.848  0.00  0.00    -0.073 C 
ATOM    202  H84 LEU d   1      18.737  19.722  53.444  0.00  0.00     0.028 H 
ATOM    203  H85 LEU d   1      20.292  20.515  53.020  0.00  0.00     0.028 H 
ATOM    204  H86 LEU d   1      19.414  20.999  54.510  0.00  0.00     0.028 H 
ENDBRANCH 195 201
ENDBRANCH 192 195
ENDBRANCH 119 192
ENDBRANCH 117 119
ENDBRANCH 113 115
BRANCH 113 205
ATOM    205  CB  TYR d   1      23.704  14.193  51.392  0.00  0.00    -0.014 C 
ATOM    206  H69 TYR d   1      24.404  14.704  52.069  0.00  0.00     0.043 H 
ATOM    207  H70 TYR d   1      23.363  14.896  50.618  0.00  0.00     0.043 H 
BRANCH 205 208
ATOM    208  CG  TYR d   1      24.430  13.043  50.719  0.00  0.00    -0.056 A 
ATOM    209  CD1 TYR d   1      24.158  12.681  49.395  0.00  0.00    -0.074 A 
ATOM    210  CE1 TYR d   1      24.813  11.617  48.809  0.00  0.00    -0.051 A 
ATOM    211  H71 TYR d   1      23.426  13.241  48.825  0.00  0.00     0.084 H 
ATOM    212  CZ  TYR d   1      25.733  10.895  49.550  0.00  0.00     0.065 A 
ATOM    213  H73 TYR d   1      24.609  11.349  47.779  0.00  0.00     0.087 H 
ATOM    214  CE2 TYR d   1      26.001  11.236  50.849  0.00  0.00    -0.051 A 
ATOM    215  CD2 TYR d   1      25.358  12.293  51.423  0.00  0.00    -0.074 A 
ATOM    216  H74 TYR d   1      26.724  10.666  51.421  0.00  0.00     0.087 H 
ATOM    217  H72 TYR d   1      25.578  12.552  52.452  0.00  0.00     0.084 H 
BRANCH 212 218
ATOM    218  OH  TYR d   1      26.420   9.819  49.007  0.00  0.00    -0.361 OA
ATOM    219  H75 TYR d   1      26.233   9.037  49.513  0.00  0.00     0.217 HD
ENDBRANCH 212 218
ENDBRANCH 205 208
ENDBRANCH 113 205
ENDBRANCH 111 113
ENDBRANCH   1 109
BRANCH   1 220
ATOM    220  CB  DLY d   1      17.819  12.402  51.459  0.00  0.00    -0.038 C 
ATOM    221  H56 DLY d   1      17.365  13.195  52.071  0.00  0.00     0.036 H 
ATOM    222  H57 DLY d   1      18.117  11.564  52.107  0.00  0.00     0.036 H 
BRANCH 220 223
ATOM    223  CG  DLY d   1      16.774  11.898  50.457  0.00  0.00    -0.061 C 
ATOM    224  H58 DLY d   1      16.954  10.832  50.255  0.00  0.00     0.033 H 
ATOM    225  H59 DLY d   1      16.867  12.469  49.522  0.00  0.00     0.033 H 
BRANCH 223 226
ATOM    226  CD  DLY d   1      15.355  12.071  51.011  0.00  0.00    -0.043 C 
ATOM    227  H60 DLY d   1      14.655  12.184  50.170  0.00  0.00     0.035 H 
ATOM    228  H61 DLY d   1      15.324  12.974  51.638  0.00  0.00     0.035 H 
BRANCH 226 229
ATOM    229  CE  DLY d   1      14.929  10.865  51.854  0.00  0.00     0.080 C 
ATOM    230  H62 DLY d   1      15.758  10.143  51.893  0.00  0.00     0.075 H 
ATOM    231  H63 DLY d   1      14.052  10.392  51.388  0.00  0.00     0.075 H 
BRANCH 229 232
ATOM    232  NZ  DLY d   1      14.585  11.271  53.214  0.00  0.00    -0.079 N 
ATOM    233  H64 DLY d   1      14.309  10.461  53.747  0.00  0.00     0.274 HD
ATOM    234  H65 DLY d   1      13.823  11.930  53.185  0.00  0.00     0.274 HD
ATOM    235  H66 DLY d   1      15.386  11.702  53.649  0.00  0.00     0.274 HD
ENDBRANCH 229 232
ENDBRANCH 226 229
ENDBRANCH 223 226
ENDBRANCH 220 223
ENDBRANCH   1 220
TORSDOF 64
