REMARK  11 active torsions:
REMARK  status: ('A' for Active; 'I' for Inactive)
REMARK    1  A    between atoms: CA_2  and  C_3 
REMARK       I    between atoms: C_3  and  N_8 
REMARK    2  A    between atoms: CA_9  and  C_10 
REMARK       I    between atoms: C_10  and  N_15 
REMARK    3  A    between atoms: CA_16  and  C_17 
REMARK       I    between atoms: C_17  and  N_22 
REMARK    4  A    between atoms: N_22  and  CA_23 
REMARK    5  A    between atoms: CA_23  and  C_24 
REMARK    6  A    between atoms: CA_23  and  CB_26 
REMARK       I    between atoms: C_24  and  N_30 
REMARK    7  A    between atoms: CB_26  and  CG_27 
REMARK    8  A    between atoms: CG_27  and  CD1_28 
REMARK    9  A    between atoms: CG_27  and  CD2_29 
REMARK   10  A    between atoms: CA_31  and  C_32 
REMARK       I    between atoms: C_32  and  N_37 
REMARK   11  A    between atoms: CA_38  and  C_39 
ROOT
ATOM      1  C   PRO d   1       0.604   8.093   0.366  0.00  0.00     0.241 C 
ATOM      2  O   PRO d   1       0.064   7.016   0.619  0.00  0.00    -0.271 OA
ATOM      3  N   LEU d   1       1.865   8.361   0.681  0.00  0.00    -0.346 N 
ATOM      4  H24 LEU d   1       2.250   9.254   0.446  0.00  0.00     0.163 HD
ENDROOT
BRANCH   3   5
ATOM      5  CA  LEU d   1       2.700   7.381   1.362  0.00  0.00     0.090 C 
ATOM      6  H25 LEU d   1       2.513   6.386   0.931  0.00  0.00     0.087 H 
BRANCH   5   7
ATOM      7  C   LEU d   1       2.376   7.339   2.860  0.00  0.00     0.243 C 
ATOM      8  O   LEU d   1       2.041   8.365   3.454  0.00  0.00    -0.271 OA
ATOM      9  N   PRO d   1       2.472   6.151   3.494  0.00  0.00    -0.337 N 
ATOM     10  CA  PRO d   1       2.218   5.987   4.923  0.00  0.00     0.092 C 
ATOM     11  CD  PRO d   1       2.810   4.866   2.876  0.00  0.00    -0.001 C 
ATOM     12  CB  PRO d   1       1.964   4.482   5.095  0.00  0.00    -0.036 C 
ATOM     13  H35 PRO d   1       1.333   6.566   5.224  0.00  0.00     0.087 H 
ATOM     14  CG  PRO d   1       2.066   3.880   3.727  0.00  0.00    -0.048 C 
ATOM     15  H36 PRO d   1       0.961   4.310   5.513  0.00  0.00     0.036 H 
ATOM     16  H37 PRO d   1       2.720   4.042   5.762  0.00  0.00     0.036 H 
ATOM     17  H38 PRO d   1       1.062   3.705   3.314  0.00  0.00     0.035 H 
ATOM     18  H39 PRO d   1       2.615   2.928   3.772  0.00  0.00     0.035 H 
ATOM     19  H40 PRO d   1       3.894   4.682   2.913  0.00  0.00     0.064 H 
ATOM     20  H41 PRO d   1       2.466   4.826   1.832  0.00  0.00     0.064 H 
BRANCH  10  21
ATOM     21  C   PRO d   1       3.415   6.427   5.763  0.00  0.00     0.243 C 
ATOM     22  O   PRO d   1       4.556   6.326   5.315  0.00  0.00    -0.271 OA
ATOM     23  N   PRO d   1       3.179   6.928   6.988  0.00  0.00    -0.336 N 
ATOM     24  CA  PRO d   1       4.261   7.364   7.874  0.00  0.00     0.098 C 
ATOM     25  CD  PRO d   1       1.861   7.124   7.607  0.00  0.00    -0.001 C 
ATOM     26  CB  PRO d   1       3.534   8.035   9.052  0.00  0.00    -0.035 C 
ATOM     27  H42 PRO d   1       4.912   8.085   7.357  0.00  0.00     0.089 H 
ATOM     28  CG  PRO d   1       2.123   8.217   8.599  0.00  0.00    -0.048 C 
ATOM     29  H43 PRO d   1       3.992   9.008   9.282  0.00  0.00     0.036 H 
ATOM     30  H44 PRO d   1       3.571   7.392   9.944  0.00  0.00     0.036 H 
ATOM     31  H45 PRO d   1       1.998   9.201   8.124  0.00  0.00     0.035 H 
ATOM     32  H46 PRO d   1       1.434   8.131   9.452  0.00  0.00     0.035 H 
ATOM     33  H47 PRO d   1       1.518   6.207   8.108  0.00  0.00     0.064 H 
ATOM     34  H48 PRO d   1       1.115   7.436   6.861  0.00  0.00     0.064 H 
BRANCH  24  35
ATOM     35  C   PRO d   1       5.105   6.191   8.367  0.00  0.00     0.196 C 
ATOM     36  O   PRO d   1       6.088   5.844   7.678  0.00  0.00    -0.646 OA
ATOM     37  OXT PRO d   1       4.776   5.629   9.432  0.00  0.00    -0.646 OA
ENDBRANCH  24  35
ENDBRANCH  10  21
ENDBRANCH   5   7
BRANCH   5  38
ATOM     38  CB  LEU d   1       4.171   7.755   1.145  0.00  0.00    -0.035 C 
ATOM     39  H26 LEU d   1       4.291   8.814   1.416  0.00  0.00     0.037 H 
ATOM     40  H27 LEU d   1       4.397   7.622   0.077  0.00  0.00     0.037 H 
BRANCH  38  41
ATOM     41  CG  LEU d   1       5.196   6.952   1.940  0.00  0.00    -0.059 C 
ATOM     42  H28 LEU d   1       4.754   6.681   2.910  0.00  0.00     0.038 H 
BRANCH  41  43
ATOM     43  CD1 LEU d   1       5.546   5.681   1.198  0.00  0.00    -0.073 C 
ATOM     44  H29 LEU d   1       6.285   5.109   1.778  0.00  0.00     0.028 H 
ATOM     45  H30 LEU d   1       5.969   5.935   0.215  0.00  0.00     0.028 H 
ATOM     46  H31 LEU d   1       4.639   5.074   1.061  0.00  0.00     0.028 H 
ENDBRANCH  41  43
BRANCH  41  47
ATOM     47  CD2 LEU d   1       6.442   7.787   2.193  0.00  0.00    -0.073 C 
ATOM     48  H32 LEU d   1       6.165   8.705   2.733  0.00  0.00     0.028 H 
ATOM     49  H33 LEU d   1       6.907   8.053   1.232  0.00  0.00     0.028 H 
ATOM     50  H34 LEU d   1       7.155   7.207   2.797  0.00  0.00     0.028 H 
ENDBRANCH  41  47
ENDBRANCH  38  41
ENDBRANCH   5  38
ENDBRANCH   3   5
BRANCH   1  51
ATOM     51  CA  PRO d   1      -0.163   9.200  -0.344  0.00  0.00     0.091 C 
ATOM     52  N   PRO d   1      -1.164   8.666  -1.263  0.00  0.00    -0.337 N 
ATOM     53  C   PRO d   1      -0.852   8.175  -2.480  0.00  0.00     0.243 C 
ATOM     54  CD  PRO d   1      -2.507   8.729  -0.676  0.00  0.00    -0.001 C 
ATOM     55  O   PRO d   1       0.311   8.134  -2.887  0.00  0.00    -0.271 OA
ATOM     56  CG  PRO d   1      -2.410   9.924   0.227  0.00  0.00    -0.048 C 
ATOM     57  H22 PRO d   1      -2.735   7.817  -0.105  0.00  0.00     0.064 H 
ATOM     58  H23 PRO d   1      -3.273   8.877  -1.451  0.00  0.00     0.064 H 
ATOM     59  CB  PRO d   1      -0.982  10.013   0.673  0.00  0.00    -0.036 C 
ATOM     60  H20 PRO d   1      -2.694  10.836  -0.319  0.00  0.00     0.035 H 
ATOM     61  H21 PRO d   1      -3.071   9.796   1.097  0.00  0.00     0.035 H 
ATOM     62  H18 PRO d   1      -0.649  11.061   0.679  0.00  0.00     0.036 H 
ATOM     63  H19 PRO d   1      -0.870   9.586   1.681  0.00  0.00     0.036 H 
ATOM     64  H17 PRO d   1       0.546   9.847  -0.881  0.00  0.00     0.087 H 
BRANCH  53  65
ATOM     65  CA  PRO d   1      -1.995   7.649  -3.346  0.00  0.00     0.092 C 
ATOM     66  N   PRO d   1      -1.747   7.822  -4.780  0.00  0.00    -0.337 N 
ATOM     67  C   PRO d   1      -1.907   9.006  -5.406  0.00  0.00     0.251 C 
ATOM     68  CD  PRO d   1      -1.316   6.560  -5.417  0.00  0.00    -0.001 C 
ATOM     69  O   PRO d   1      -2.261  10.018  -4.802  0.00  0.00    -0.271 OA
ATOM     70  CG  PRO d   1      -1.228   5.592  -4.267  0.00  0.00    -0.048 C 
ATOM     71  H15 PRO d   1      -0.337   6.681  -5.904  0.00  0.00     0.064 H 
ATOM     72  H16 PRO d   1      -2.055   6.222  -6.158  0.00  0.00     0.064 H 
ATOM     73  CB  PRO d   1      -2.114   6.137  -3.203  0.00  0.00    -0.036 C 
ATOM     74  H13 PRO d   1      -1.574   4.596  -4.579  0.00  0.00     0.035 H 
ATOM     75  H14 PRO d   1      -0.192   5.524  -3.904  0.00  0.00     0.035 H 
ATOM     76  H11 PRO d   1      -3.153   5.812  -3.358  0.00  0.00     0.036 H 
ATOM     77  H12 PRO d   1      -1.773   5.812  -2.209  0.00  0.00     0.036 H 
ATOM     78  H10 PRO d   1      -2.929   8.149  -3.052  0.00  0.00     0.087 H 
BRANCH  67  79
ATOM     79  CA  PRO d   1      -1.627   9.057  -6.907  0.00  0.00     0.178 C 
ATOM     80  N   PRO d   1      -2.466  10.045  -7.585  0.00  0.00    -0.062 N 
ATOM     81  CD  PRO d   1      -1.705  11.254  -7.915  0.00  0.00     0.083 C 
ATOM     82  H1  PRO d   1      -3.233  10.295  -6.980  0.00  0.00     0.278 HD
ATOM     83  H2  PRO d   1      -2.826   9.642  -8.436  0.00  0.00     0.278 HD
ATOM     84  CG  PRO d   1      -0.313  10.720  -8.088  0.00  0.00    -0.040 C 
ATOM     85  H8  PRO d   1      -1.751  11.989  -7.098  0.00  0.00     0.075 H 
ATOM     86  H9  PRO d   1      -2.073  11.715  -8.844  0.00  0.00     0.075 H 
ATOM     87  CB  PRO d   1      -0.192   9.549  -7.161  0.00  0.00    -0.028 C 
ATOM     88  H6  PRO d   1      -0.155  10.400  -9.128  0.00  0.00     0.035 H 
ATOM     89  H7  PRO d   1       0.426  11.491  -7.825  0.00  0.00     0.035 H 
ATOM     90  H4  PRO d   1       0.408   8.753  -7.627  0.00  0.00     0.036 H 
ATOM     91  H5  PRO d   1       0.279   9.857  -6.216  0.00  0.00     0.036 H 
ATOM     92  H3  PRO d   1      -1.781   8.058  -7.340  0.00  0.00     0.099 H 
ENDBRANCH  67  79
ENDBRANCH  53  65
ENDBRANCH   1  51
TORSDOF 11
