REMARK  8 active torsions:
REMARK  status: ('A' for Active; 'I' for Inactive)
REMARK    1  A    between atoms: C7_7  and  C3_3 
REMARK    2  A    between atoms: N10_9  and  C11_10 
REMARK    3  A    between atoms: N17_16  and  C12_11 
REMARK    4  A    between atoms: C14_13  and  C13_12 
REMARK    5  A    between atoms: N25_24  and  C27_26 
REMARK    6  A    between atoms: C29_28  and  N25_24 
REMARK    7  A    between atoms: C30_29  and  C29_28 
REMARK    8  A    between atoms: C29_28  and  C31_30 
ROOT
ATOM      1  C7  LI9 d   1       3.381  -1.479  19.543  0.00  0.00     0.074 A 
ATOM      2  N10 LI9 d   1       2.175  -2.989  20.849  0.00  0.00    -0.250 N 
ATOM      3  C13 LI9 d   1       2.908  -0.868  20.651  0.00  0.00     0.096 A 
ATOM      4  O15 LI9 d   1       3.097  -3.803  18.877  0.00  0.00    -0.266 OA
ATOM      5  C16 LI9 d   1       2.895  -2.902  19.667  0.00  0.00     0.276 A 
ATOM      6  N17 LI9 d   1       2.178  -1.731  21.466  0.00  0.00    -0.288 N 
ENDROOT
BRANCH   3   7
ATOM      7  C14 LI9 d   1       3.075   0.531  21.058  0.00  0.00     0.106 A 
ATOM      8  N23 LI9 d   1       3.228   0.820  22.359  0.00  0.00    -0.061 NA
ATOM      9  C27 LI9 d   1       3.378   2.105  22.689  0.00  0.00     0.723 A 
ATOM     10  N28 LI9 d   1       3.384   3.114  21.813  0.00  0.00    -0.075 NA
ATOM     11  C24 LI9 d   1       3.229   2.809  20.514  0.00  0.00     0.023 A 
ATOM     12  C26 LI9 d   1       3.069   1.514  20.085  0.00  0.00    -0.035 A 
ATOM     13  H19 LI9 d   1       3.230   3.609  19.782  0.00  0.00     0.115 H 
ATOM     14  H21 LI9 d   1       2.944   1.274  19.035  0.00  0.00     0.089 H 
BRANCH   9  15
ATOM     15  N25 LI9 d   1       3.537   2.465  23.989  0.00  0.00    -0.214 N 
ATOM     16  H20 LI9 d   1       3.738   3.455  24.191  0.00  0.00     0.178 HD
BRANCH  15  17
ATOM     17  C29 LI9 d   1       3.445   1.565  25.099  0.00  0.00     0.048 C 
ATOM     18  H22 LI9 d   1       4.192   0.774  24.934  0.00  0.00     0.080 H 
BRANCH  17  19
ATOM     19  C30 LI9 d   1       2.105   0.886  25.292  0.00  0.00    -0.035 A 
ATOM     20  C33 LI9 d   1       2.063  -0.309  26.029  0.00  0.00    -0.075 A 
ATOM     21  C36 LI9 d   1       0.846  -0.952  26.222  0.00  0.00    -0.082 A 
ATOM     22  H27 LI9 d   1       2.973  -0.727  26.444  0.00  0.00     0.084 H 
ATOM     23  C32 LI9 d   1      -0.327  -0.429  25.695  0.00  0.00    -0.083 A 
ATOM     24  H30 LI9 d   1       0.812  -1.874  26.791  0.00  0.00     0.083 H 
ATOM     25  C35 LI9 d   1      -0.299   0.750  24.965  0.00  0.00    -0.082 A 
ATOM     26  H26 LI9 d   1      -1.268  -0.944  25.855  0.00  0.00     0.083 H 
ATOM     27  C34 LI9 d   1       0.918   1.403  24.767  0.00  0.00    -0.075 A 
ATOM     28  H29 LI9 d   1      -1.214   1.160  24.552  0.00  0.00     0.083 H 
ATOM     29  H28 LI9 d   1       0.943   2.325  24.198  0.00  0.00     0.084 H 
ENDBRANCH  17  19
BRANCH  17  30
ATOM     30  C31 LI9 d   1       3.796   2.306  26.405  0.00  0.00    -0.053 C 
ATOM     31  H23 LI9 d   1       3.723   1.609  27.253  0.00  0.00     0.030 H 
ATOM     32  H24 LI9 d   1       3.094   3.139  26.554  0.00  0.00     0.030 H 
ATOM     33  H25 LI9 d   1       4.822   2.698  26.340  0.00  0.00     0.030 H 
ENDBRANCH  17  30
ENDBRANCH  15  17
ENDBRANCH   9  15
ENDBRANCH   3   7
BRANCH   1  34
ATOM     34  C3  LI9 d   1       4.182  -1.073  18.382  0.00  0.00    -0.018 A 
ATOM     35  C1  LI9 d   1       5.449  -0.508  18.624  0.00  0.00    -0.069 A 
ATOM     36  C4  LI9 d   1       6.285  -0.091  17.586  0.00  0.00    -0.045 A 
ATOM     37  H1  LI9 d   1       5.786  -0.393  19.648  0.00  0.00     0.085 H 
ATOM     38  C5  LI9 d   1       5.810  -0.257  16.289  0.00  0.00     0.116 A 
ATOM     39  H3  LI9 d   1       7.259   0.342  17.782  0.00  0.00     0.088 H 
ATOM     40  C2  LI9 d   1       4.565  -0.810  16.006  0.00  0.00    -0.045 A 
ATOM     41  F9  LI9 d   1       6.599   0.137  15.295  0.00  0.00    -0.206 F 
ATOM     42  C6  LI9 d   1       3.737  -1.224  17.060  0.00  0.00    -0.069 A 
ATOM     43  H2  LI9 d   1       4.237  -0.920  14.979  0.00  0.00     0.088 H 
ATOM     44  H4  LI9 d   1       2.764  -1.656  16.855  0.00  0.00     0.085 H 
ENDBRANCH   1  34
BRANCH   6  45
ATOM     45  C12 LI9 d   1       1.576  -1.634  22.778  0.00  0.00     0.001 C 
ATOM     46  H6  LI9 d   1       1.649  -0.598  23.139  0.00  0.00     0.059 H 
ATOM     47  H7  LI9 d   1       2.104  -2.303  23.474  0.00  0.00     0.059 H 
ATOM     48  H8  LI9 d   1       0.518  -1.928  22.718  0.00  0.00     0.059 H 
ENDBRANCH   6  45
BRANCH   2  49
ATOM     49  C11 LI9 d   1       1.480  -4.159  21.375  0.00  0.00     0.039 C 
ATOM     50  C20 LI9 d   1       2.315  -5.420  21.132  0.00  0.00    -0.022 C 
ATOM     51  C19 LI9 d   1       1.536  -6.678  21.496  0.00  0.00     0.084 C 
ATOM     52  H13 LI9 d   1       3.225  -5.371  21.748  0.00  0.00     0.038 H 
ATOM     53  H14 LI9 d   1       2.594  -5.466  20.069  0.00  0.00     0.038 H 
ATOM     54  N22 LI9 d   1       0.242  -6.707  20.816  0.00  0.00    -0.075 N 
ATOM     55  H11 LI9 d   1       1.372  -6.697  22.584  0.00  0.00     0.075 H 
ATOM     56  H12 LI9 d   1       2.119  -7.561  21.197  0.00  0.00     0.075 H 
ATOM     57  C18 LI9 d   1      -0.590  -5.572  21.213  0.00  0.00     0.084 C 
ATOM     58  H17 LI9 d   1       0.393  -6.671  19.820  0.00  0.00     0.277 HD
ATOM     59  H18 LI9 d   1      -0.235  -7.563  21.053  0.00  0.00     0.277 HD
ATOM     60  C21 LI9 d   1       0.081  -4.277  20.760  0.00  0.00    -0.022 C 
ATOM     61  H9  LI9 d   1      -1.580  -5.658  20.741  0.00  0.00     0.075 H 
ATOM     62  H10 LI9 d   1      -0.705  -5.564  22.307  0.00  0.00     0.075 H 
ATOM     63  H15 LI9 d   1       0.166  -4.277  19.663  0.00  0.00     0.038 H 
ATOM     64  H16 LI9 d   1      -0.530  -3.420  21.081  0.00  0.00     0.038 H 
ATOM     65  H5  LI9 d   1       1.363  -4.032  22.461  0.00  0.00     0.076 H 
ENDBRANCH   2  49
TORSDOF 8
