REMARK  7 active torsions:
REMARK  status: ('A' for Active; 'I' for Inactive)
REMARK    1  A    between atoms: N_1  and  CA_2 
REMARK    2  A    between atoms: CA_2  and  C_3 
REMARK    3  A    between atoms: CA_2  and  CB_5 
REMARK    4  A    between atoms: CB_5  and  CG_6 
REMARK    5  A    between atoms: CG_6  and  CD_7 
REMARK    6  A    between atoms: CD_7  and  CE_8 
REMARK    7  A    between atoms: CE_8  and  NZ_9 
ROOT
ATOM      1  CG  LYS d   1     -42.894  22.077   5.915  0.00  0.00    -0.061 C 
ATOM      2  H7  LYS d   1     -42.140  21.802   6.667  0.00  0.00     0.033 H 
ATOM      3  H8  LYS d   1     -42.391  22.444   5.009  0.00  0.00     0.033 H 
ENDROOT
BRANCH   1   4
ATOM      4  CB  LYS d   1     -43.803  23.179   6.479  0.00  0.00    -0.029 C 
ATOM      5  H5  LYS d   1     -44.650  23.307   5.788  0.00  0.00     0.036 H 
ATOM      6  H6  LYS d   1     -44.176  22.843   7.458  0.00  0.00     0.036 H 
BRANCH   4   7
ATOM      7  CA  LYS d   1     -43.138  24.549   6.671  0.00  0.00     0.182 C 
ATOM      8  H4  LYS d   1     -43.857  25.215   7.171  0.00  0.00     0.101 H 
BRANCH   7   9
ATOM      9  N   LYS d   1     -42.747  25.182   5.370  0.00  0.00    -0.065 N 
ATOM     10  H1  LYS d   1     -43.563  25.285   4.788  0.00  0.00     0.275 HD
ATOM     11  H2  LYS d   1     -42.072  24.598   4.902  0.00  0.00     0.275 HD
ATOM     12  H3  LYS d   1     -42.343  26.088   5.545  0.00  0.00     0.275 HD
ENDBRANCH   7   9
BRANCH   7  13
ATOM     13  C   LYS d   1     -41.940  24.384   7.556  0.00  0.00     0.204 C 
ATOM     14  O   LYS d   1     -40.796  24.566   7.124  0.00  0.00    -0.646 OA
ATOM     15  OXT LYS d   1     -42.074  24.059   8.739  0.00  0.00    -0.646 OA
ENDBRANCH   7  13
ENDBRANCH   4   7
ENDBRANCH   1   4
BRANCH   1  16
ATOM     16  CD  LYS d   1     -43.742  20.848   5.567  0.00  0.00    -0.043 C 
ATOM     17  H9  LYS d   1     -44.180  21.014   4.572  0.00  0.00     0.035 H 
ATOM     18  H10 LYS d   1     -44.546  20.773   6.314  0.00  0.00     0.035 H 
BRANCH  16  19
ATOM     19  CE  LYS d   1     -43.016  19.523   5.536  0.00  0.00     0.080 C 
ATOM     20  H11 LYS d   1     -43.697  18.755   5.140  0.00  0.00     0.075 H 
ATOM     21  H12 LYS d   1     -42.721  19.257   6.562  0.00  0.00     0.075 H 
BRANCH  19  22
ATOM     22  NZ  LYS d   1     -41.827  19.567   4.704  0.00  0.00    -0.079 N 
ATOM     23  H13 LYS d   1     -41.377  18.665   4.713  0.00  0.00     0.274 HD
ATOM     24  H14 LYS d   1     -41.192  20.263   5.062  0.00  0.00     0.274 HD
ATOM     25  H15 LYS d   1     -42.087  19.803   3.759  0.00  0.00     0.274 HD
ENDBRANCH  19  22
ENDBRANCH  16  19
ENDBRANCH   1  16
TORSDOF 7
