REMARK  3 active torsions:
REMARK  status: ('A' for Active; 'I' for Inactive)
REMARK    1  A    between atoms: C1_1  and  O28_19 
REMARK    2  A    between atoms: C11_9  and  C16_11 
REMARK    3  A    between atoms: C19_14  and  O26_17 
ROOT
ATOM      1  C1  4NA d   1      33.423  36.257  36.576  0.00  0.00     0.088 A 
ATOM      2  C2  4NA d   1      32.168  36.897  36.285  0.00  0.00     0.078 A 
ATOM      3  C3  4NA d   1      31.018  36.698  37.169  0.00  0.00    -0.001 A 
ATOM      4  C4  4NA d   1      31.196  35.851  38.385  0.00  0.00    -0.023 A 
ATOM      5  C5  4NA d   1      32.455  35.239  38.628  0.00  0.00    -0.070 A 
ATOM      6  C6  4NA d   1      33.555  35.446  37.744  0.00  0.00    -0.048 A 
ATOM      7  C9  4NA d   1      29.732  37.310  36.946  0.00  0.00    -0.070 A 
ATOM      8  C10 4NA d   1      28.655  37.078  37.861  0.00  0.00    -0.071 A 
ATOM      9  C11 4NA d   1      28.804  36.248  39.045  0.00  0.00    -0.025 A 
ATOM     10  C12 4NA d   1      30.097  35.632  39.283  0.00  0.00    -0.061 A 
ATOM     11 CL27 4NA d   1      32.110  37.866  34.833  0.00  0.00    -0.080 Cl
ATOM     12  H1  4NA d   1      32.581  34.605  39.498  0.00  0.00     0.085 H 
ATOM     13  H2  4NA d   1      34.509  34.979  37.963  0.00  0.00     0.087 H 
ATOM     14  H3  4NA d   1      29.580  37.948  36.083  0.00  0.00     0.085 H 
ATOM     15  H4  4NA d   1      27.694  37.538  37.663  0.00  0.00     0.084 H 
ATOM     16  H5  4NA d   1      30.235  34.998  40.151  0.00  0.00     0.086 H 
ENDROOT
BRANCH   9  17
ATOM     17  C16 4NA d   1      27.625  36.047  39.998  0.00  0.00    -0.026 A 
ATOM     18  C17 4NA d   1      26.266  36.139  39.517  0.00  0.00    -0.070 A 
ATOM     19  C18 4NA d   1      25.160  35.967  40.402  0.00  0.00    -0.050 A 
ATOM     20  H6  4NA d   1      26.084  36.342  38.468  0.00  0.00     0.085 H 
ATOM     21  C19 4NA d   1      25.394  35.701  41.785  0.00  0.00     0.065 A 
ATOM     22  H7  4NA d   1      24.146  36.038  40.026  0.00  0.00     0.087 H 
ATOM     23  C20 4NA d   1      26.726  35.604  42.298  0.00  0.00    -0.050 A 
ATOM     24  C21 4NA d   1      27.834  35.777  41.408  0.00  0.00    -0.070 A 
ATOM     25  H8  4NA d   1      26.895  35.402  43.349  0.00  0.00     0.087 H 
ATOM     26  H9  4NA d   1      28.845  35.705  41.794  0.00  0.00     0.085 H 
BRANCH  21  27
ATOM     27  O26 4NA d   1      24.308  35.537  42.631  0.00  0.00    -0.361 OA
ATOM     28  H10 4NA d   1      24.340  34.672  43.022  0.00  0.00     0.217 HD
ENDBRANCH  21  27
ENDBRANCH   9  17
BRANCH   1  29
ATOM     29  O28 4NA d   1      34.547  36.402  35.772  0.00  0.00    -0.359 OA
ATOM     30  H11 4NA d   1      34.336  36.959  35.032  0.00  0.00     0.217 HD
ENDBRANCH   1  29
TORSDOF 3
