REMARK  25 active torsions:
REMARK  status: ('A' for Active; 'I' for Inactive)
REMARK    1  A    between atoms: CA_2  and  N_1 
REMARK    2  A    between atoms: CA_2  and  CB_5 
REMARK    3  A    between atoms: C_3  and  CA_2 
REMARK       I    between atoms: N_9  and  C_3 
REMARK    4  A    between atoms: CB_5  and  CG_6 
REMARK    5  A    between atoms: C_11  and  CA_10 
REMARK       I    between atoms: N_16  and  C_11 
REMARK    6  A    between atoms: CA_17  and  N_16 
REMARK    7  A    between atoms: C_18  and  CA_17 
REMARK       I    between atoms: N_20  and  C_18 
REMARK    8  A    between atoms: CA_21  and  N_20 
REMARK    9  A    between atoms: CA_21  and  CB_24 
REMARK   10  A    between atoms: C_22  and  CA_21 
REMARK       I    between atoms: N_29  and  C_22 
REMARK   11  A    between atoms: CB_24  and  CG_25 
REMARK   12  A    between atoms: CG_25  and  CD_26 
REMARK   13  A    between atoms: CA_30  and  N_29 
REMARK   14  A    between atoms: C_31  and  CA_30 
REMARK       I    between atoms: N_33  and  C_31 
REMARK   15  A    between atoms: C_35  and  CA_34 
REMARK       I    between atoms: N_40  and  C_35 
REMARK   16  A    between atoms: CA_41  and  N_40 
REMARK   17  A    between atoms: CA_41  and  CB_44 
REMARK   18  A    between atoms: C_42  and  CA_41 
REMARK       I    between atoms: C_42  and  N_46 
REMARK   19  A    between atoms: CB_44  and  OG_45 
REMARK   20  A    between atoms: N_46  and  CA_47 
REMARK   21  A    between atoms: CA_47  and  CB_50 
REMARK   22  A    between atoms: CA_47  and  C_48 
REMARK   23  A    between atoms: C_48  and  O1_53 
REMARK   24  A    between atoms: CB_50  and  CG2_52 
REMARK   25  A    between atoms: CB_50  and  OG1_51 
ROOT
ATOM      1  N   GLY d   1      34.257 -14.203  -8.066  0.00  0.00    -0.351 N 
ATOM      2  H23 GLY d   1      33.608 -13.954  -8.785  0.00  0.00     0.163 HD
ATOM      3  C   GLU d   1      34.016 -15.264  -7.302  0.00  0.00     0.240 C 
ATOM      4  O   GLU d   1      34.766 -15.619  -6.396  0.00  0.00    -0.271 OA
ENDROOT
BRANCH   3   5
ATOM      5  CA  GLU d   1      32.735 -16.035  -7.600  0.00  0.00     0.090 C 
ATOM      6  H18 GLU d   1      32.402 -15.783  -8.618  0.00  0.00     0.087 H 
BRANCH   5   7
ATOM      7  N   GLU d   1      32.956 -17.479  -7.534  0.00  0.00    -0.346 N 
ATOM      8  C   GLY d   1      33.708 -18.104  -8.436  0.00  0.00     0.236 C 
ATOM      9  O   GLY d   1      34.272 -17.508  -9.360  0.00  0.00    -0.272 OA
ATOM     10  H17 GLU d   1      32.534 -18.007  -6.797  0.00  0.00     0.163 HD
BRANCH   8  11
ATOM     11  CA  GLY d   1      33.864 -19.610  -8.275  0.00  0.00     0.069 C 
ATOM     12  H15 GLY d   1      34.394 -19.996  -9.158  0.00  0.00     0.078 H 
ATOM     13  H16 GLY d   1      34.467 -19.797  -7.374  0.00  0.00     0.078 H 
BRANCH  11  14
ATOM     14  N   GLY d   1      32.614 -20.340  -8.143  0.00  0.00    -0.351 N 
ATOM     15  C   PRO d   1      31.708 -20.314  -9.115  0.00  0.00     0.241 C 
ATOM     16  O   PRO d   1      31.871 -19.680 -10.156  0.00  0.00    -0.271 OA
ATOM     17  H14 GLY d   1      32.434 -20.867  -7.312  0.00  0.00     0.163 HD
BRANCH  15  18
ATOM     18  CA  PRO d   1      30.425 -21.119  -8.890  0.00  0.00     0.091 C 
ATOM     19  CB  PRO d   1      29.176 -20.245  -8.872  0.00  0.00    -0.036 C 
ATOM     20  CG  PRO d   1      29.020 -19.934  -7.419  0.00  0.00    -0.048 C 
ATOM     21  H8  PRO d   1      28.303 -20.792  -9.258  0.00  0.00     0.036 H 
ATOM     22  H9  PRO d   1      29.324 -19.328  -9.461  0.00  0.00     0.036 H 
ATOM     23  CD  PRO d   1      29.262 -21.272  -6.775  0.00  0.00    -0.001 C 
ATOM     24  H10 PRO d   1      29.763 -19.193  -7.089  0.00  0.00     0.035 H 
ATOM     25  H11 PRO d   1      28.008 -19.563  -7.198  0.00  0.00     0.035 H 
ATOM     26  N   PRO d   1      30.331 -21.837  -7.617  0.00  0.00    -0.337 N 
ATOM     27  H12 PRO d   1      29.594 -21.158  -5.733  0.00  0.00     0.064 H 
ATOM     28  H13 PRO d   1      28.358 -21.898  -6.806  0.00  0.00     0.064 H 
ATOM     29  C   ASP d   1      31.103 -22.889  -7.319  0.00  0.00     0.251 C 
ATOM     30  O   ASP d   1      31.956 -23.317  -8.100  0.00  0.00    -0.271 OA
ATOM     31  H7  PRO d   1      30.354 -21.845  -9.713  0.00  0.00     0.087 H 
BRANCH  29  32
ATOM     32  CA  ASP d   1      30.889 -23.541  -5.956  0.00  0.00     0.185 C 
ATOM     33  H4  ASP d   1      29.809 -23.608  -5.760  0.00  0.00     0.100 H 
BRANCH  32  34
ATOM     34  N   ASP d   1      31.464 -24.916  -5.957  0.00  0.00    -0.066 N 
ATOM     35  H1  ASP d   1      31.320 -25.341  -5.055  0.00  0.00     0.275 HD
ATOM     36  H2  ASP d   1      32.452 -24.867  -6.151  0.00  0.00     0.275 HD
ATOM     37  H3  ASP d   1      31.009 -25.470  -6.666  0.00  0.00     0.275 HD
ENDBRANCH  32  34
BRANCH  32  38
ATOM     38  CB  ASP d   1      31.539 -22.692  -4.856  0.00  0.00     0.050 C 
ATOM     39  H5  ASP d   1      31.439 -23.222  -3.897  0.00  0.00     0.052 H 
ATOM     40  H6  ASP d   1      31.013 -21.727  -4.799  0.00  0.00     0.052 H 
BRANCH  38  41
ATOM     41  CG  ASP d   1      33.007 -22.429  -5.113  0.00  0.00     0.175 C 
ATOM     42  OD1 ASP d   1      33.319 -21.710  -6.083  0.00  0.00    -0.648 OA
ATOM     43  OD2 ASP d   1      33.850 -22.942  -4.348  0.00  0.00    -0.648 OA
ENDBRANCH  38  41
ENDBRANCH  32  38
ENDBRANCH  29  32
ENDBRANCH  15  18
ENDBRANCH  11  14
ENDBRANCH   8  11
ENDBRANCH   5   7
BRANCH   5  44
ATOM     44  CB  GLU d   1      31.653 -15.607  -6.609  0.00  0.00    -0.029 C 
ATOM     45  H19 GLU d   1      32.078 -15.629  -5.595  0.00  0.00     0.037 H 
ATOM     46  H20 GLU d   1      30.817 -16.319  -6.672  0.00  0.00     0.037 H 
BRANCH  44  47
ATOM     47  CG  GLU d   1      31.121 -14.209  -6.882  0.00  0.00     0.018 C 
ATOM     48  H21 GLU d   1      30.626 -14.210  -7.864  0.00  0.00     0.049 H 
ATOM     49  H22 GLU d   1      31.970 -13.510  -6.899  0.00  0.00     0.049 H 
BRANCH  47  50
ATOM     50  CD  GLU d   1      30.127 -13.732  -5.844  0.00  0.00     0.172 C 
ATOM     51  OE2 GLU d   1      30.043 -12.508  -5.636  0.00  0.00    -0.648 OA
ATOM     52  OE1 GLU d   1      29.419 -14.570  -5.248  0.00  0.00    -0.648 OA
ENDBRANCH  47  50
ENDBRANCH  44  47
ENDBRANCH   5  44
ENDBRANCH   3   5
BRANCH   1  53
ATOM     53  CA  GLY d   1      35.450 -13.402  -7.869  0.00  0.00     0.069 C 
ATOM     54  H24 GLY d   1      36.262 -14.046  -7.501  0.00  0.00     0.078 H 
ATOM     55  H25 GLY d   1      35.240 -12.616  -7.128  0.00  0.00     0.078 H 
BRANCH  53  56
ATOM     56  C   GLY d   1      35.877 -12.757  -9.173  0.00  0.00     0.238 C 
ATOM     57  O   GLY d   1      35.108 -12.753 -10.136  0.00  0.00    -0.272 OA
ATOM     58  N   PRO d   1      37.097 -12.198  -9.237  0.00  0.00    -0.337 N 
ATOM     59  CA  PRO d   1      37.616 -11.549 -10.447  0.00  0.00     0.091 C 
ATOM     60  CD  PRO d   1      38.087 -12.135  -8.146  0.00  0.00    -0.001 C 
ATOM     61  CB  PRO d   1      38.868 -10.843  -9.943  0.00  0.00    -0.036 C 
ATOM     62  H26 PRO d   1      36.892 -10.818 -10.836  0.00  0.00     0.087 H 
ATOM     63  CG  PRO d   1      39.360 -11.778  -8.890  0.00  0.00    -0.048 C 
ATOM     64  H27 PRO d   1      38.626  -9.857  -9.519  0.00  0.00     0.036 H 
ATOM     65  H28 PRO d   1      39.609 -10.724 -10.747  0.00  0.00     0.036 H 
ATOM     66  H29 PRO d   1      39.823 -12.671  -9.336  0.00  0.00     0.035 H 
ATOM     67  H30 PRO d   1      40.083 -11.283  -8.225  0.00  0.00     0.035 H 
ATOM     68  H31 PRO d   1      38.181 -13.105  -7.636  0.00  0.00     0.064 H 
ATOM     69  H32 PRO d   1      37.823 -11.359  -7.412  0.00  0.00     0.064 H 
BRANCH  59  70
ATOM     70  C   PRO d   1      37.924 -12.565 -11.543  0.00  0.00     0.241 C 
ATOM     71  O   PRO d   1      38.092 -13.755 -11.261  0.00  0.00    -0.271 OA
ATOM     72  N   SER d   1      38.008 -12.098 -12.788  0.00  0.00    -0.344 N 
ATOM     73  H33 SER d   1      37.881 -11.120 -12.955  0.00  0.00     0.163 HD
BRANCH  72  74
ATOM     74  CA  SER d   1      38.283 -12.990 -13.916  0.00  0.00     0.109 C 
ATOM     75  H34 SER d   1      37.505 -13.768 -13.928  0.00  0.00     0.090 H 
BRANCH  74  76
ATOM     76  CB  SER d   1      38.222 -12.225 -15.244  0.00  0.00     0.044 C 
ATOM     77  H35 SER d   1      37.224 -11.776 -15.352  0.00  0.00     0.077 H 
ATOM     78  H36 SER d   1      38.399 -12.929 -16.070  0.00  0.00     0.077 H 
BRANCH  76  79
ATOM     79  OG  SER d   1      39.194 -11.201 -15.297  0.00  0.00    -0.398 OA
ATOM     80  H37 SER d   1      39.044 -10.586 -14.588  0.00  0.00     0.209 HD
ENDBRANCH  76  79
ENDBRANCH  74  76
BRANCH  74  81
ATOM     81  C   SER d   1      39.632 -13.674 -13.791  0.00  0.00     0.243 C 
ATOM     82  O   SER d   1      39.888 -14.685 -14.443  0.00  0.00    -0.271 OA
ATOM     83  N   THR d   1      40.493 -13.122 -12.948  0.00  0.00    -0.343 N 
ATOM     84  H38 THR d   1      40.229 -12.301 -12.441  0.00  0.00     0.163 HD
BRANCH  83  85
ATOM     85  CA  THR d   1      41.816 -13.693 -12.749  0.00  0.00     0.117 C 
ATOM     86  H39 THR d   1      42.081 -14.278 -13.642  0.00  0.00     0.093 H 
BRANCH  85  87
ATOM     87  CB  THR d   1      42.852 -12.583 -12.553  0.00  0.00     0.061 C 
ATOM     88  H40 THR d   1      43.835 -13.036 -12.356  0.00  0.00     0.086 H 
BRANCH  87  89
ATOM     89  CG2 THR d   1      42.940 -11.716 -13.803  0.00  0.00    -0.050 C 
ATOM     90  H42 THR d   1      43.687 -10.924 -13.648  0.00  0.00     0.031 H 
ATOM     91  H43 THR d   1      41.959 -11.261 -14.003  0.00  0.00     0.031 H 
ATOM     92  H44 THR d   1      43.237 -12.338 -14.660  0.00  0.00     0.031 H 
ENDBRANCH  87  89
BRANCH  87  93
ATOM     93  OG1 THR d   1      42.470 -11.769 -11.435  0.00  0.00    -0.393 OA
ATOM     94  H41 THR d   1      42.415 -12.309 -10.655  0.00  0.00     0.210 HD
ENDBRANCH  87  93
ENDBRANCH  85  87
BRANCH  85  95
ATOM     95  C   THR d   1      41.848 -14.611 -11.529  0.00  0.00     0.166 C 
ATOM     96  O   THR d   1      42.857 -14.542 -10.794  0.00  0.00    -0.648 OA
BRANCH  95  97
ATOM     97  O1  THR d   1      40.848 -15.446 -11.261  0.00  0.00    -0.775 OA
ATOM     98  H45 THR d   1      40.482 -15.237 -10.409  0.00  0.00     0.167 HD
ENDBRANCH  95  97
ENDBRANCH  85  95
ENDBRANCH  83  85
ENDBRANCH  74  81
ENDBRANCH  72  74
ENDBRANCH  59  70
ENDBRANCH  53  56
ENDBRANCH   1  53
TORSDOF 25
