REMARK  3 active torsions:
REMARK  status: ('A' for Active; 'I' for Inactive)
REMARK    1  A    between atoms: C1_1  and  O10_7 
REMARK    2  A    between atoms: C4_4  and  C12_9 
REMARK    3  A    between atoms: C22_17  and  O29_21 
ROOT
ATOM      1  C12 196 d   1      29.901  36.506  39.465  0.00  0.00    -0.024 A 
ATOM      2  C13 196 d   1      31.126  35.835  39.824  0.00  0.00    -0.061 A 
ATOM      3  C14 196 d   1      32.306  35.935  39.028  0.00  0.00    -0.023 A 
ATOM      4  C15 196 d   1      32.274  36.794  37.805  0.00  0.00    -0.003 A 
ATOM      5  C16 196 d   1      31.036  37.459  37.433  0.00  0.00     0.056 A 
ATOM      6  C17 196 d   1      29.893  37.315  38.272  0.00  0.00    -0.051 A 
ATOM      7  C20 196 d   1      33.502  35.262  39.423  0.00  0.00    -0.070 A 
ATOM      8  C21 196 d   1      34.674  35.391  38.613  0.00  0.00    -0.050 A 
ATOM      9  C22 196 d   1      34.663  36.198  37.427  0.00  0.00     0.066 A 
ATOM     10  C23 196 d   1      33.482  36.883  37.013  0.00  0.00    -0.039 A 
ATOM     11  C27 196 d   1      30.894  38.298  36.269  0.00  0.00     0.100 C 
ATOM     12  N28 196 d   1      30.790  38.948  35.317  0.00  0.00    -0.191 NA
ATOM     13  H5  196 d   1      31.151  35.236  40.727  0.00  0.00     0.086 H 
ATOM     14  H6  196 d   1      28.981  37.835  38.002  0.00  0.00     0.087 H 
ATOM     15  H7  196 d   1      33.522  34.661  40.325  0.00  0.00     0.085 H 
ATOM     16  H8  196 d   1      35.582  34.872  38.899  0.00  0.00     0.087 H 
ATOM     17  H9  196 d   1      33.489  37.472  36.103  0.00  0.00     0.089 H 
ENDROOT
BRANCH   1  18
ATOM     18  C4  196 d   1      28.638  36.401  40.313  0.00  0.00    -0.023 A 
ATOM     19  C3  196 d   1      27.357  36.694  39.729  0.00  0.00    -0.032 A 
ATOM     20  C2  196 d   1      26.185  36.596  40.519  0.00  0.00     0.150 A 
ATOM     21  H1  196 d   1      27.288  36.989  38.688  0.00  0.00     0.089 H 
ATOM     22  C1  196 d   1      26.236  36.213  41.898  0.00  0.00     0.104 A 
ATOM     23  F11 196 d   1      24.992  36.869  39.984  0.00  0.00    -0.203 F 
ATOM     24  C6  196 d   1      27.500  35.916  42.504  0.00  0.00    -0.047 A 
ATOM     25  C5  196 d   1      28.688  36.015  41.711  0.00  0.00    -0.069 A 
ATOM     26  H3  196 d   1      27.556  35.621  43.546  0.00  0.00     0.087 H 
ATOM     27  H2  196 d   1      29.648  35.796  42.166  0.00  0.00     0.085 H 
BRANCH  22  28
ATOM     28  O10 196 d   1      25.084  36.115  42.668  0.00  0.00    -0.358 OA
ATOM     29  H4  196 d   1      24.994  35.225  42.989  0.00  0.00     0.217 HD
ENDBRANCH  22  28
ENDBRANCH   1  18
BRANCH   9  30
ATOM     30  O29 196 d   1      35.818  36.302  36.672  0.00  0.00    -0.361 OA
ATOM     31  H10 196 d   1      36.083  37.213  36.624  0.00  0.00     0.217 HD
ENDBRANCH   9  30
TORSDOF 3
