REMARK  8 active torsions:
REMARK  status: ('A' for Active; 'I' for Inactive)
REMARK    1  A    between atoms: N08_6  and  C01_1 
REMARK    2  A    between atoms: C11_9  and  N08_6 
REMARK    3  A    between atoms: N08_6  and  C19_13 
REMARK    4  A    between atoms: C10_8  and  C09_7 
REMARK    5  A    between atoms: C10_8  and  C11_9 
REMARK    6  A    between atoms: C14_10  and  C17_11 
REMARK    7  A    between atoms: C14_10  and  C18_12 
REMARK    8  A    between atoms: C31_14  and  C32_15 
ROOT
ATOM      1  N08 SAZ d   1     -21.353 107.587  16.338  0.00  0.00    -0.070 N 
ATOM      2  H9  SAZ d   1     -22.149 107.267  15.809  0.00  0.00     0.279 HD
ENDROOT
BRANCH   1   3
ATOM      3  C01 SAZ d   1     -21.646 109.050  16.696  0.00  0.00     0.107 C 
ATOM      4  C02 SAZ d   1     -20.352 109.906  17.062  0.00  0.00    -0.035 C 
ATOM      5  C05 SAZ d   1     -20.708 111.420  17.264  0.00  0.00    -0.043 C 
ATOM      6  H2  SAZ d   1     -19.620 109.816  16.246  0.00  0.00     0.036 H 
ATOM      7  H3  SAZ d   1     -19.914 109.514  17.992  0.00  0.00     0.036 H 
ATOM      8  C31 SAZ d   1     -22.111 111.663  17.870  0.00  0.00    -0.087 C 
ATOM      9  H6  SAZ d   1     -20.663 111.919  16.285  0.00  0.00     0.039 H 
ATOM     10  H7  SAZ d   1     -19.959 111.864  17.936  0.00  0.00     0.039 H 
ATOM     11  C07 SAZ d   1     -22.968 110.629  18.175  0.00  0.00    -0.099 C 
ATOM     12  C03 SAZ d   1     -22.644 109.143  17.918  0.00  0.00    -0.023 C 
ATOM     13  H8  SAZ d   1     -23.930 110.875  18.623  0.00  0.00     0.077 H 
ATOM     14  H4  SAZ d   1     -22.177 108.705  18.812  0.00  0.00     0.042 H 
ATOM     15  H5  SAZ d   1     -23.570 108.597  17.683  0.00  0.00     0.042 H 
ATOM     16  H1  SAZ d   1     -22.121 109.513  15.819  0.00  0.00     0.085 H 
BRANCH   8  17
ATOM     17  C32 SAZ d   1     -22.487 113.090  18.101  0.00  0.00    -0.055 C 
ATOM     18  H24 SAZ d   1     -23.498 113.138  18.531  0.00  0.00     0.033 H 
ATOM     19  H25 SAZ d   1     -22.470 113.633  17.145  0.00  0.00     0.033 H 
ATOM     20  H26 SAZ d   1     -21.770 113.550  18.797  0.00  0.00     0.033 H 
ENDBRANCH   8  17
ENDBRANCH   1   3
BRANCH   1  21
ATOM     21  C11 SAZ d   1     -20.152 107.401  15.508  0.00  0.00     0.086 C 
ATOM     22  H13 SAZ d   1     -20.084 106.336  15.241  0.00  0.00     0.076 H 
ATOM     23  H14 SAZ d   1     -19.276 107.685  16.109  0.00  0.00     0.076 H 
BRANCH  21  24
ATOM     24  C10 SAZ d   1     -20.121 108.227  14.196  0.00  0.00    -0.027 C 
ATOM     25  H11 SAZ d   1     -20.621 107.643  13.409  0.00  0.00     0.041 H 
ATOM     26  H12 SAZ d   1     -20.674 109.163  14.365  0.00  0.00     0.041 H 
BRANCH  24  27
ATOM     27  C09 SAZ d   1     -18.743 108.576  13.718  0.00  0.00    -0.100 C 
ATOM     28  C14 SAZ d   1     -18.150 109.773  13.609  0.00  0.00    -0.091 C 
ATOM     29  H10 SAZ d   1     -18.131 107.728  13.413  0.00  0.00     0.077 H 
BRANCH  28  30
ATOM     30  C17 SAZ d   1     -18.746 111.124  13.961  0.00  0.00    -0.055 C 
ATOM     31  H15 SAZ d   1     -18.008 111.914  13.759  0.00  0.00     0.033 H 
ATOM     32  H16 SAZ d   1     -19.017 111.139  15.027  0.00  0.00     0.033 H 
ATOM     33  H17 SAZ d   1     -19.645 111.298  13.352  0.00  0.00     0.033 H 
ENDBRANCH  28  30
BRANCH  28  34
ATOM     34  C18 SAZ d   1     -16.743 109.842  13.076  0.00  0.00    -0.055 C 
ATOM     35  H18 SAZ d   1     -16.387 108.826  12.847  0.00  0.00     0.033 H 
ATOM     36  H19 SAZ d   1     -16.087 110.298  13.832  0.00  0.00     0.033 H 
ATOM     37  H20 SAZ d   1     -16.727 110.451  12.160  0.00  0.00     0.033 H 
ENDBRANCH  28  34
ENDBRANCH  24  27
ENDBRANCH  21  24
ENDBRANCH   1  21
BRANCH   1  38
ATOM     38  C19 SAZ d   1     -21.184 106.682  17.474  0.00  0.00     0.067 C 
ATOM     39  H21 SAZ d   1     -22.052 106.768  18.143  0.00  0.00     0.068 H 
ATOM     40  H22 SAZ d   1     -20.270 106.950  18.023  0.00  0.00     0.068 H 
ATOM     41  H23 SAZ d   1     -21.103 105.647  17.110  0.00  0.00     0.068 H 
ENDBRANCH   1  38
TORSDOF 8
