REMARK  8 active torsions:
REMARK  status: ('A' for Active; 'I' for Inactive)
REMARK    1  A    between atoms: N35_14  and  C01_1 
REMARK    2  A    between atoms: C09_7  and  C08_6 
REMARK    3  A    between atoms: C10_8  and  C09_7 
REMARK    4  A    between atoms: C10_8  and  N35_14 
REMARK    5  A    between atoms: C13_9  and  C16_10 
REMARK    6  A    between atoms: C13_9  and  C17_11 
REMARK    7  A    between atoms: C25_12  and  C26_13 
REMARK    8  A    between atoms: N35_14  and  C36_15 
ROOT
ATOM      1  N35 SAZ d   1      51.125  13.813  62.402  0.00  0.00    -0.070 N 
ATOM      2  H23 SAZ d   1      51.682  13.562  61.600  0.00  0.00     0.279 HD
ENDROOT
BRANCH   1   3
ATOM      3  C01 SAZ d   1      51.858  13.241  63.518  0.00  0.00     0.107 C 
ATOM      4  C02 SAZ d   1      52.320  11.790  63.137  0.00  0.00    -0.035 C 
ATOM      5  C05 SAZ d   1      53.511  11.713  62.144  0.00  0.00    -0.043 C 
ATOM      6  H2  SAZ d   1      51.464  11.269  62.683  0.00  0.00     0.036 H 
ATOM      7  H3  SAZ d   1      52.615  11.273  64.062  0.00  0.00     0.036 H 
ATOM      8  C25 SAZ d   1      54.658  12.638  62.529  0.00  0.00    -0.087 C 
ATOM      9  H6  SAZ d   1      53.153  11.994  61.143  0.00  0.00     0.039 H 
ATOM     10  H7  SAZ d   1      53.885  10.679  62.123  0.00  0.00     0.039 H 
ATOM     11  C07 SAZ d   1      54.471  13.703  63.354  0.00  0.00    -0.099 C 
ATOM     12  C03 SAZ d   1      53.124  14.085  63.975  0.00  0.00    -0.023 C 
ATOM     13  H8  SAZ d   1      55.334  14.324  63.588  0.00  0.00     0.077 H 
ATOM     14  H4  SAZ d   1      53.219  13.979  65.066  0.00  0.00     0.042 H 
ATOM     15  H5  SAZ d   1      52.929  15.138  63.725  0.00  0.00     0.042 H 
ATOM     16  H1  SAZ d   1      51.170  13.180  64.374  0.00  0.00     0.085 H 
BRANCH   8  17
ATOM     17  C26 SAZ d   1      56.003  12.296  61.943  0.00  0.00    -0.055 C 
ATOM     18  H20 SAZ d   1      56.749  13.027  62.287  0.00  0.00     0.033 H 
ATOM     19  H21 SAZ d   1      55.942  12.323  60.845  0.00  0.00     0.033 H 
ATOM     20  H22 SAZ d   1      56.299  11.288  62.269  0.00  0.00     0.033 H 
ENDBRANCH   8  17
ENDBRANCH   1   3
BRANCH   1  21
ATOM     21  C10 SAZ d   1      50.981  15.265  62.342  0.00  0.00     0.086 C 
ATOM     22  H12 SAZ d   1      49.912  15.492  62.467  0.00  0.00     0.076 H 
ATOM     23  H13 SAZ d   1      51.546  15.684  63.188  0.00  0.00     0.076 H 
BRANCH  21  24
ATOM     24  C09 SAZ d   1      51.455  15.992  61.073  0.00  0.00    -0.027 C 
ATOM     25  H10 SAZ d   1      50.676  15.886  60.304  0.00  0.00     0.041 H 
ATOM     26  H11 SAZ d   1      51.589  17.056  61.316  0.00  0.00     0.041 H 
BRANCH  24  27
ATOM     27  C08 SAZ d   1      52.749  15.470  60.508  0.00  0.00    -0.100 C 
ATOM     28  C13 SAZ d   1      52.992  14.962  59.288  0.00  0.00    -0.091 C 
ATOM     29  H9  SAZ d   1      53.605  15.509  61.180  0.00  0.00     0.077 H 
BRANCH  28  30
ATOM     30  C16 SAZ d   1      51.980  14.795  58.171  0.00  0.00    -0.055 C 
ATOM     31  H14 SAZ d   1      52.473  14.352  57.293  0.00  0.00     0.033 H 
ATOM     32  H15 SAZ d   1      51.565  15.778  57.902  0.00  0.00     0.033 H 
ATOM     33  H16 SAZ d   1      51.168  14.134  58.508  0.00  0.00     0.033 H 
ENDBRANCH  28  30
BRANCH  28  34
ATOM     34  C17 SAZ d   1      54.379  14.501  58.930  0.00  0.00    -0.055 C 
ATOM     35  H17 SAZ d   1      55.050  14.655  59.788  0.00  0.00     0.033 H 
ATOM     36  H18 SAZ d   1      54.747  15.079  58.069  0.00  0.00     0.033 H 
ATOM     37  H19 SAZ d   1      54.355  13.432  58.671  0.00  0.00     0.033 H 
ENDBRANCH  28  34
ENDBRANCH  24  27
ENDBRANCH  21  24
ENDBRANCH   1  21
BRANCH   1  38
ATOM     38  C36 SAZ d   1      49.775  13.269  62.145  0.00  0.00     0.067 C 
ATOM     39  H24 SAZ d   1      49.811  12.170  62.176  0.00  0.00     0.068 H 
ATOM     40  H25 SAZ d   1      49.430  13.597  61.153  0.00  0.00     0.068 H 
ATOM     41  H26 SAZ d   1      49.080  13.635  62.915  0.00  0.00     0.068 H 
ENDBRANCH   1  38
TORSDOF 8
