REMARK  9 active torsions:
REMARK  status: ('A' for Active; 'I' for Inactive)
REMARK    1  A    between atoms: N_4  and  S1_1 
REMARK    2  A    between atoms: CA_5  and  N_4 
REMARK    3  A    between atoms: CA_12  and  N_11 
REMARK    4  A    between atoms: C_13  and  CA_12 
REMARK       I    between atoms: N_17  and  C_13 
REMARK    5  A    between atoms: C17_21  and  C2_15 
REMARK    6  A    between atoms: C15_18  and  N_17 
REMARK    7  A    between atoms: C15_18  and  C16_19 
REMARK    8  A    between atoms: C15_18  and  C17_21 
REMARK    9  A    between atoms: C16_19  and  O5_20 
REMARK       I    between atoms: NE_23  and  CZ_22 
REMARK       I    between atoms: CZ_22  and  NH1_27 
ROOT
ATOM      1  C15 0KV d   1      20.027   0.437  30.099  0.00  0.00     0.033 C 
ATOM      2  H16 0KV d   1      20.081   1.327  30.743  0.00  0.00     0.075 H 
ENDROOT
BRANCH   1   3
ATOM      3  N   0KV d   1      21.421   0.237  29.593  0.00  0.00    -0.353 N 
ATOM      4  C   0KV d   1      22.361   0.952  30.366  0.00  0.00     0.235 C 
ATOM      5  O   0KV d   1      22.155   1.388  31.546  0.00  0.00    -0.272 OA
ATOM      6  H15 0KV d   1      21.657  -0.332  28.805  0.00  0.00     0.163 HD
BRANCH   4   7
ATOM      7  CA  0KV d   1      23.556   0.065  29.941  0.00  0.00     0.071 C 
ATOM      8  H10 0KV d   1      23.659  -0.851  30.541  0.00  0.00     0.079 H 
ATOM      9  H11 0KV d   1      23.552  -0.195  28.872  0.00  0.00     0.079 H 
BRANCH   7  10
ATOM     10  N   0KV d   1      24.550   1.128  30.295  0.00  0.00    -0.342 N 
ATOM     11  C   0KV d   1      24.516   2.217  29.508  0.00  0.00     0.243 C 
ATOM     12  CA  0KV d   1      25.608   3.334  29.673  0.00  0.00     0.096 C 
ATOM     13  O   0KV d   1      23.777   2.406  28.531  0.00  0.00    -0.271 OA
ATOM     14  CB  0KV d   1      26.163   3.397  31.071  0.00  0.00    -0.036 C 
ATOM     15  H3  0KV d   1      26.438   3.042  29.013  0.00  0.00     0.088 H 
ATOM     16  CG  0KV d   1      26.384   2.051  31.714  0.00  0.00    -0.048 C 
ATOM     17  H4  0KV d   1      25.458   3.965  31.696  0.00  0.00     0.036 H 
ATOM     18  H5  0KV d   1      27.128   3.924  31.035  0.00  0.00     0.036 H 
ATOM     19  CD  0KV d   1      25.227   1.082  31.616  0.00  0.00    -0.002 C 
ATOM     20  H6  0KV d   1      26.598   2.216  32.780  0.00  0.00     0.035 H 
ATOM     21  H7  0KV d   1      27.257   1.585  31.233  0.00  0.00     0.035 H 
ATOM     22  H8  0KV d   1      24.493   1.331  32.396  0.00  0.00     0.064 H 
ATOM     23  H9  0KV d   1      25.607   0.063  31.781  0.00  0.00     0.064 H 
BRANCH  12  24
ATOM     24  N   0KV d   1      25.207   4.636  29.261  0.00  0.00    -0.308 N 
ATOM     25  H2  0KV d   1      25.640   4.969  28.424  0.00  0.00     0.172 HD
BRANCH  24  26
ATOM     26  S1  0KV d   1      24.117   5.695  29.969  0.00  0.00     0.221 S 
ATOM     27  O1  0KV d   1      23.224   6.185  28.923  0.00  0.00    -0.209 OA
ATOM     28  O2  0KV d   1      23.372   4.965  30.993  0.00  0.00    -0.209 OA
ATOM     29  H1  0KV d   1      24.605   6.470  30.391  0.00  0.00     0.195 HD
ENDBRANCH  24  26
ENDBRANCH  12  24
ENDBRANCH   7  10
ENDBRANCH   4   7
ENDBRANCH   1   3
BRANCH   1  30
ATOM     30  C16 0KV d   1      19.520  -0.646  31.047  0.00  0.00     0.035 C 
ATOM     31  H17 0KV d   1      19.979  -0.504  32.037  0.00  0.00     0.077 H 
ATOM     32  H18 0KV d   1      19.800  -1.633  30.651  0.00  0.00     0.077 H 
BRANCH  30  33
ATOM     33  O5  0KV d   1      18.096  -0.575  31.173  0.00  0.00    -0.399 OA
ATOM     34  H19 0KV d   1      17.797  -1.255  31.766  0.00  0.00     0.209 HD
ENDBRANCH  30  33
ENDBRANCH   1  30
BRANCH   1  35
ATOM     35  C17 0KV d   1      19.123   0.878  28.904  0.00  0.00    -0.039 C 
ATOM     36  H20 0KV d   1      18.973   0.056  28.189  0.00  0.00     0.036 H 
ATOM     37  H21 0KV d   1      18.146   1.243  29.253  0.00  0.00     0.036 H 
BRANCH  35  38
ATOM     38  C2  0KV d   1      19.966   2.022  28.283  0.00  0.00    -0.036 C 
ATOM     39  C3  0KV d   1      20.102   2.022  26.753  0.00  0.00     0.015 C 
ATOM     40  NE  0KV d   1      20.480   3.389  26.255  0.00  0.00    -0.218 N 
ATOM     41  H13 0KV d   1      19.142   1.727  26.305  0.00  0.00     0.065 H 
ATOM     42  H14 0KV d   1      20.880   1.302  26.459  0.00  0.00     0.065 H 
ATOM     43  CZ  0KV d   1      20.021   3.861  24.959  0.00  0.00     0.667 C 
ATOM     44  CD  0KV d   1      21.277   4.267  27.206  0.00  0.00     0.012 C 
ATOM     45  NH1 0KV d   1      20.221   5.119  24.630  0.00  0.00    -0.235 N 
ATOM     46  NH2 0KV d   1      19.428   2.997  24.184  0.00  0.00    -0.235 N 
ATOM     47  H28 0KV d   1      19.902   5.469  23.715  0.00  0.00     0.174 HD
ATOM     48  H29 0KV d   1      20.697   5.754  25.287  0.00  0.00     0.174 HD
ATOM     49  H30 0KV d   1      19.301   2.025  24.499  0.00  0.00     0.174 HD
ATOM     50  H31 0KV d   1      19.086   3.287  23.256  0.00  0.00     0.174 HD
ATOM     51  CG  0KV d   1      20.438   4.623  28.446  0.00  0.00    -0.049 C 
ATOM     52  H22 0KV d   1      21.566   5.193  26.687  0.00  0.00     0.065 H 
ATOM     53  H23 0KV d   1      22.181   3.728  27.524  0.00  0.00     0.065 H 
ATOM     54  C1  0KV d   1      19.721   3.355  29.027  0.00  0.00    -0.059 C 
ATOM     55  H24 0KV d   1      19.679   5.367  28.164  0.00  0.00     0.035 H 
ATOM     56  H25 0KV d   1      21.099   5.047  29.217  0.00  0.00     0.035 H 
ATOM     57  H26 0KV d   1      20.061   3.225  30.065  0.00  0.00     0.033 H 
ATOM     58  H27 0KV d   1      18.638   3.549  29.017  0.00  0.00     0.033 H 
ATOM     59  H12 0KV d   1      20.991   1.767  28.590  0.00  0.00     0.042 H 
ENDBRANCH  35  38
ENDBRANCH   1  35
TORSDOF 9
