REMARK  0 active torsions:
REMARK  status: ('A' for Active; 'I' for Inactive)
ROOT
ATOM      1 CL4  SKA d   1      26.683  41.443  16.484  0.00  0.00    -0.082 Cl
ATOM      2  C4  SKA d   1      27.258  43.076  16.437  0.00  0.00     0.064 A 
ATOM      3  C5  SKA d   1      27.886  43.615  17.559  0.00  0.00    -0.003 A 
ATOM      4  C11 SKA d   1      28.074  42.807  18.846  0.00  0.00     0.107 C 
ATOM      5  N10 SKA d   1      29.106  43.407  19.711  0.00  0.00    -0.071 N 
ATOM      6  C9  SKA d   1      28.818  44.824  19.975  0.00  0.00     0.086 C 
ATOM      7  C8  SKA d   1      29.042  45.615  18.684  0.00  0.00    -0.018 C 
ATOM      8  C6  SKA d   1      28.332  44.936  17.508  0.00  0.00    -0.047 A 
ATOM      9  C1  SKA d   1      28.152  45.697  16.360  0.00  0.00    -0.075 A 
ATOM     10  C2  SKA d   1      27.524  45.151  15.243  0.00  0.00    -0.060 A 
ATOM     11  C3  SKA d   1      27.076  43.837  15.282  0.00  0.00     0.056 A 
ATOM     12 CL3  SKA d   1      26.302  43.192  13.876  0.00  0.00    -0.083 Cl
ATOM     13  H1  SKA d   1      28.377  41.782  18.584  0.00  0.00     0.083 H 
ATOM     14  H2  SKA d   1      27.120  42.779  19.393  0.00  0.00     0.083 H 
ATOM     15  H3  SKA d   1      30.002  43.333  19.255  0.00  0.00     0.277 HD
ATOM     16  H4  SKA d   1      29.133  42.908  20.586  0.00  0.00     0.277 HD
ATOM     17  H5  SKA d   1      29.490  45.199  20.761  0.00  0.00     0.076 H 
ATOM     18  H6  SKA d   1      27.774  44.936  20.302  0.00  0.00     0.076 H 
ATOM     19  H7  SKA d   1      30.120  45.667  18.474  0.00  0.00     0.042 H 
ATOM     20  H8  SKA d   1      28.643  46.632  18.809  0.00  0.00     0.042 H 
ATOM     21  H9  SKA d   1      28.503  46.722  16.333  0.00  0.00     0.084 H 
ATOM     22  H10 SKA d   1      27.386  45.748  14.349  0.00  0.00     0.086 H 
ENDROOT
TORSDOF 0
