REMARK  13 active torsions:
REMARK  status: ('A' for Active; 'I' for Inactive)
REMARK    1  A    between atoms: C23_29  and  C1_1 
REMARK    2  A    between atoms: C16_10  and  C17_23 
REMARK    3  A    between atoms: C27_13  and  N26_12 
REMARK    4  A    between atoms: N26_12  and  C25_31 
REMARK    5  A    between atoms: N26_12  and  S32_34 
REMARK    6  A    between atoms: C28_32  and  C27_13 
REMARK    7  A    between atoms: C29_33  and  C30_14 
REMARK    8  A    between atoms: C29_33  and  C31_15 
REMARK    9  A    between atoms: S32_34  and  C35_16 
REMARK   10  A    between atoms: C17_23  and  C18_24 
REMARK       I    between atoms: C18_24  and  N19_26 
REMARK   11  A    between atoms: C23_29  and  O24_30 
REMARK   12  A    between atoms: C25_31  and  C23_29 
REMARK   13  A    between atoms: C28_32  and  C29_33 
ROOT
ATOM      1  C1  HBH d   1       5.685  -0.296  14.460  0.00  0.00     0.042 C 
ATOM      2  C2  HBH d   1       7.125   0.242  14.362  0.00  0.00    -0.020 C 
ATOM      3  C3  HBH d   1       7.402   0.919  13.043  0.00  0.00    -0.056 A 
ATOM      4  C7  HBH d   1       7.733   0.796  10.650  0.00  0.00    -0.050 A 
ATOM      5  C8  HBH d   1       7.587   0.173  11.878  0.00  0.00    -0.074 A 
ATOM      6  C10 HBH d   1       6.549   2.878   8.731  0.00  0.00     0.026 C 
ATOM      7  C11 HBH d   1       5.761   4.091   9.208  0.00  0.00    -0.037 C 
ATOM      8  C12 HBH d   1       4.307   3.775   9.358  0.00  0.00     0.011 C 
ATOM      9  C13 HBH d   1       3.932   3.317  10.764  0.00  0.00     0.218 C 
ATOM     10  C16 HBH d   1       3.199   1.462  12.202  0.00  0.00     0.097 C 
ATOM     11  C20 HBH d   1       4.064   0.348  12.722  0.00  0.00     0.241 C 
ATOM     12  C4  HBH d   1       7.374   2.307  12.943  0.00  0.00    -0.074 A 
ATOM     13  C5  HBH d   1       7.520   2.943  11.722  0.00  0.00    -0.050 A 
ATOM     14  C6  HBH d   1       7.692   2.180  10.577  0.00  0.00     0.068 A 
ATOM     15  O9  HBH d   1       7.819   2.808   9.361  0.00  0.00    -0.351 OA
ATOM     16  O14 HBH d   1       3.951   4.107  11.729  0.00  0.00    -0.274 OA
ATOM     17  N15 HBH d   1       3.648   2.021  10.911  0.00  0.00    -0.347 N 
ATOM     18  O21 HBH d   1       4.040  -0.781  12.217  0.00  0.00    -0.271 OA
ATOM     19  N22 HBH d   1       4.775   0.652  13.797  0.00  0.00    -0.352 N 
ATOM     20  H1  HBH d   1       5.630  -1.260  13.933  0.00  0.00     0.077 H 
ATOM     21  H2  HBH d   1       7.824  -0.599  14.480  0.00  0.00     0.043 H 
ATOM     22  H3  HBH d   1       7.285   0.969  15.172  0.00  0.00     0.043 H 
ATOM     23  H4  HBH d   1       7.878   0.206   9.752  0.00  0.00     0.087 H 
ATOM     24  H5  HBH d   1       7.617  -0.909  11.935  0.00  0.00     0.084 H 
ATOM     25  H6  HBH d   1       6.692   2.949   7.643  0.00  0.00     0.075 H 
ATOM     26  H7  HBH d   1       5.981   1.966   8.967  0.00  0.00     0.075 H 
ATOM     27  H8  HBH d   1       5.877   4.903   8.475  0.00  0.00     0.036 H 
ATOM     28  H9  HBH d   1       6.159   4.416  10.181  0.00  0.00     0.036 H 
ATOM     29  H10 HBH d   1       4.049   2.974   8.649  0.00  0.00     0.047 H 
ATOM     30  H11 HBH d   1       3.727   4.678   9.118  0.00  0.00     0.047 H 
ATOM     31  H12 HBH d   1       3.214   2.271  12.947  0.00  0.00     0.088 H 
ATOM     32  H21 HBH d   1       7.235   2.902  13.839  0.00  0.00     0.084 H 
ATOM     33  H22 HBH d   1       7.500   4.025  11.662  0.00  0.00     0.087 H 
ATOM     34  H23 HBH d   1       3.742   1.411  10.124  0.00  0.00     0.163 HD
ATOM     35  H28 HBH d   1       4.689   1.573  14.178  0.00  0.00     0.163 HD
ENDROOT
BRANCH   1  36
ATOM     36  C23 HBH d   1       5.300  -0.529  15.929  0.00  0.00     0.071 C 
ATOM     37  H29 HBH d   1       4.280  -0.938  15.967  0.00  0.00     0.088 H 
BRANCH  36  38
ATOM     38  O24 HBH d   1       5.335   0.712  16.641  0.00  0.00    -0.392 OA
ATOM     39  H30 HBH d   1       5.096   0.562  17.548  0.00  0.00     0.210 HD
ENDBRANCH  36  38
BRANCH  36  40
ATOM     40  C25 HBH d   1       6.259  -1.522  16.599  0.00  0.00     0.031 C 
ATOM     41  H31 HBH d   1       7.284  -1.130  16.517  0.00  0.00     0.069 H 
ATOM     42  H32 HBH d   1       5.985  -1.613  17.660  0.00  0.00     0.069 H 
BRANCH  40  43
ATOM     43  N26 HBH d   1       6.217  -2.861  15.985  0.00  0.00    -0.304 N 
BRANCH  43  44
ATOM     44  C27 HBH d   1       5.227  -3.606  16.774  0.00  0.00     0.006 C 
ATOM     45  H13 HBH d   1       4.959  -3.058  17.689  0.00  0.00     0.065 H 
ATOM     46  H14 HBH d   1       5.606  -4.603  17.042  0.00  0.00     0.065 H 
BRANCH  44  47
ATOM     47  C28 HBH d   1       4.036  -3.710  15.831  0.00  0.00    -0.047 C 
ATOM     48  H33 HBH d   1       4.304  -4.394  15.012  0.00  0.00     0.035 H 
ATOM     49  H34 HBH d   1       3.833  -2.709  15.422  0.00  0.00     0.035 H 
BRANCH  47  50
ATOM     50  C29 HBH d   1       2.757  -4.227  16.485  0.00  0.00    -0.060 C 
ATOM     51  H35 HBH d   1       2.393  -3.474  17.200  0.00  0.00     0.038 H 
BRANCH  50  52
ATOM     52  C30 HBH d   1       1.691  -4.447  15.420  0.00  0.00    -0.073 C 
ATOM     53  H15 HBH d   1       0.771  -4.819  15.894  0.00  0.00     0.028 H 
ATOM     54  H16 HBH d   1       2.051  -5.185  14.688  0.00  0.00     0.028 H 
ATOM     55  H17 HBH d   1       1.481  -3.496  14.909  0.00  0.00     0.028 H 
ENDBRANCH  50  52
BRANCH  50  56
ATOM     56  C31 HBH d   1       3.042  -5.515  17.238  0.00  0.00    -0.073 C 
ATOM     57  H18 HBH d   1       3.813  -5.331  18.000  0.00  0.00     0.028 H 
ATOM     58  H19 HBH d   1       3.398  -6.281  16.533  0.00  0.00     0.028 H 
ATOM     59  H20 HBH d   1       2.121  -5.866  17.726  0.00  0.00     0.028 H 
ENDBRANCH  50  56
ENDBRANCH  47  50
ENDBRANCH  44  47
ENDBRANCH  43  44
BRANCH  43  60
ATOM     60  S32 HBH d   1       7.312  -3.655  15.054  0.00  0.00     0.260 S 
ATOM     61  O33 HBH d   1       8.127  -2.670  14.356  0.00  0.00    -0.200 OA
ATOM     62  O34 HBH d   1       6.606  -4.485  14.082  0.00  0.00    -0.200 OA
BRANCH  60  63
ATOM     63  C35 HBH d   1       8.290  -4.591  15.991  0.00  0.00     0.079 A 
ATOM     64  C36 HBH d   1       9.322  -4.008  16.721  0.00  0.00    -0.060 A 
ATOM     65  C37 HBH d   1      10.160  -4.787  17.515  0.00  0.00    -0.082 A 
ATOM     66  H36 HBH d   1       9.475  -2.936  16.671  0.00  0.00     0.085 H 
ATOM     67  C38 HBH d   1       9.968  -6.165  17.578  0.00  0.00    -0.083 A 
ATOM     68  H37 HBH d   1      10.959  -4.322  18.082  0.00  0.00     0.083 H 
ATOM     69  C39 HBH d   1       8.939  -6.759  16.853  0.00  0.00    -0.082 A 
ATOM     70  H38 HBH d   1      10.620  -6.775  18.192  0.00  0.00     0.083 H 
ATOM     71  C40 HBH d   1       8.105  -5.970  16.063  0.00  0.00    -0.060 A 
ATOM     72  H39 HBH d   1       8.787  -7.831  16.903  0.00  0.00     0.083 H 
ATOM     73  H40 HBH d   1       7.304  -6.434  15.499  0.00  0.00     0.085 H 
ENDBRANCH  60  63
ENDBRANCH  43  60
ENDBRANCH  40  43
ENDBRANCH  36  40
ENDBRANCH   1  36
BRANCH  10  74
ATOM     74  C17 HBH d   1       1.766   0.975  12.035  0.00  0.00     0.036 C 
ATOM     75  H24 HBH d   1       1.393   0.622  13.008  0.00  0.00     0.051 H 
ATOM     76  H25 HBH d   1       1.752   0.144  11.314  0.00  0.00     0.051 H 
BRANCH  74  77
ATOM     77  C18 HBH d   1       0.869   2.068  11.536  0.00  0.00     0.217 C 
ATOM     78  O19 HBH d   1       0.418   2.921  12.306  0.00  0.00    -0.274 OA
ATOM     79  N19 HBH d   1       0.804   2.197  10.232  0.00  0.00    -0.370 N 
ATOM     80  H26 HBH d   1       0.225   2.905   9.828  0.00  0.00     0.159 HD
ATOM     81  H27 HBH d   1       1.333   1.587   9.642  0.00  0.00     0.159 HD
ENDBRANCH  74  77
ENDBRANCH  10  74
TORSDOF 13
