REMARK  19 active torsions:
REMARK  status: ('A' for Active; 'I' for Inactive)
REMARK    1  A    between atoms: C70_62  and  C71_61 
REMARK    2  A    between atoms: C54_63  and  C70_62 
REMARK    3  A    between atoms: C54_63  and  O72_64 
REMARK    4  A    between atoms: C68_82  and  C73_83 
REMARK    5  A    between atoms: C15_87  and  C68_82 
REMARK    6  A    between atoms: C73_83  and  O75_85 
REMARK    7  A    between atoms: O75_85  and  C76_86 
REMARK    8  A    between atoms: C5_98  and  C20_99 
REMARK    9  A    between atoms: C20_99  and  C21_100 
REMARK   10  A    between atoms: C4_101  and  O28_102 
REMARK   11  A    between atoms: O28_102  and  C29_103 
REMARK   12  A    between atoms: C29_103  and  C30_104 
REMARK   13  A    between atoms: C3_106  and  C23_107 
REMARK   14  A    between atoms: C3_106  and  O27_111 
REMARK   15  A    between atoms: C23_107  and  O25_109 
REMARK   16  A    between atoms: O25_109  and  C26_110 
REMARK   17  A    between atoms: N1_113  and  C22_114 
REMARK   18  A    between atoms: O32_118  and  C16_117 
REMARK   19  A    between atoms: O32_118  and  C33_119 
ROOT
ATOM      1  H29 VLB d   1      88.275  70.769 -12.540  0.00  0.00     0.085 H 
ATOM      2  H30 VLB d   1      86.383  71.685 -14.182  0.00  0.00     0.088 H 
ATOM      3  H31 VLB d   1      86.867  74.401 -11.451  0.00  0.00     0.037 H 
ATOM      4  H32 VLB d   1      87.631  72.786 -11.270  0.00  0.00     0.037 H 
ATOM      5  H33 VLB d   1      84.890  73.126 -11.160  0.00  0.00     0.076 H 
ATOM      6  H34 VLB d   1      85.635  71.636 -11.831  0.00  0.00     0.076 H 
ATOM      7  H35 VLB d   1      84.823  74.065 -13.323  0.00  0.00     0.280 HD
ATOM      8  H36 VLB d   1      83.141  72.326 -13.014  0.00  0.00     0.082 H 
ATOM      9  H37 VLB d   1      84.317  71.196 -13.767  0.00  0.00     0.082 H 
ATOM     10  H38 VLB d   1      82.612  72.707 -15.264  0.00  0.00     0.079 H 
ATOM     11  H39 VLB d   1      84.283  73.595 -16.795  0.00  0.00     0.077 H 
ATOM     12  H45 VLB d   1      87.447  74.684 -16.290  0.00  0.00     0.091 H 
ATOM     13  H53 VLB d   1      88.159  75.410 -12.937  0.00  0.00     0.071 H 
ATOM     14  H57 VLB d   1      91.306  73.308 -15.468  0.00  0.00     0.090 H 
ATOM     15  C15 VLB d   1      90.151  70.741 -13.570  0.00  0.00     0.000 A 
ATOM     16  C14 VLB d   1      88.950  71.323 -13.183  0.00  0.00    -0.064 A 
ATOM     17  C13 VLB d   1      88.597  72.593 -13.600  0.00  0.00    -0.024 A 
ATOM     18  C12 VLB d   1      87.371  73.428 -13.344  0.00  0.00     0.040 C 
ATOM     19  C19 VLB d   1      86.223  72.772 -14.122  0.00  0.00     0.130 C 
ATOM     20  C11 VLB d   1      86.934  73.387 -11.872  0.00  0.00    -0.028 C 
ATOM     21  C10 VLB d   1      85.557  72.728 -11.939  0.00  0.00     0.085 C 
ATOM     22  N9  VLB d   1      85.083  73.092 -13.274  0.00  0.00    -0.061 N 
ATOM     23  C8  VLB d   1      83.993  72.245 -13.705  0.00  0.00     0.099 C 
ATOM     24  C7  VLB d   1      83.655  72.724 -14.952  0.00  0.00    -0.081 C 
ATOM     25  C6  VLB d   1      84.620  73.231 -15.825  0.00  0.00    -0.092 C 
ATOM     26  C5  VLB d   1      85.984  73.305 -15.544  0.00  0.00     0.037 C 
ATOM     27  C4  VLB d   1      86.478  74.756 -15.774  0.00  0.00     0.101 C 
ATOM     28  C3  VLB d   1      86.691  75.594 -14.527  0.00  0.00     0.190 C 
ATOM     29  C2  VLB d   1      87.809  74.815 -13.793  0.00  0.00     0.054 C 
ATOM     30  N1  VLB d   1      88.919  74.503 -14.720  0.00  0.00    -0.278 NA
ATOM     31  C18 VLB d   1      89.437  73.312 -14.430  0.00  0.00     0.020 A 
ATOM     32  C17 VLB d   1      90.640  72.749 -14.821  0.00  0.00    -0.029 A 
ATOM     33  C16 VLB d   1      91.004  71.483 -14.398  0.00  0.00     0.077 A 
ENDROOT
BRANCH  15  34
ATOM     34  C68 VLB d   1      90.501  69.311 -13.047  0.00  0.00     0.121 C 
ATOM     35  C51 VLB d   1      91.391  69.521 -11.812  0.00  0.00    -0.035 C 
ATOM     36  H12 VLB d   1      91.495  68.547 -11.312  0.00  0.00     0.036 H 
ATOM     37  H13 VLB d   1      92.376  69.857 -12.169  0.00  0.00     0.036 H 
ATOM     38  C52 VLB d   1      90.913  70.533 -10.756  0.00  0.00    -0.026 C 
ATOM     39  H11 VLB d   1      90.699  71.466 -11.298  0.00  0.00     0.042 H 
ATOM     40  C53 VLB d   1      92.049  70.810  -9.786  0.00  0.00    -0.030 C 
ATOM     41  C69 VLB d   1      89.638  70.193  -9.977  0.00  0.00     0.087 C 
ATOM     42  H9  VLB d   1      92.989  70.891 -10.351  0.00  0.00     0.038 H 
ATOM     43  H10 VLB d   1      91.851  71.759  -9.266  0.00  0.00     0.038 H 
ATOM     44  C54 VLB d   1      92.186  69.700  -8.754  0.00  0.00     0.082 C 
ATOM     45  C55 VLB d   1      90.810  69.444  -8.087  0.00  0.00     0.111 C 
ATOM     46  H7  VLB d   1      90.472  70.365  -7.590  0.00  0.00     0.080 H 
ATOM     47  H8  VLB d   1      90.913  68.642  -7.341  0.00  0.00     0.080 H 
ATOM     48  N56 VLB d   1      89.818  69.045  -9.089  0.00  0.00    -0.068 N 
ATOM     49  H16 VLB d   1      88.927  68.863  -8.655  0.00  0.00     0.280 HD
ATOM     50  C57 VLB d   1      90.339  67.760  -9.597  0.00  0.00     0.087 C 
ATOM     51  H17 VLB d   1      90.469  67.106  -8.722  0.00  0.00     0.076 H 
ATOM     52  H18 VLB d   1      91.321  67.975 -10.043  0.00  0.00     0.076 H 
ATOM     53  C58 VLB d   1      89.565  66.959 -10.622  0.00  0.00    -0.015 C 
ATOM     54  H19 VLB d   1      88.726  66.521 -10.062  0.00  0.00     0.042 H 
ATOM     55  H20 VLB d   1      90.254  66.160 -10.935  0.00  0.00     0.042 H 
ATOM     56  C59 VLB d   1      88.949  67.468 -11.911  0.00  0.00    -0.020 A 
ATOM     57  C60 VLB d   1      87.740  66.930 -12.282  0.00  0.00    -0.001 A 
ATOM     58  C67 VLB d   1      89.273  68.410 -12.900  0.00  0.00     0.040 A 
ATOM     59  C61 VLB d   1      86.945  65.969 -11.674  0.00  0.00    -0.070 A 
ATOM     60  C65 VLB d   1      87.358  67.525 -13.465  0.00  0.00     0.043 A 
ATOM     61  H21 VLB d   1      87.261  65.506 -10.746  0.00  0.00     0.084 H 
ATOM     62  C62 VLB d   1      85.747  65.606 -12.261  0.00  0.00    -0.082 A 
ATOM     63  H22 VLB d   1      85.108  64.866 -11.793  0.00  0.00     0.083 H 
ATOM     64  C63 VLB d   1      85.375  66.202 -13.456  0.00  0.00    -0.081 A 
ATOM     65  H23 VLB d   1      84.443  65.911 -13.927  0.00  0.00     0.083 H 
ATOM     66  C64 VLB d   1      86.173  67.166 -14.063  0.00  0.00    -0.056 A 
ATOM     67  H24 VLB d   1      85.865  67.628 -14.994  0.00  0.00     0.086 H 
ATOM     68  N66 VLB d   1      88.290  68.381 -13.812  0.00  0.00    -0.357 N 
ATOM     69  H25 VLB d   1      88.269  68.953 -14.668  0.00  0.00     0.166 HD
ATOM     70  H14 VLB d   1      88.836  69.963 -10.694  0.00  0.00     0.076 H 
ATOM     71  H15 VLB d   1      89.350  71.066  -9.373  0.00  0.00     0.076 H 
BRANCH  44  72
ATOM     72  C70 VLB d   1      93.184  70.064  -7.662  0.00  0.00    -0.038 C 
ATOM     73  H4  VLB d   1      92.757  70.878  -7.058  0.00  0.00     0.036 H 
ATOM     74  H5  VLB d   1      93.342  69.180  -7.027  0.00  0.00     0.036 H 
BRANCH  72  75
ATOM     75  C71 VLB d   1      94.535  70.520  -8.199  0.00  0.00    -0.074 C 
ATOM     76  H1  VLB d   1      95.200  70.765  -7.358  0.00  0.00     0.027 H 
ATOM     77  H2  VLB d   1      94.397  71.411  -8.829  0.00  0.00     0.027 H 
ATOM     78  H3  VLB d   1      94.983  69.713  -8.798  0.00  0.00     0.027 H 
ENDBRANCH  72  75
ENDBRANCH  44  72
BRANCH  44  79
ATOM     79  O72 VLB d   1      92.697  68.556  -9.419  0.00  0.00    -0.388 OA
ATOM     80  H6  VLB d   1      93.545  68.762  -9.794  0.00  0.00     0.210 HD
ENDBRANCH  44  79
BRANCH  34  81
ATOM     81  C73 VLB d   1      91.189  68.551 -14.168  0.00  0.00     0.278 C 
ATOM     82  O74 VLB d   1      90.707  68.584 -15.307  0.00  0.00    -0.264 OA
BRANCH  81  83
ATOM     83  O75 VLB d   1      92.302  67.813 -13.893  0.00  0.00    -0.325 OA
BRANCH  83  84
ATOM     84  C76 VLB d   1      92.698  67.067 -15.061  0.00  0.00     0.013 C 
ATOM     85  H26 VLB d   1      93.596  66.475 -14.831  0.00  0.00     0.067 H 
ATOM     86  H27 VLB d   1      92.919  67.763 -15.883  0.00  0.00     0.067 H 
ATOM     87  H28 VLB d   1      91.881  66.394 -15.360  0.00  0.00     0.067 H 
ENDBRANCH  83  84
ENDBRANCH  81  83
ENDBRANCH  34  81
ENDBRANCH  15  34
BRANCH  33  88
ATOM     88  O32 VLB d   1      92.190  70.981 -14.811  0.00  0.00    -0.355 OA
BRANCH  88  89
ATOM     89  C33 VLB d   1      92.797  71.755 -15.842  0.00  0.00     0.010 C 
ATOM     90  H58 VLB d   1      93.753  71.295 -16.131  0.00  0.00     0.066 H 
ATOM     91  H59 VLB d   1      92.977  72.776 -15.476  0.00  0.00     0.066 H 
ATOM     92  H60 VLB d   1      92.129  71.791 -16.715  0.00  0.00     0.066 H 
ENDBRANCH  88  89
ENDBRANCH  33  88
BRANCH  30  93
ATOM     93  C22 VLB d   1      89.996  75.444 -14.417  0.00  0.00    -0.028 C 
ATOM     94  H54 VLB d   1      90.849  75.252 -15.084  0.00  0.00     0.048 H 
ATOM     95  H55 VLB d   1      90.312  75.316 -13.371  0.00  0.00     0.048 H 
ATOM     96  H56 VLB d   1      89.637  76.473 -14.568  0.00  0.00     0.048 H 
ENDBRANCH  30  93
BRANCH  26  97
ATOM     97  C20 VLB d   1      86.750  72.458 -16.553  0.00  0.00    -0.054 C 
ATOM     98  H40 VLB d   1      87.674  72.089 -16.083  0.00  0.00     0.034 H 
ATOM     99  H41 VLB d   1      87.005  73.081 -17.423  0.00  0.00     0.034 H 
BRANCH  97 100
ATOM    100  C21 VLB d   1      85.923  71.271 -17.019  0.00  0.00    -0.075 C 
ATOM    101  H42 VLB d   1      86.503  70.682 -17.744  0.00  0.00     0.027 H 
ATOM    102  H43 VLB d   1      84.999  71.632 -17.495  0.00  0.00     0.027 H 
ATOM    103  H44 VLB d   1      85.668  70.640 -16.155  0.00  0.00     0.027 H 
ENDBRANCH  97 100
ENDBRANCH  26  97
BRANCH  28 104
ATOM    104  C23 VLB d   1      87.035  77.130 -14.767  0.00  0.00     0.297 C 
ATOM    105  O24 VLB d   1      87.329  77.876 -13.817  0.00  0.00    -0.262 OA
BRANCH 104 106
ATOM    106  O25 VLB d   1      87.009  77.707 -16.021  0.00  0.00    -0.324 OA
BRANCH 106 107
ATOM    107  C26 VLB d   1      87.648  79.023 -16.092  0.00  0.00     0.013 C 
ATOM    108  H49 VLB d   1      87.582  79.407 -17.120  0.00  0.00     0.067 H 
ATOM    109  H50 VLB d   1      88.705  78.934 -15.801  0.00  0.00     0.067 H 
ATOM    110  H51 VLB d   1      87.137  79.716 -15.408  0.00  0.00     0.067 H 
ENDBRANCH 106 107
ENDBRANCH 104 106
ENDBRANCH  28 104
BRANCH  28 111
ATOM    111  O27 VLB d   1      85.479  75.531 -13.780  0.00  0.00    -0.376 OA
ATOM    112  H52 VLB d   1      84.783  75.952 -14.271  0.00  0.00     0.211 HD
ENDBRANCH  28 111
BRANCH  27 113
ATOM    113  O28 VLB d   1      85.591  75.447 -16.594  0.00  0.00    -0.311 OA
BRANCH 113 114
ATOM    114  C29 VLB d   1      86.184  75.380 -17.801  0.00  0.00     0.255 C 
ATOM    115  O31 VLB d   1      87.412  75.300 -17.846  0.00  0.00    -0.266 OA
BRANCH 114 116
ATOM    116  C30 VLB d   1      85.401  75.382 -18.954  0.00  0.00     0.004 C 
ATOM    117  H46 VLB d   1      86.052  75.322 -19.839  0.00  0.00     0.041 H 
ATOM    118  H47 VLB d   1      84.811  76.309 -18.995  0.00  0.00     0.041 H 
ATOM    119  H48 VLB d   1      84.723  74.516 -18.938  0.00  0.00     0.041 H 
ENDBRANCH 114 116
ENDBRANCH 113 114
ENDBRANCH  27 113
TORSDOF 19
