REMARK  5 active torsions:
REMARK  status: ('A' for Active; 'I' for Inactive)
REMARK    1  A    between atoms: O5'_1  and  C5'_2 
REMARK    2  A    between atoms: C5'_2  and  C4'_3 
REMARK    3  A    between atoms: C1'_5  and  N9_6 
REMARK    4  A    between atoms: C6_12  and  N6_13 
REMARK    5  A    between atoms: C3'_18  and  O3'_19 
ROOT
ATOM      1  C4' 2FD d   1     -16.870 -41.765  -5.339  0.00  0.00     0.086 C 
ATOM      2  O4' 2FD d   1     -16.141 -42.961  -5.802  0.00  0.00    -0.356 OA
ATOM      3  C1' 2FD d   1     -15.286 -42.654  -6.928  0.00  0.00     0.115 C 
ATOM      4  C2' 2FD d   1     -15.108 -41.109  -6.809  0.00  0.00     0.002 C 
ATOM      5  C3' 2FD d   1     -15.910 -40.596  -5.577  0.00  0.00     0.066 C 
ATOM      6  H4  2FD d   1     -17.035 -41.865  -4.256  0.00  0.00     0.090 H 
ATOM      7  H5  2FD d   1     -14.306 -43.149  -6.855  0.00  0.00     0.118 H 
ATOM      8  H9  2FD d   1     -15.485 -40.624  -7.721  0.00  0.00     0.043 H 
ATOM      9  H10 2FD d   1     -14.042 -40.870  -6.680  0.00  0.00     0.043 H 
ATOM     10  H11 2FD d   1     -16.427 -39.650  -5.793  0.00  0.00     0.087 H 
ENDROOT
BRANCH   3  11
ATOM     11  N9  2FD d   1     -16.025 -43.180  -8.155  0.00  0.00    -0.296 N 
ATOM     12  C4  2FD d   1     -16.773 -42.569  -9.166  0.00  0.00     0.170 A 
ATOM     13  N3  2FD d   1     -17.056 -41.230  -9.332  0.00  0.00    -0.182 NA
ATOM     14  C5  2FD d   1     -17.201 -43.574 -10.004  0.00  0.00     0.149 A 
ATOM     15  C2  2FD d   1     -17.817 -40.950 -10.420  0.00  0.00     0.313 A 
ATOM     16  F   2FD d   1     -18.134 -39.711 -10.652  0.00  0.00    -0.161 F 
ATOM     17  N1  2FD d   1     -18.289 -41.850 -11.304  0.00  0.00    -0.183 NA
ATOM     18  C6  2FD d   1     -17.998 -43.169 -11.121  0.00  0.00     0.159 A 
ATOM     19  N7  2FD d   1     -16.755 -44.789  -9.567  0.00  0.00    -0.236 NA
ATOM     20  C8  2FD d   1     -16.091 -44.469  -8.503  0.00  0.00     0.070 A 
ATOM     21  H8  2FD d   1     -15.597 -45.233  -7.904  0.00  0.00     0.144 H 
BRANCH  18  22
ATOM     22  N6  2FD d   1     -18.469 -44.028 -11.994  0.00  0.00    -0.382 N 
ATOM     23  H6  2FD d   1     -18.269 -45.033 -11.887  0.00  0.00     0.157 HD
ATOM     24  H7  2FD d   1     -19.039 -43.697 -12.786  0.00  0.00     0.157 HD
ENDBRANCH  18  22
ENDBRANCH   3  11
BRANCH   1  25
ATOM     25  C5' 2FD d   1     -18.261 -41.553  -5.976  0.00  0.00     0.043 C 
ATOM     26  H2  2FD d   1     -18.724 -40.655  -5.541  0.00  0.00     0.078 H 
ATOM     27  H3  2FD d   1     -18.144 -41.416  -7.061  0.00  0.00     0.078 H 
BRANCH  25  28
ATOM     28  O5' 2FD d   1     -19.101 -42.676  -5.735  0.00  0.00    -0.398 OA
ATOM     29  H1  2FD d   1     -19.950 -42.526  -6.134  0.00  0.00     0.209 HD
ENDBRANCH  25  28
ENDBRANCH   1  25
BRANCH   5  30
ATOM     30  O3' 2FD d   1     -15.123 -40.479  -4.417  0.00  0.00    -0.393 OA
ATOM     31  H12 2FD d   1     -14.415 -39.866  -4.576  0.00  0.00     0.210 HD
ENDBRANCH   5  30
TORSDOF 5
