REMARK  12 active torsions:
REMARK  status: ('A' for Active; 'I' for Inactive)
REMARK    1  A    between atoms: CA_2  and  N_1 
REMARK    2  A    between atoms: CA_2  and  C_3 
REMARK    3  A    between atoms: CB_6  and  CA_2 
REMARK    4  A    between atoms: CG_7  and  CB_6 
REMARK    5  A    between atoms: CG_7  and  ND_8 
REMARK    6  A    between atoms: ND_8  and  C5_10 
REMARK    7  A    between atoms: ND_8  and  CE_9 
REMARK    8  A    between atoms: C5_10  and  C4_11 
REMARK    9  A    between atoms: C3_13  and  O3_14 
REMARK   10  A    between atoms: C2_15  and  O2_16 
REMARK   11  A    between atoms: C1_17  and  N9_18 
REMARK   12  A    between atoms: C6_22  and  N6_23 
ROOT
ATOM      1  C4  SA8 d   1      18.004  28.225  89.627  0.00  0.00     0.091 C 
ATOM      2  O4  SA8 d   1      18.056  27.354  88.499  0.00  0.00    -0.354 OA
ATOM      3  C3  SA8 d   1      19.393  28.023  90.250  0.00  0.00     0.091 C 
ATOM      4  C2  SA8 d   1      19.871  26.674  89.734  0.00  0.00     0.105 C 
ATOM      5  C1  SA8 d   1      18.633  26.200  88.953  0.00  0.00     0.139 C 
ATOM      6  H15 SA8 d   1      17.201  27.971  90.335  0.00  0.00     0.090 H 
ATOM      7  H16 SA8 d   1      20.096  28.832  90.003  0.00  0.00     0.091 H 
ATOM      8  H18 SA8 d   1      20.657  26.892  88.996  0.00  0.00     0.093 H 
ATOM      9  H20 SA8 d   1      17.952  25.672  89.636  0.00  0.00     0.122 H 
ENDROOT
BRANCH   1  10
ATOM     10  C5  SA8 d   1      17.804  29.604  89.059  0.00  0.00     0.109 C 
ATOM     11  H13 SA8 d   1      18.680  29.852  88.443  0.00  0.00     0.080 H 
ATOM     12  H14 SA8 d   1      16.904  29.588  88.427  0.00  0.00     0.080 H 
BRANCH  10  13
ATOM     13  ND  SA8 d   1      17.611  30.833  90.235  0.00  0.00    -0.072 N 
ATOM     14  H9  SA8 d   1      18.319  30.860  90.952  0.00  0.00     0.279 HD
BRANCH  13  15
ATOM     15  CE  SA8 d   1      17.431  32.339  89.277  0.00  0.00     0.066 C 
ATOM     16  H10 SA8 d   1      18.409  32.631  88.866  0.00  0.00     0.068 H 
ATOM     17  H11 SA8 d   1      17.051  33.143  89.925  0.00  0.00     0.068 H 
ATOM     18  H12 SA8 d   1      16.723  32.167  88.453  0.00  0.00     0.068 H 
ENDBRANCH  13  15
BRANCH  13  19
ATOM     19  CG  SA8 d   1      15.929  30.538  90.805  0.00  0.00     0.086 C 
ATOM     20  H7  SA8 d   1      15.263  30.627  89.934  0.00  0.00     0.076 H 
ATOM     21  H8  SA8 d   1      15.887  29.511  91.195  0.00  0.00     0.076 H 
BRANCH  19  22
ATOM     22  CB  SA8 d   1      15.411  31.433  91.853  0.00  0.00    -0.006 C 
ATOM     23  H5  SA8 d   1      16.047  31.340  92.746  0.00  0.00     0.039 H 
ATOM     24  H6  SA8 d   1      15.445  32.469  91.484  0.00  0.00     0.039 H 
BRANCH  22  25
ATOM     25  CA  SA8 d   1      13.972  31.091  92.234  0.00  0.00     0.184 C 
ATOM     26  H4  SA8 d   1      13.973  30.587  93.212  0.00  0.00     0.101 H 
BRANCH  25  27
ATOM     27  N   SA8 d   1      13.352  30.167  91.233  0.00  0.00    -0.065 N 
ATOM     28  H1  SA8 d   1      13.893  29.318  91.180  0.00  0.00     0.275 HD
ATOM     29  H2  SA8 d   1      13.336  30.613  90.329  0.00  0.00     0.275 HD
ATOM     30  H3  SA8 d   1      12.410  29.948  91.516  0.00  0.00     0.275 HD
ENDBRANCH  25  27
BRANCH  25  31
ATOM     31  C   SA8 d   1      13.194  32.390  92.354  0.00  0.00     0.204 C 
ATOM     32  O   SA8 d   1      12.194  32.558  91.653  0.00  0.00    -0.646 OA
ATOM     33  OXT SA8 d   1      13.666  33.223  93.201  0.00  0.00    -0.646 OA
ENDBRANCH  25  31
ENDBRANCH  22  25
ENDBRANCH  19  22
ENDBRANCH  13  19
ENDBRANCH  10  13
ENDBRANCH   1  10
BRANCH   3  34
ATOM     34  O3  SA8 d   1      19.148  27.926  91.688  0.00  0.00    -0.390 OA
ATOM     35  H17 SA8 d   1      18.574  27.189  91.861  0.00  0.00     0.210 HD
ENDBRANCH   3  34
BRANCH   5  36
ATOM     36  N9  SA8 d   1      18.914  25.337  87.839  0.00  0.00    -0.294 N 
ATOM     37  C8  SA8 d   1      19.720  25.536  86.755  0.00  0.00     0.071 A 
ATOM     38  N7  SA8 d   1      19.733  24.530  85.926  0.00  0.00    -0.236 NA
ATOM     39  H21 SA8 d   1      20.296  26.447  86.598  0.00  0.00     0.144 H 
ATOM     40  C5  SA8 d   1      18.873  23.605  86.505  0.00  0.00     0.149 A 
ATOM     41  C6  SA8 d   1      18.449  22.299  86.113  0.00  0.00     0.155 A 
ATOM     42  C4  SA8 d   1      18.356  24.092  87.686  0.00  0.00     0.167 A 
ATOM     43  N1  SA8 d   1      17.559  21.614  86.922  0.00  0.00    -0.222 NA
ATOM     44  C2  SA8 d   1      17.132  22.224  88.061  0.00  0.00     0.091 A 
ATOM     45  N3  SA8 d   1      17.475  23.450  88.524  0.00  0.00    -0.222 NA
ATOM     46  H24 SA8 d   1      16.434  21.662  88.671  0.00  0.00     0.146 H 
BRANCH  41  47
ATOM     47  N6  SA8 d   1      18.889  21.711  84.971  0.00  0.00    -0.382 N 
ATOM     48  H22 SA8 d   1      18.562  20.767  84.719  0.00  0.00     0.157 HD
ATOM     49  H23 SA8 d   1      19.549  22.209  84.357  0.00  0.00     0.157 HD
ENDBRANCH  41  47
ENDBRANCH   5  36
BRANCH   4  50
ATOM     50  O2  SA8 d   1      20.478  25.730  90.581  0.00  0.00    -0.388 OA
ATOM     51  H19 SA8 d   1      19.873  25.493  91.274  0.00  0.00     0.210 HD
ENDBRANCH   4  50
TORSDOF 12
