REMARK  11 active torsions:
REMARK  status: ('A' for Active; 'I' for Inactive)
REMARK    1  A    between atoms: C3_3  and  O1_7 
REMARK    2  A    between atoms: C6_6  and  S1_9 
REMARK    3  A    between atoms: O1_7  and  C7_8 
REMARK    4  A    between atoms: S1_9  and  N_12 
REMARK    5  A    between atoms: N_12  and  C9_13 
REMARK    6  A    between atoms: N_12  and  C10_14 
REMARK    7  A    between atoms: C9_13  and  C12_19 
REMARK    8  A    between atoms: C10_14  and  C11_15 
REMARK       I    between atoms: C11_15  and  N1_16 
REMARK    9  A    between atoms: N1_16  and  O4_17 
REMARK   10  A    between atoms: C12_19  and  C13_20 
REMARK   11  A    between atoms: C12_19  and  C14_21 
ROOT
ATOM      1  N   NGH d   1       6.195  -3.267  -8.302  0.00  0.00    -0.298 N 
ENDROOT
BRANCH   1   2
ATOM      2  S1  NGH d   1       6.804  -4.836  -7.720  0.00  0.00     0.261 S 
ATOM      3  O2  NGH d   1       8.261  -4.940  -7.981  0.00  0.00    -0.200 OA
ATOM      4  O3  NGH d   1       5.998  -5.949  -8.259  0.00  0.00    -0.200 OA
BRANCH   2   5
ATOM      5  C6  NGH d   1       6.582  -4.764  -5.932  0.00  0.00     0.079 A 
ATOM      6  C1  NGH d   1       5.886  -5.760  -5.256  0.00  0.00    -0.058 A 
ATOM      7  C2  NGH d   1       5.723  -5.731  -3.880  0.00  0.00    -0.049 A 
ATOM      8  H1  NGH d   1       5.459  -6.581  -5.820  0.00  0.00     0.086 H 
ATOM      9  C3  NGH d   1       6.272  -4.679  -3.157  0.00  0.00     0.068 A 
ATOM     10  H2  NGH d   1       5.175  -6.518  -3.375  0.00  0.00     0.087 H 
ATOM     11  C4  NGH d   1       6.976  -3.668  -3.815  0.00  0.00    -0.049 A 
ATOM     12  C5  NGH d   1       7.122  -3.723  -5.187  0.00  0.00    -0.058 A 
ATOM     13  H3  NGH d   1       7.405  -2.846  -3.253  0.00  0.00     0.087 H 
ATOM     14  H4  NGH d   1       7.670  -2.937  -5.694  0.00  0.00     0.086 H 
BRANCH   9  15
ATOM     15  O1  NGH d   1       6.198  -4.529  -1.787  0.00  0.00    -0.356 OA
BRANCH  15  16
ATOM     16  C7  NGH d   1       7.320  -3.992  -1.133  0.00  0.00     0.010 C 
ATOM     17  H5  NGH d   1       7.120  -3.931  -0.053  0.00  0.00     0.066 H 
ATOM     18  H6  NGH d   1       7.526  -2.985  -1.526  0.00  0.00     0.066 H 
ATOM     19  H7  NGH d   1       8.192  -4.640  -1.308  0.00  0.00     0.066 H 
ENDBRANCH  15  16
ENDBRANCH   9  15
ENDBRANCH   2   5
ENDBRANCH   1   2
BRANCH   1  20
ATOM     20  C9  NGH d   1       7.060  -2.380  -9.135  0.00  0.00     0.009 C 
ATOM     21  H8  NGH d   1       8.105  -2.519  -8.821  0.00  0.00     0.066 H 
ATOM     22  H9  NGH d   1       6.760  -1.337  -8.959  0.00  0.00     0.066 H 
BRANCH  20  23
ATOM     23  C12 NGH d   1       6.963  -2.665 -10.638  0.00  0.00    -0.045 C 
ATOM     24  H14 NGH d   1       5.904  -2.674 -10.935  0.00  0.00     0.041 H 
BRANCH  23  25
ATOM     25  C13 NGH d   1       7.581  -4.007 -10.993  0.00  0.00    -0.072 C 
ATOM     26  H15 NGH d   1       7.493  -4.176 -12.076  0.00  0.00     0.028 H 
ATOM     27  H16 NGH d   1       7.054  -4.808 -10.453  0.00  0.00     0.028 H 
ATOM     28  H17 NGH d   1       8.643  -4.009 -10.707  0.00  0.00     0.028 H 
ENDBRANCH  23  25
BRANCH  23  29
ATOM     29  C14 NGH d   1       7.686  -1.551 -11.379  0.00  0.00    -0.072 C 
ATOM     30  H18 NGH d   1       7.234  -0.583 -11.117  0.00  0.00     0.028 H 
ATOM     31  H19 NGH d   1       7.599  -1.715 -12.463  0.00  0.00     0.028 H 
ATOM     32  H20 NGH d   1       8.748  -1.549 -11.092  0.00  0.00     0.028 H 
ENDBRANCH  23  29
ENDBRANCH  20  23
ENDBRANCH   1  20
BRANCH   1  33
ATOM     33  C10 NGH d   1       5.094  -2.550  -7.543  0.00  0.00     0.081 C 
ATOM     34  H10 NGH d   1       4.565  -3.277  -6.909  0.00  0.00     0.080 H 
ATOM     35  H11 NGH d   1       4.389  -2.112  -8.265  0.00  0.00     0.080 H 
BRANCH  33  36
ATOM     36  C11 NGH d   1       5.645  -1.457  -6.676  0.00  0.00     0.259 C 
ATOM     37  N1  NGH d   1       4.866  -0.552  -6.071  0.00  0.00    -0.236 N 
ATOM     38  H12 NGH d   1       3.884  -0.739  -6.091  0.00  0.00     0.197 HD
ATOM     39  O5  NGH d   1       6.910  -1.298  -6.650  0.00  0.00    -0.270 OA
BRANCH  37  40
ATOM     40  O4  NGH d   1       5.223   0.539  -5.460  0.00  0.00    -0.287 OA
ATOM     41  H13 NGH d   1       5.800   0.322  -4.737  0.00  0.00     0.244 HD
ENDBRANCH  37  40
ENDBRANCH  33  36
ENDBRANCH   1  33
TORSDOF 11
