REMARK  12 active torsions:
REMARK  status: ('A' for Active; 'I' for Inactive)
REMARK    1  A    between atoms: O4'_21  and  C1_1 
REMARK    2  A    between atoms: C2_2  and  O2_7 
REMARK    3  A    between atoms: C3_3  and  O3_8 
REMARK    4  A    between atoms: C4_4  and  O4_9 
REMARK    5  A    between atoms: C5_5  and  C6_6 
REMARK    6  A    between atoms: C6_6  and  O6_11 
REMARK    7  A    between atoms: C1'_12  and  O1'_18 
REMARK    8  A    between atoms: C2'_13  and  O2'_19 
REMARK    9  A    between atoms: C3'_14  and  O3'_20 
REMARK   10  A    between atoms: C4'_15  and  O4'_21 
REMARK   11  A    between atoms: C5'_16  and  C6'_17 
REMARK   12  A    between atoms: C6'_17  and  O6'_23 
ROOT
ATOM      1  O4' NON d   1       3.056  11.998  23.003  0.00  0.00    -0.348 OA
ENDROOT
BRANCH   1   2
ATOM      2  C1  NON d   1       3.013  10.767  23.645  0.00  0.00     0.159 C 
ATOM      3  C2  NON d   1       4.247   9.897  23.241  0.00  0.00     0.110 C 
ATOM      4  C3  NON d   1       4.206   8.656  24.107  0.00  0.00     0.092 C 
ATOM      5  H2  NON d   1       5.154  10.468  23.488  0.00  0.00     0.094 H 
ATOM      6  C4  NON d   1       4.064   9.007  25.554  0.00  0.00     0.090 C 
ATOM      7  H3  NON d   1       3.308   8.093  23.813  0.00  0.00     0.091 H 
ATOM      8  C5  NON d   1       2.822   9.865  25.789  0.00  0.00     0.089 C 
ATOM      9  H4  NON d   1       4.954   9.558  25.891  0.00  0.00     0.091 H 
ATOM     10  O5  NON d   1       3.024  11.059  25.059  0.00  0.00    -0.348 OA
ATOM     11  H5  NON d   1       1.931   9.332  25.425  0.00  0.00     0.090 H 
ATOM     12  H1  NON d   1       2.090  10.231  23.377  0.00  0.00     0.133 H 
BRANCH   3  13
ATOM     13  O2  NON d   1       4.339   9.546  21.817  0.00  0.00    -0.388 OA
ATOM     14  H8  NON d   1       4.363  10.341  21.297  0.00  0.00     0.210 HD
ENDBRANCH   3  13
BRANCH   4  15
ATOM     15  O3  NON d   1       5.342   7.774  23.919  0.00  0.00    -0.390 OA
ATOM     16  H9  NON d   1       5.211   6.979  24.422  0.00  0.00     0.210 HD
ENDBRANCH   4  15
BRANCH   6  17
ATOM     17  O4  NON d   1       3.945   7.771  26.283  0.00  0.00    -0.390 OA
ATOM     18  H10 NON d   1       4.719   7.241  26.134  0.00  0.00     0.210 HD
ENDBRANCH   6  17
BRANCH   8  19
ATOM     19  C6  NON d   1       2.621  10.241  27.248  0.00  0.00     0.043 C 
ATOM     20  H6  NON d   1       2.433   9.331  27.837  0.00  0.00     0.078 H 
ATOM     21  H7  NON d   1       1.759  10.919  27.335  0.00  0.00     0.078 H 
BRANCH  19  22
ATOM     22  O6  NON d   1       3.761  10.878  27.733  0.00  0.00    -0.398 OA
ATOM     23  H11 NON d   1       3.923  11.664  27.225  0.00  0.00     0.209 HD
ENDBRANCH  19  22
ENDBRANCH   8  19
ENDBRANCH   1   2
BRANCH   1  24
ATOM     24  C4' NON d   1       1.888  12.772  22.889  0.00  0.00     0.096 C 
ATOM     25  C3' NON d   1       2.091  14.144  23.586  0.00  0.00     0.092 C 
ATOM     26  C2' NON d   1       0.942  15.046  23.280  0.00  0.00     0.110 C 
ATOM     27  H14 NON d   1       3.023  14.603  23.224  0.00  0.00     0.091 H 
ATOM     28  C1' NON d   1       0.707  15.107  21.789  0.00  0.00     0.156 C 
ATOM     29  H13 NON d   1       0.033  14.722  23.808  0.00  0.00     0.094 H 
ATOM     30  O5' NON d   1       0.524  13.813  21.233  0.00  0.00    -0.349 OA
ATOM     31  H12 NON d   1       1.559  15.598  21.295  0.00  0.00     0.133 H 
ATOM     32  C5' NON d   1       1.655  12.980  21.423  0.00  0.00     0.089 C 
ATOM     33  H16 NON d   1       2.546  13.445  20.976  0.00  0.00     0.090 H 
ATOM     34  H15 NON d   1       1.035  12.247  23.343  0.00  0.00     0.091 H 
BRANCH  25  35
ATOM     35  O3' NON d   1       2.170  13.951  24.975  0.00  0.00    -0.390 OA
ATOM     36  H21 NON d   1       2.904  13.381  25.173  0.00  0.00     0.210 HD
ENDBRANCH  25  35
BRANCH  26  37
ATOM     37  O2' NON d   1       1.354  16.348  23.686  0.00  0.00    -0.388 OA
ATOM     38  H20 NON d   1       0.655  16.968  23.513  0.00  0.00     0.210 HD
ENDBRANCH  26  37
BRANCH  28  39
ATOM     39  O1' NON d   1      -0.477  15.868  21.606  0.00  0.00    -0.369 OA
ATOM     40  H19 NON d   1      -0.356  16.734  21.977  0.00  0.00     0.212 HD
ENDBRANCH  28  39
BRANCH  32  41
ATOM     41  C6' NON d   1       1.356  11.652  20.722  0.00  0.00     0.043 C 
ATOM     42  H17 NON d   1       2.295  11.090  20.610  0.00  0.00     0.078 H 
ATOM     43  H18 NON d   1       0.934  11.862  19.728  0.00  0.00     0.078 H 
BRANCH  41  44
ATOM     44  O6' NON d   1       0.429  10.857  21.456  0.00  0.00    -0.398 OA
ATOM     45  H22 NON d   1       0.271  10.045  20.989  0.00  0.00     0.209 HD
ENDBRANCH  41  44
ENDBRANCH  32  41
ENDBRANCH   1  24
TORSDOF 12
