REMARK  12 active torsions:
REMARK  status: ('A' for Active; 'I' for Inactive)
REMARK    1  A    between atoms: O1_7  and  C1_1 
REMARK    2  A    between atoms: C2_2  and  O2_8 
REMARK    3  A    between atoms: C3_3  and  O3_9 
REMARK    4  A    between atoms: C4_4  and  O4_10 
REMARK    5  A    between atoms: C5_5  and  C6_6 
REMARK    6  A    between atoms: C6_6  and  O6_12 
REMARK    7  A    between atoms: C4'_16  and  O1_7 
REMARK    8  A    between atoms: C1'_13  and  O1'_19 
REMARK    9  A    between atoms: C2'_14  and  O2'_20 
REMARK   10  A    between atoms: C3'_15  and  O3'_21 
REMARK   11  A    between atoms: C5'_17  and  C6'_18 
REMARK   12  A    between atoms: C6'_18  and  O6'_23 
ROOT
ATOM      1  O1  NON d   1       3.222  12.064  22.929  0.00  0.00    -0.348 OA
ENDROOT
BRANCH   1   2
ATOM      2  C1  NON d   1       2.985  10.763  23.502  0.00  0.00     0.159 C 
ATOM      3  C2  NON d   1       4.162   9.839  23.309  0.00  0.00     0.110 C 
ATOM      4  C3  NON d   1       4.079   8.653  24.254  0.00  0.00     0.092 C 
ATOM      5  H2  NON d   1       5.082  10.393  23.547  0.00  0.00     0.094 H 
ATOM      6  C4  NON d   1       3.940   9.086  25.711  0.00  0.00     0.090 C 
ATOM      7  H3  NON d   1       3.198   8.049  23.992  0.00  0.00     0.091 H 
ATOM      8  C5  NON d   1       2.760  10.054  25.847  0.00  0.00     0.089 C 
ATOM      9  H4  NON d   1       3.742   8.201  26.334  0.00  0.00     0.091 H 
ATOM     10  O5  NON d   1       3.049  11.163  25.014  0.00  0.00    -0.348 OA
ATOM     11  H5  NON d   1       1.843   9.554  25.501  0.00  0.00     0.090 H 
ATOM     12  H1  NON d   1       2.038  10.307  23.178  0.00  0.00     0.133 H 
BRANCH   3  13
ATOM     13  O2  NON d   1       4.225   9.446  21.939  0.00  0.00    -0.388 OA
ATOM     14  H8  NON d   1       4.276  10.220  21.391  0.00  0.00     0.210 HD
ENDBRANCH   3  13
BRANCH   4  15
ATOM     15  O3  NON d   1       5.252   7.875  24.055  0.00  0.00    -0.390 OA
ATOM     16  H9  NON d   1       5.211   7.097  24.599  0.00  0.00     0.210 HD
ENDBRANCH   4  15
BRANCH   6  17
ATOM     17  O4  NON d   1       5.159   9.678  26.136  0.00  0.00    -0.390 OA
ATOM     18  H10 NON d   1       5.085   9.933  27.048  0.00  0.00     0.210 HD
ENDBRANCH   6  17
BRANCH   8  19
ATOM     19  C6  NON d   1       2.536  10.543  27.276  0.00  0.00     0.043 C 
ATOM     20  H6  NON d   1       2.453   9.683  27.957  0.00  0.00     0.078 H 
ATOM     21  H7  NON d   1       1.615  11.142  27.327  0.00  0.00     0.078 H 
BRANCH  19  22
ATOM     22  O6  NON d   1       3.649  11.340  27.639  0.00  0.00    -0.398 OA
ATOM     23  H11 NON d   1       4.441  10.818  27.589  0.00  0.00     0.209 HD
ENDBRANCH  19  22
ENDBRANCH   8  19
ENDBRANCH   1   2
BRANCH   1  24
ATOM     24  C4' NON d   1       2.066  12.946  22.749  0.00  0.00     0.096 C 
ATOM     25  C3' NON d   1       1.915  14.044  23.524  0.00  0.00     0.092 C 
ATOM     26  C2' NON d   1       1.150  15.086  23.128  0.00  0.00     0.110 C 
ATOM     27  H14 NON d   1       2.873  14.502  23.237  0.00  0.00     0.091 H 
ATOM     28  C1' NON d   1       0.679  15.123  21.867  0.00  0.00     0.156 C 
ATOM     29  H13 NON d   1       0.216  14.735  23.591  0.00  0.00     0.094 H 
ATOM     30  O5' NON d   1       0.559  13.864  21.160  0.00  0.00    -0.349 OA
ATOM     31  H12 NON d   1       1.599  15.498  21.395  0.00  0.00     0.133 H 
ATOM     32  C5' NON d   1       1.598  12.932  21.502  0.00  0.00     0.089 C 
ATOM     33  H16 NON d   1       2.456  13.408  21.005  0.00  0.00     0.090 H 
ATOM     34  H15 NON d   1       1.297  12.323  23.229  0.00  0.00     0.091 H 
BRANCH  25  35
ATOM     35  O3' NON d   1       2.173  13.952  24.744  0.00  0.00    -0.390 OA
ATOM     36  H21 NON d   1       2.024  14.792  25.162  0.00  0.00     0.210 HD
ENDBRANCH  25  35
BRANCH  26  37
ATOM     37  O2' NON d   1       1.239  16.149  23.779  0.00  0.00    -0.388 OA
ATOM     38  H20 NON d   1       0.656  16.799  23.404  0.00  0.00     0.210 HD
ENDBRANCH  26  37
BRANCH  28  39
ATOM     39  O1' NON d   1      -0.095  15.992  21.436  0.00  0.00    -0.369 OA
ATOM     40  H19 NON d   1       0.092  16.154  20.519  0.00  0.00     0.212 HD
ENDBRANCH  28  39
BRANCH  32  41
ATOM     41  C6' NON d   1       1.522  11.654  20.691  0.00  0.00     0.043 C 
ATOM     42  H17 NON d   1       2.469  11.098  20.760  0.00  0.00     0.078 H 
ATOM     43  H18 NON d   1       1.306  11.881  19.637  0.00  0.00     0.078 H 
BRANCH  41  44
ATOM     44  O6' NON d   1       0.460  10.899  21.264  0.00  0.00    -0.398 OA
ATOM     45  H22 NON d   1       0.365  10.080  20.792  0.00  0.00     0.209 HD
ENDBRANCH  41  44
ENDBRANCH  32  41
ENDBRANCH   1  24
TORSDOF 12
