REMARK  7 active torsions:
REMARK  status: ('A' for Active; 'I' for Inactive)
REMARK    1  A    between atoms: C1_1  and  O1_7 
REMARK    2  A    between atoms: C2_2  and  O2_8 
REMARK    3  A    between atoms: C3_3  and  O3_9 
REMARK    4  A    between atoms: C4_4  and  O4_10 
REMARK    5  A    between atoms: C5_5  and  C6_6 
REMARK    6  A    between atoms: C6_6  and  O6_12 
REMARK    7  A    between atoms: O1_7  and  P_13 
ROOT
ATOM      1  C1  GL1 d   1       5.366  -5.004  12.993  0.00  0.00     0.171 C 
ATOM      2  C2  GL1 d   1       4.177  -4.039  12.981  0.00  0.00     0.110 C 
ATOM      3  C3  GL1 d   1       4.335  -3.004  11.892  0.00  0.00     0.092 C 
ATOM      4  C4  GL1 d   1       5.688  -2.217  12.057  0.00  0.00     0.090 C 
ATOM      5  C5  GL1 d   1       6.815  -3.249  12.069  0.00  0.00     0.089 C 
ATOM      6  O5  GL1 d   1       6.605  -4.226  13.126  0.00  0.00    -0.348 OA
ATOM      7  H1  GL1 d   1       5.264  -5.713  13.828  0.00  0.00     0.134 H 
ATOM      8  H2  GL1 d   1       4.143  -3.520  13.950  0.00  0.00     0.094 H 
ATOM      9  H3  GL1 d   1       4.354  -3.523  10.922  0.00  0.00     0.091 H 
ATOM     10  H4  GL1 d   1       5.833  -1.545  11.198  0.00  0.00     0.091 H 
ATOM     11  H5  GL1 d   1       6.835  -3.769  11.100  0.00  0.00     0.090 H 
ENDROOT
BRANCH   1  12
ATOM     12  O1  GL1 d   1       5.444  -5.705  11.761  0.00  0.00    -0.249 OA
BRANCH  12  13
ATOM     13  P   GL1 d   1       4.880  -7.242  11.572  0.00  0.00     0.424 P 
ATOM     14  O1P GL1 d   1       5.346  -7.881  10.206  0.00  0.00    -0.617 OA
ATOM     15  O2P GL1 d   1       5.498  -7.999  12.819  0.00  0.00    -0.617 OA
ATOM     16  O3P GL1 d   1       3.294  -7.339  11.696  0.00  0.00    -0.617 OA
ENDBRANCH  12  13
ENDBRANCH   1  12
BRANCH   2  17
ATOM     17  O2  GL1 d   1       2.924  -4.772  12.803  0.00  0.00    -0.388 OA
ATOM     18  H8  GL1 d   1       2.930  -5.207  11.958  0.00  0.00     0.210 HD
ENDBRANCH   2  17
BRANCH   3  19
ATOM     19  O3  GL1 d   1       3.236  -2.108  11.897  0.00  0.00    -0.390 OA
ATOM     20  H9  GL1 d   1       3.219  -1.633  12.720  0.00  0.00     0.210 HD
ENDBRANCH   3  19
BRANCH   5  21
ATOM     21  C6  GL1 d   1       8.157  -2.536  12.287  0.00  0.00     0.043 C 
ATOM     22  H6  GL1 d   1       8.899  -3.224  12.719  0.00  0.00     0.078 H 
ATOM     23  H7  GL1 d   1       8.034  -1.666  12.949  0.00  0.00     0.078 H 
BRANCH  21  24
ATOM     24  O6  GL1 d   1       8.543  -2.131  10.999  0.00  0.00    -0.398 OA
ATOM     25  H11 GL1 d   1       9.376  -1.676  11.048  0.00  0.00     0.209 HD
ENDBRANCH  21  24
ENDBRANCH   5  21
BRANCH   4  26
ATOM     26  O4  GL1 d   1       5.620  -1.403  13.277  0.00  0.00    -0.390 OA
ATOM     27  H10 GL1 d   1       5.478  -1.969  14.027  0.00  0.00     0.210 HD
ENDBRANCH   4  26
TORSDOF 7
