REMARK  6 active torsions:
REMARK  status: ('A' for Active; 'I' for Inactive)
REMARK    1  A    between atoms: C1_8  and  CB2_1 
REMARK    2  A    between atoms: CB6_4  and  OAB_15 
REMARK    3  A    between atoms: N_9  and  C2_7 
REMARK    4  A    between atoms: C2_7  and  CO2_11 
REMARK       I    between atoms: C_10  and  N_9 
REMARK    5  A    between atoms: CC1_28  and  C_10 
REMARK    6  A    between atoms: OAB_15  and  CA1_16 
ROOT
ATOM      1  N   PH9 d   1      -8.193  54.708  49.205  0.00  0.00    -0.321 N 
ATOM      2  C   PH9 d   1      -7.901  55.751  50.028  0.00  0.00     0.231 C 
ATOM      3  O   PH9 d   1      -7.786  56.939  49.667  0.00  0.00    -0.272 OA
ATOM      4  H6  PH9 d   1      -8.256  53.801  49.621  0.00  0.00     0.169 HD
ENDROOT
BRANCH   1   5
ATOM      5  C2  PH9 d   1      -8.416  54.797  47.806  0.00  0.00     0.113 C 
ATOM      6  C1  PH9 d   1      -9.539  55.242  47.187  0.00  0.00    -0.040 C 
ATOM      7  H5  PH9 d   1      -9.477  55.191  46.101  0.00  0.00     0.088 H 
BRANCH   6   8
ATOM      8  CB2 PH9 d   1     -10.832  55.782  47.671  0.00  0.00    -0.034 A 
ATOM      9  CB3 PH9 d   1     -11.886  56.138  46.773  0.00  0.00    -0.070 A 
ATOM     10  CB4 PH9 d   1     -13.120  56.664  47.265  0.00  0.00    -0.050 A 
ATOM     11  H1  PH9 d   1     -11.747  56.007  45.706  0.00  0.00     0.084 H 
ATOM     12  CB6 PH9 d   1     -13.302  56.846  48.660  0.00  0.00     0.076 A 
ATOM     13  H2  PH9 d   1     -13.915  56.923  46.575  0.00  0.00     0.087 H 
ATOM     14  CB5 PH9 d   1     -12.221  56.489  49.526  0.00  0.00    -0.050 A 
ATOM     15  CB1 PH9 d   1     -11.033  55.975  49.031  0.00  0.00    -0.070 A 
ATOM     16  H3  PH9 d   1     -12.334  56.624  50.596  0.00  0.00     0.087 H 
ATOM     17  H4  PH9 d   1     -10.240  55.717  49.724  0.00  0.00     0.084 H 
BRANCH  12  18
ATOM     18  OAB PH9 d   1     -14.488  57.369  49.148  0.00  0.00    -0.309 OA
BRANCH  18  19
ATOM     19  CA1 PH9 d   1     -14.736  57.627  50.494  0.00  0.00     0.093 A 
ATOM     20  CA2 PH9 d   1     -14.625  58.982  50.966  0.00  0.00     0.044 A 
ATOM     21  CA3 PH9 d   1     -14.873  59.279  52.357  0.00  0.00    -0.063 A 
ATOM     22 BRA2 PH9 d   1     -14.161  60.349  49.707  0.00  0.00    -0.048 Br
ATOM     23  CA4 PH9 d   1     -15.218  58.227  53.274  0.00  0.00    -0.082 A 
ATOM     24  H7  PH9 d   1     -14.799  60.301  52.712  0.00  0.00     0.085 H 
ATOM     25  CA5 PH9 d   1     -15.329  56.876  52.817  0.00  0.00    -0.080 A 
ATOM     26  H8  PH9 d   1     -15.395  58.459  54.318  0.00  0.00     0.083 H 
ATOM     27  CA6 PH9 d   1     -15.085  56.585  51.441  0.00  0.00    -0.049 A 
ATOM     28  H9  PH9 d   1     -15.595  56.083  53.507  0.00  0.00     0.083 H 
ATOM     29  H10 PH9 d   1     -15.162  55.560  51.095  0.00  0.00     0.087 H 
ENDBRANCH  18  19
ENDBRANCH  12  18
ENDBRANCH   6   8
BRANCH   5  30
ATOM     30  CO2 PH9 d   1      -7.279  54.312  46.952  0.00  0.00     0.227 C 
ATOM     31  OC1 PH9 d   1      -7.381  54.529  45.720  0.00  0.00    -0.643 OA
ATOM     32  OC2 PH9 d   1      -6.308  53.714  47.470  0.00  0.00    -0.643 OA
ENDBRANCH   5  30
ENDBRANCH   1   5
BRANCH   2  33
ATOM     33  CC1 PH9 d   1      -7.730  55.333  51.500  0.00  0.00     0.042 C 
ATOM     34  CC2 PH9 d   1      -7.402  56.561  52.429  0.00  0.00    -0.046 C 
ATOM     35  CC3 PH9 d   1      -7.241  56.123  53.918  0.00  0.00    -0.052 C 
ATOM     36  H15 PH9 d   1      -6.465  57.026  52.090  0.00  0.00     0.035 H 
ATOM     37  H16 PH9 d   1      -8.221  57.292  52.358  0.00  0.00     0.035 H 
ATOM     38  CC4 PH9 d   1      -8.585  55.474  54.396  0.00  0.00    -0.058 C 
ATOM     39  CC9 PH9 d   1      -6.080  55.076  54.027  0.00  0.00    -0.058 C 
ATOM     40  H13 PH9 d   1      -7.008  56.999  54.542  0.00  0.00     0.040 H 
ATOM     41  CC5 PH9 d   1      -8.901  54.206  53.519  0.00  0.00    -0.052 C 
ATOM     42  H11 PH9 d   1      -9.401  56.204  54.291  0.00  0.00     0.034 H 
ATOM     43  H12 PH9 d   1      -8.493  55.176  55.451  0.00  0.00     0.034 H 
ATOM     44  CC6 PH9 d   1      -9.048  54.657  52.030  0.00  0.00    -0.046 C 
ATOM     45  C10 PH9 d   1      -7.722  53.164  53.625  0.00  0.00    -0.058 C 
ATOM     46  H14 PH9 d   1      -9.836  53.741  53.864  0.00  0.00     0.040 H 
ATOM     47  H17 PH9 d   1      -9.875  55.379  51.955  0.00  0.00     0.035 H 
ATOM     48  H18 PH9 d   1      -9.272  53.776  51.410  0.00  0.00     0.035 H 
ATOM     49  CC8 PH9 d   1      -6.392  53.824  53.141  0.00  0.00    -0.052 C 
ATOM     50  H19 PH9 d   1      -7.948  52.291  52.995  0.00  0.00     0.034 H 
ATOM     51  H20 PH9 d   1      -7.611  52.842  54.671  0.00  0.00     0.034 H 
ATOM     52  CC7 PH9 d   1      -6.571  54.277  51.657  0.00  0.00    -0.046 C 
ATOM     53  H21 PH9 d   1      -5.567  53.101  53.215  0.00  0.00     0.040 H 
ATOM     54  H24 PH9 d   1      -5.630  54.727  51.307  0.00  0.00     0.035 H 
ATOM     55  H25 PH9 d   1      -6.807  53.396  51.042  0.00  0.00     0.035 H 
ATOM     56  H22 PH9 d   1      -5.973  54.761  55.075  0.00  0.00     0.034 H 
ATOM     57  H23 PH9 d   1      -5.142  55.538  53.685  0.00  0.00     0.034 H 
ENDBRANCH   2  33
TORSDOF 6
