REMARK  12 active torsions:
REMARK  status: ('A' for Active; 'I' for Inactive)
REMARK    1  A    between atoms: N25_23  and  C2_2 
REMARK    2  A    between atoms: C4_4  and  N8_8 
REMARK    3  A    between atoms: N8_8  and  C10_9 
REMARK    4  A    between atoms: C12_11  and  N16_15 
REMARK       I    between atoms: N16_15  and  C18_16 
REMARK       I    between atoms: C18_16  and  N20_18 
REMARK    5  A    between atoms: C27_24  and  N25_23 
REMARK    6  A    between atoms: C28_25  and  C27_24 
REMARK    7  A    between atoms: C33_29  and  C28_25 
REMARK       I    between atoms: N29_26  and  C31_27 
REMARK    8  A    between atoms: N29_26  and  C33_29 
REMARK    9  A    between atoms: C31_27  and  C34_30 
REMARK   10  A    between atoms: C34_30  and  C35_31 
REMARK   11  A    between atoms: C34_30  and  C36_32 
REMARK   12  A    between atoms: C34_30  and  C37_33 
REMARK       I    between atoms: C37_33  and  N39_35 
ROOT
ATOM      1  C1  LI8 d   1      -8.746  43.496  43.496  0.00  0.00     0.075 A 
ATOM      2  C2  LI8 d   1      -7.390  43.556  43.964  0.00  0.00     0.161 A 
ATOM      3  N3  LI8 d   1      -6.770  42.383  44.231  0.00  0.00    -0.044 NA
ATOM      4  C4  LI8 d   1      -7.361  41.177  44.069  0.00  0.00     0.728 A 
ATOM      5  N5  LI8 d   1      -8.625  41.134  43.613  0.00  0.00    -0.073 NA
ATOM      6  C6  LI8 d   1      -9.323  42.238  43.329  0.00  0.00     0.042 A 
ATOM      7 BR7  LI8 d   1      -9.806  44.989  43.127  0.00  0.00    -0.045 Br
ATOM      8  H1  LI8 d   1     -10.341  42.155  42.968  0.00  0.00     0.118 H 
ENDROOT
BRANCH   2   9
ATOM      9  N25 LI8 d   1      -6.737  44.734  44.156  0.00  0.00    -0.373 N 
ATOM     10  H16 LI8 d   1      -7.217  45.594  43.854  0.00  0.00     0.161 HD
BRANCH   9  11
ATOM     11  C27 LI8 d   1      -5.441  44.880  44.741  0.00  0.00    -0.004 C 
ATOM     12  H17 LI8 d   1      -5.336  44.149  45.556  0.00  0.00     0.064 H 
ATOM     13  H18 LI8 d   1      -5.349  45.898  45.147  0.00  0.00     0.064 H 
BRANCH  11  14
ATOM     14  C28 LI8 d   1      -4.308  44.649  43.719  0.00  0.00    -0.035 C 
ATOM     15  H19 LI8 d   1      -4.322  43.590  43.421  0.00  0.00     0.037 H 
ATOM     16  H20 LI8 d   1      -3.350  44.879  44.208  0.00  0.00     0.037 H 
BRANCH  14  17
ATOM     17  C33 LI8 d   1      -4.423  45.514  42.444  0.00  0.00    -0.003 C 
ATOM     18  H22 LI8 d   1      -5.244  45.121  41.827  0.00  0.00     0.064 H 
ATOM     19  H23 LI8 d   1      -3.478  45.443  41.886  0.00  0.00     0.064 H 
BRANCH  17  20
ATOM     20  N29 LI8 d   1      -4.685  46.901  42.728  0.00  0.00    -0.360 N 
ATOM     21  C31 LI8 d   1      -3.842  47.749  43.386  0.00  0.00     0.234 C 
ATOM     22  O32 LI8 d   1      -2.728  47.280  43.801  0.00  0.00    -0.272 OA
ATOM     23  H21 LI8 d   1      -5.559  47.275  42.417  0.00  0.00     0.162 HD
BRANCH  21  24
ATOM     24  C34 LI8 d   1      -4.159  49.233  43.638  0.00  0.00     0.114 C 
BRANCH  24  25
ATOM     25  C35 LI8 d   1      -2.822  50.050  43.616  0.00  0.00    -0.053 C 
ATOM     26  H24 LI8 d   1      -2.345  49.947  42.630  0.00  0.00     0.029 H 
ATOM     27  H25 LI8 d   1      -2.144  49.666  44.393  0.00  0.00     0.029 H 
ATOM     28  H26 LI8 d   1      -3.037  51.111  43.810  0.00  0.00     0.029 H 
ENDBRANCH  24  25
BRANCH  24  29
ATOM     29  C36 LI8 d   1      -5.088  49.853  42.527  0.00  0.00    -0.053 C 
ATOM     30  H27 LI8 d   1      -6.044  49.310  42.504  0.00  0.00     0.029 H 
ATOM     31  H28 LI8 d   1      -4.595  49.769  41.547  0.00  0.00     0.029 H 
ATOM     32  H29 LI8 d   1      -5.274  50.913  42.754  0.00  0.00     0.029 H 
ENDBRANCH  24  29
BRANCH  24  33
ATOM     33  C37 LI8 d   1      -4.764  49.403  44.987  0.00  0.00     0.232 C 
ATOM     34  O38 LI8 d   1      -5.837  50.019  45.191  0.00  0.00    -0.272 OA
ATOM     35  N39 LI8 d   1      -4.180  48.911  46.075  0.00  0.00    -0.369 N 
ATOM     36  H30 LI8 d   1      -4.605  49.038  46.971  0.00  0.00     0.159 HD
ATOM     37  H31 LI8 d   1      -3.316  48.414  45.997  0.00  0.00     0.159 HD
ENDBRANCH  24  33
ENDBRANCH  21  24
ENDBRANCH  17  20
ENDBRANCH  14  17
ENDBRANCH  11  14
ENDBRANCH   9  11
ENDBRANCH   2   9
BRANCH   4  38
ATOM     38  N8  LI8 d   1      -6.768  40.008  44.326  0.00  0.00    -0.188 N 
ATOM     39  H2  LI8 d   1      -7.312  39.173  44.064  0.00  0.00     0.184 HD
BRANCH  38  40
ATOM     40  C10 LI8 d   1      -5.572  39.760  44.874  0.00  0.00     0.051 A 
ATOM     41  C11 LI8 d   1      -4.462  40.667  44.893  0.00  0.00    -0.031 A 
ATOM     42  C12 LI8 d   1      -3.241  40.299  45.507  0.00  0.00     0.038 A 
ATOM     43  H3  LI8 d   1      -4.559  41.644  44.433  0.00  0.00     0.090 H 
ATOM     44  C13 LI8 d   1      -3.141  39.003  46.100  0.00  0.00    -0.057 A 
ATOM     45  C14 LI8 d   1      -4.225  38.102  46.086  0.00  0.00    -0.079 A 
ATOM     46  H4  LI8 d   1      -2.211  38.706  46.571  0.00  0.00     0.086 H 
ATOM     47  C15 LI8 d   1      -5.434  38.491  45.478  0.00  0.00    -0.057 A 
ATOM     48  H5  LI8 d   1      -4.129  37.121  46.538  0.00  0.00     0.083 H 
ATOM     49  H6  LI8 d   1      -6.273  37.805  45.474  0.00  0.00     0.086 H 
BRANCH  42  50
ATOM     50  N16 LI8 d   1      -2.236  41.205  45.526  0.00  0.00    -0.309 N 
ATOM     51  C18 LI8 d   1      -0.994  41.096  45.057  0.00  0.00     0.322 C 
ATOM     52  O19 LI8 d   1      -0.637  40.057  44.464  0.00  0.00    -0.247 OA
ATOM     53  N20 LI8 d   1      -0.091  42.083  45.245  0.00  0.00    -0.334 N 
ATOM     54  C21 LI8 d   1      -0.345  43.305  45.924  0.00  0.00    -0.001 C 
ATOM     55  C24 LI8 d   1       1.275  41.994  44.853  0.00  0.00    -0.001 C 
ATOM     56  C22 LI8 d   1       0.998  43.646  46.620  0.00  0.00    -0.049 C 
ATOM     57  H8  LI8 d   1      -1.147  43.178  46.666  0.00  0.00     0.064 H 
ATOM     58  H9  LI8 d   1      -0.626  44.095  45.212  0.00  0.00     0.064 H 
ATOM     59  C23 LI8 d   1       2.017  42.618  46.044  0.00  0.00    -0.049 C 
ATOM     60  H10 LI8 d   1       0.909  43.534  47.711  0.00  0.00     0.035 H 
ATOM     61  H11 LI8 d   1       1.308  44.674  46.381  0.00  0.00     0.035 H 
ATOM     62  H12 LI8 d   1       2.268  41.853  46.794  0.00  0.00     0.035 H 
ATOM     63  H13 LI8 d   1       2.937  43.122  45.712  0.00  0.00     0.035 H 
ATOM     64  H14 LI8 d   1       1.459  42.563  43.930  0.00  0.00     0.064 H 
ATOM     65  H15 LI8 d   1       1.576  40.947  44.704  0.00  0.00     0.064 H 
ATOM     66  H7  LI8 d   1      -2.457  42.082  45.953  0.00  0.00     0.170 HD
ENDBRANCH  42  50
ENDBRANCH  38  40
ENDBRANCH   4  38
TORSDOF 12
