REMARK  6 active torsions:
REMARK  status: ('A' for Active; 'I' for Inactive)
REMARK    1  A    between atoms: P_1  and  O5_5 
REMARK    2  A    between atoms: O5_5  and  C5_6 
REMARK    3  A    between atoms: C5_6  and  C4_7 
REMARK    4  A    between atoms: C3_9  and  O3_10 
REMARK    5  A    between atoms: C2_11  and  O2_12 
REMARK    6  A    between atoms: C1_13  and  N9_14 
ROOT
ATOM      1  C4  IMP d   1      38.166  -6.256  23.137  0.00  0.00     0.089 C 
ATOM      2  O4  IMP d   1      38.163  -7.394  22.270  0.00  0.00    -0.353 OA
ATOM      3  C3  IMP d   1      39.511  -5.563  22.920  0.00  0.00     0.091 C 
ATOM      4  C2  IMP d   1      40.178  -6.345  21.814  0.00  0.00     0.105 C 
ATOM      5  C1  IMP d   1      39.093  -7.231  21.231  0.00  0.00     0.139 C 
ATOM      6  H3  IMP d   1      38.091  -6.591  24.182  0.00  0.00     0.090 H 
ATOM      7  H4  IMP d   1      39.368  -4.511  22.633  0.00  0.00     0.091 H 
ATOM      8  H6  IMP d   1      40.634  -5.689  21.058  0.00  0.00     0.093 H 
ATOM      9  H8  IMP d   1      39.514  -8.199  20.921  0.00  0.00     0.122 H 
ENDROOT
BRANCH   5  10
ATOM     10  N9  IMP d   1      38.409  -6.592  20.080  0.00  0.00    -0.294 N 
ATOM     11  C8  IMP d   1      38.502  -5.279  19.679  0.00  0.00     0.071 A 
ATOM     12  N7  IMP d   1      37.715  -5.101  18.589  0.00  0.00    -0.234 NA
ATOM     13  H9  IMP d   1      39.107  -4.510  20.157  0.00  0.00     0.144 H 
ATOM     14  C5  IMP d   1      37.115  -6.289  18.310  0.00  0.00     0.172 A 
ATOM     15  C6  IMP d   1      36.231  -6.665  17.310  0.00  0.00     0.279 A 
ATOM     16  C4  IMP d   1      37.550  -7.231  19.233  0.00  0.00     0.169 A 
ATOM     17  O6  IMP d   1      35.833  -5.852  16.466  0.00  0.00    -0.265 OA
ATOM     18  N1  IMP d   1      35.802  -7.975  17.255  0.00  0.00    -0.316 N 
ATOM     19  C2  IMP d   1      36.234  -8.899  18.188  0.00  0.00     0.069 A 
ATOM     20  H10 IMP d   1      35.172  -8.259  16.532  0.00  0.00     0.170 HD
ATOM     21  N3  IMP d   1      37.101  -8.519  19.193  0.00  0.00    -0.223 NA
ATOM     22  H11 IMP d   1      35.889  -9.930  18.130  0.00  0.00     0.143 H 
ENDBRANCH   5  10
BRANCH   4  23
ATOM     23  O2  IMP d   1      41.122  -7.201  22.405  0.00  0.00    -0.388 OA
ATOM     24  H7  IMP d   1      41.764  -6.684  22.878  0.00  0.00     0.210 HD
ENDBRANCH   4  23
BRANCH   1  25
ATOM     25  C5  IMP d   1      36.985  -5.316  22.845  0.00  0.00     0.059 C 
ATOM     26  H1  IMP d   1      37.098  -4.897  21.834  0.00  0.00     0.079 H 
ATOM     27  H2  IMP d   1      36.047  -5.887  22.902  0.00  0.00     0.079 H 
BRANCH  25  28
ATOM     28  O5  IMP d   1      36.942  -4.248  23.792  0.00  0.00    -0.280 OA
BRANCH  28  29
ATOM     29  P   IMP d   1      36.272  -2.833  23.373  0.00  0.00     0.422 P 
ATOM     30  O1P IMP d   1      34.862  -3.166  22.999  0.00  0.00    -0.617 OA
ATOM     31  O2P IMP d   1      36.311  -1.887  24.551  0.00  0.00    -0.617 OA
ATOM     32  O3P IMP d   1      37.069  -2.312  22.210  0.00  0.00    -0.617 OA
ENDBRANCH  28  29
ENDBRANCH  25  28
ENDBRANCH   1  25
BRANCH   3  33
ATOM     33  O3  IMP d   1      40.305  -5.643  24.086  0.00  0.00    -0.390 OA
ATOM     34  H5  IMP d   1      40.459  -6.556  24.301  0.00  0.00     0.210 HD
ENDBRANCH   3  33
TORSDOF 6
