REMARK  25 active torsions:
REMARK  status: ('A' for Active; 'I' for Inactive)
REMARK    1  A    between atoms: C35_2  and  O37_3 
REMARK       I    between atoms: C35_2  and  N34_8 
REMARK    2  A    between atoms: O37_3  and  C38_4 
REMARK    3  A    between atoms: C38_4  and  C41_5 
REMARK    4  A    between atoms: C38_4  and  C40_6 
REMARK    5  A    between atoms: C38_4  and  C39_7 
REMARK    6  A    between atoms: N34_8  and  C30_9 
REMARK    7  A    between atoms: C30_9  and  C31_10 
REMARK    8  A    between atoms: C30_9  and  C29_13 
REMARK    9  A    between atoms: C29_13  and  C28_14 
REMARK   10  A    between atoms: C28_14  and  C26_15 
REMARK       I    between atoms: C26_15  and  N25_17 
REMARK   11  A    between atoms: N25_17  and  C9_18 
REMARK   12  A    between atoms: C9_18  and  C7_19 
REMARK   13  A    between atoms: C9_18  and  C10_27 
REMARK       I    between atoms: C7_19  and  N6_21 
REMARK   14  A    between atoms: N6_21  and  C4_22 
REMARK   15  A    between atoms: C4_22  and  C5_23 
REMARK   16  A    between atoms: C4_22  and  B1_24 
REMARK   17  A    between atoms: B1_24  and  O3_25 
REMARK   18  A    between atoms: B1_24  and  O2_26 
REMARK   19  A    between atoms: C10_27  and  C11_28 
REMARK   20  A    between atoms: C11_28  and  C12_29 
REMARK   21  A    between atoms: C12_29  and  C13_30 
REMARK   22  A    between atoms: C13_30  and  N14_31 
REMARK       I    between atoms: N14_31  and  C15_32 
REMARK   23  A    between atoms: C15_32  and  O17_34 
REMARK   24  A    between atoms: O17_34  and  C18_35 
REMARK   25  A    between atoms: C18_35  and  C19_36 
ROOT
ATOM      1  C9  BO9 d   1      42.666   7.968  31.244  0.00  0.00     0.089 C 
ATOM      2  H17 BO9 d   1      42.150   6.997  31.230  0.00  0.00     0.087 H 
ENDROOT
BRANCH   1   3
ATOM      3  N25 BO9 d   1      43.982   7.897  31.870  0.00  0.00    -0.348 N 
ATOM      4  C26 BO9 d   1      44.734   6.794  31.819  0.00  0.00     0.218 C 
ATOM      5  O27 BO9 d   1      44.362   5.770  31.256  0.00  0.00    -0.274 OA
ATOM      6  H16 BO9 d   1      44.332   8.700  32.353  0.00  0.00     0.163 HD
BRANCH   4   7
ATOM      7  C28 BO9 d   1      46.109   6.844  32.461  0.00  0.00     0.011 C 
ATOM      8  H14 BO9 d   1      46.589   5.865  32.316  0.00  0.00     0.047 H 
ATOM      9  H15 BO9 d   1      46.697   7.619  31.948  0.00  0.00     0.047 H 
BRANCH   7  10
ATOM     10  C29 BO9 d   1      46.114   7.158  33.958  0.00  0.00    -0.029 C 
ATOM     11  H12 BO9 d   1      45.163   7.646  34.216  0.00  0.00     0.037 H 
ATOM     12  H13 BO9 d   1      46.204   6.213  34.514  0.00  0.00     0.037 H 
BRANCH  10  13
ATOM     13  C30 BO9 d   1      47.268   8.083  34.377  0.00  0.00     0.099 C 
ATOM     14  H11 BO9 d   1      46.999   9.127  34.156  0.00  0.00     0.089 H 
BRANCH  13  15
ATOM     15  N34 BO9 d   1      48.424   7.706  33.563  0.00  0.00    -0.322 N 
ATOM     16  C35 BO9 d   1      49.619   8.303  33.615  0.00  0.00     0.362 C 
ATOM     17  O36 BO9 d   1      50.529   7.921  32.892  0.00  0.00    -0.238 OA
ATOM     18  H10 BO9 d   1      48.312   6.947  32.922  0.00  0.00     0.165 HD
BRANCH  16  19
ATOM     19  O37 BO9 d   1      49.866   9.405  34.553  0.00  0.00    -0.294 OA
BRANCH  19  20
ATOM     20  C38 BO9 d   1      50.682  10.563  34.299  0.00  0.00     0.061 C 
BRANCH  20  21
ATOM     21  C41 BO9 d   1      50.261  11.233  32.994  0.00  0.00    -0.048 C 
ATOM     22  H1  BO9 d   1      50.893  12.115  32.814  0.00  0.00     0.031 H 
ATOM     23  H2  BO9 d   1      49.208  11.544  33.065  0.00  0.00     0.031 H 
ATOM     24  H3  BO9 d   1      50.378  10.522  32.163  0.00  0.00     0.031 H 
ENDBRANCH  20  21
BRANCH  20  25
ATOM     25  C40 BO9 d   1      50.465  11.543  35.447  0.00  0.00    -0.048 C 
ATOM     26  H4  BO9 d   1      51.077  12.442  35.282  0.00  0.00     0.031 H 
ATOM     27  H5  BO9 d   1      50.759  11.068  36.395  0.00  0.00     0.031 H 
ATOM     28  H6  BO9 d   1      49.403  11.826  35.492  0.00  0.00     0.031 H 
ENDBRANCH  20  25
BRANCH  20  29
ATOM     29  C39 BO9 d   1      52.161  10.188  34.226  0.00  0.00    -0.048 C 
ATOM     30  H7  BO9 d   1      52.759  11.091  34.031  0.00  0.00     0.031 H 
ATOM     31  H8  BO9 d   1      52.316   9.463  33.413  0.00  0.00     0.031 H 
ATOM     32  H9  BO9 d   1      52.473   9.740  35.181  0.00  0.00     0.031 H 
ENDBRANCH  20  29
ENDBRANCH  19  20
ENDBRANCH  16  19
ENDBRANCH  13  15
BRANCH  13  33
ATOM     33  C31 BO9 d   1      47.538   7.965  35.884  0.00  0.00     0.196 C 
ATOM     34  O33 BO9 d   1      47.805   6.844  36.380  0.00  0.00    -0.646 OA
ATOM     35  O32 BO9 d   1      47.491   9.009  36.576  0.00  0.00    -0.646 OA
ENDBRANCH  13  33
ENDBRANCH  10  13
ENDBRANCH   7  10
ENDBRANCH   4   7
ENDBRANCH   1   3
BRANCH   1  36
ATOM     36  C7  BO9 d   1      42.898   8.486  29.847  0.00  0.00     0.240 C 
ATOM     37  O8  BO9 d   1      43.567   9.499  29.670  0.00  0.00    -0.271 OA
ATOM     38  N6  BO9 d   1      42.413   7.770  28.828  0.00  0.00    -0.358 N 
ATOM     39  H18 BO9 d   1      41.902   6.930  29.011  0.00  0.00     0.162 HD
BRANCH  38  40
ATOM     40  C4  BO9 d   1      42.623   8.205  27.449  0.00  0.00     0.042 C 
ATOM     41  H19 BO9 d   1      43.328   9.049  27.437  0.00  0.00     0.064 H 
BRANCH  40  42
ATOM     42  C5  BO9 d   1      41.289   8.666  26.864  0.00  0.00    -0.060 C 
ATOM     43  H20 BO9 d   1      40.889   9.493  27.469  0.00  0.00     0.029 H 
ATOM     44  H21 BO9 d   1      40.576   7.828  26.872  0.00  0.00     0.029 H 
ATOM     45  H22 BO9 d   1      41.441   9.009  25.830  0.00  0.00     0.029 H 
ENDBRANCH  40  42
BRANCH  40  46
ATOM     46  B1  BO9 d   1      43.248   6.996  26.598  0.00  0.00     0.514 B 
BRANCH  46  47
ATOM     47  O3  BO9 d   1      44.660   6.651  27.108  0.00  0.00    -0.436 OA
ATOM     48  H23 BO9 d   1      45.032   5.964  26.567  0.00  0.00     0.184 HD
ENDBRANCH  46  47
BRANCH  46  49
ATOM     49  O2  BO9 d   1      42.369   5.746  26.675  0.00  0.00    -0.436 OA
ATOM     50  H24 BO9 d   1      42.320   5.449  27.576  0.00  0.00     0.184 HD
ENDBRANCH  46  49
ENDBRANCH  40  46
ENDBRANCH  38  40
ENDBRANCH   1  36
BRANCH   1  51
ATOM     51  C10 BO9 d   1      41.912   8.996  32.081  0.00  0.00    -0.038 C 
ATOM     52  H25 BO9 d   1      42.083   9.987  31.636  0.00  0.00     0.036 H 
ATOM     53  H26 BO9 d   1      42.327   8.975  33.099  0.00  0.00     0.036 H 
BRANCH  51  54
ATOM     54  C11 BO9 d   1      40.411   8.779  32.182  0.00  0.00    -0.061 C 
ATOM     55  H27 BO9 d   1      40.205   7.737  32.469  0.00  0.00     0.033 H 
ATOM     56  H28 BO9 d   1      39.939   8.992  31.212  0.00  0.00     0.033 H 
BRANCH  54  57
ATOM     57  C12 BO9 d   1      39.855   9.729  33.247  0.00  0.00    -0.050 C 
ATOM     58  H29 BO9 d   1      39.010  10.285  32.816  0.00  0.00     0.035 H 
ATOM     59  H30 BO9 d   1      40.648  10.434  33.538  0.00  0.00     0.035 H 
BRANCH  57  60
ATOM     60  C13 BO9 d   1      39.370   8.994  34.499  0.00  0.00    -0.003 C 
ATOM     61  H31 BO9 d   1      39.439   7.907  34.342  0.00  0.00     0.064 H 
ATOM     62  H32 BO9 d   1      38.326   9.268  34.710  0.00  0.00     0.064 H 
BRANCH  60  63
ATOM     63  N14 BO9 d   1      40.218   9.385  35.619  0.00  0.00    -0.337 N 
ATOM     64  C15 BO9 d   1      39.993  10.274  36.596  0.00  0.00     0.360 C 
ATOM     65  O16 BO9 d   1      40.819  10.473  37.477  0.00  0.00    -0.239 OA
ATOM     66  H33 BO9 d   1      41.102   8.919  35.665  0.00  0.00     0.164 HD
BRANCH  64  67
ATOM     67  O17 BO9 d   1      38.754  11.048  36.648  0.00  0.00    -0.299 OA
BRANCH  67  68
ATOM     68  C18 BO9 d   1      38.581  12.208  35.828  0.00  0.00     0.054 C 
ATOM     69  H34 BO9 d   1      37.984  11.934  34.946  0.00  0.00     0.082 H 
ATOM     70  H35 BO9 d   1      39.570  12.566  35.505  0.00  0.00     0.082 H 
BRANCH  68  71
ATOM     71  C19 BO9 d   1      37.876  13.322  36.569  0.00  0.00    -0.034 A 
ATOM     72  C24 BO9 d   1      38.168  14.650  36.255  0.00  0.00    -0.075 A 
ATOM     73  C23 BO9 d   1      37.529  15.692  36.928  0.00  0.00    -0.082 A 
ATOM     74  H36 BO9 d   1      38.896  14.873  35.483  0.00  0.00     0.084 H 
ATOM     75  C22 BO9 d   1      36.587  15.405  37.917  0.00  0.00    -0.083 A 
ATOM     76  H37 BO9 d   1      37.764  16.722  36.683  0.00  0.00     0.083 H 
ATOM     77  C21 BO9 d   1      36.290  14.078  38.233  0.00  0.00    -0.082 A 
ATOM     78  H38 BO9 d   1      36.086  16.212  38.440  0.00  0.00     0.083 H 
ATOM     79  C20 BO9 d   1      36.934  13.037  37.560  0.00  0.00    -0.075 A 
ATOM     80  H39 BO9 d   1      35.559  13.855  39.002  0.00  0.00     0.083 H 
ATOM     81  H40 BO9 d   1      36.703  12.007  37.807  0.00  0.00     0.084 H 
ENDBRANCH  68  71
ENDBRANCH  67  68
ENDBRANCH  64  67
ENDBRANCH  60  63
ENDBRANCH  57  60
ENDBRANCH  54  57
ENDBRANCH  51  54
ENDBRANCH   1  51
TORSDOF 25
