REMARK  19 active torsions:
REMARK  status: ('A' for Active; 'I' for Inactive)
REMARK    1  A    between atoms: C3_1  and  N7_7 
REMARK       I    between atoms: N7_7  and  C8_8 
REMARK    2  A    between atoms: C8_8  and  C9_9 
REMARK    3  A    between atoms: C11_11  and  C19_19 
REMARK    4  A    between atoms: C14_14  and  C16_16 
REMARK    5  A    between atoms: C16_16  and  N17_17 
REMARK    6  A    between atoms: C19_19  and  N20_20 
REMARK       I    between atoms: N20_20  and  C21_21 
REMARK    7  A    between atoms: C21_21  and  C22_22 
REMARK    8  A    between atoms: C22_22  and  N23_23 
REMARK    9  A    between atoms: C26_26  and  N31_31 
REMARK   10  A    between atoms: C29_29  and  C30_30 
REMARK   11  A    between atoms: N31_31  and  C32_32 
REMARK   12  A    between atoms: C32_32  and  C33_33 
REMARK   13  A    between atoms: C32_32  and  C34_34 
REMARK   14  A    between atoms: C36_36  and  N40_40 
REMARK   15  A    between atoms: C38_38  and  C41_41 
REMARK       I    between atoms: C41_41  and  N42_42 
REMARK   16  A    between atoms: N42_42  and  C43_43 
REMARK   17  A    between atoms: C43_43  and  C44_44 
REMARK   18  A    between atoms: C43_43  and  C47_47 
REMARK   19  A    between atoms: C44_44  and  C45_45 
ROOT
ATOM      1  N23 PY3 d   1      33.414   9.056   8.967  0.00  0.00    -0.300 N 
ATOM      2  C25 PY3 d   1      33.865   8.396  10.129  0.00  0.00     0.294 A 
ATOM      3  C26 PY3 d   1      35.289   8.000  10.239  0.00  0.00     0.193 A 
ATOM      4  N27 PY3 d   1      36.086   8.279   9.234  0.00  0.00    -0.236 NA
ATOM      5  C28 PY3 d   1      35.648   8.911   8.067  0.00  0.00     0.031 A 
ATOM      6  C29 PY3 d   1      34.353   9.284   7.924  0.00  0.00     0.066 A 
ATOM      7  O48 PY3 d   1      33.133   8.146  11.096  0.00  0.00    -0.264 OA
ATOM      8  H18 PY3 d   1      36.356   9.106   7.263  0.00  0.00     0.118 H 
ENDROOT
BRANCH   1   9
ATOM      9  C22 PY3 d   1      32.007   9.511   8.988  0.00  0.00     0.077 C 
ATOM     10  H16 PY3 d   1      31.872  10.140   9.880  0.00  0.00     0.079 H 
ATOM     11  H17 PY3 d   1      31.837  10.115   8.085  0.00  0.00     0.079 H 
BRANCH   9  12
ATOM     12  C21 PY3 d   1      30.953   8.432   9.023  0.00  0.00     0.236 C 
ATOM     13  N20 PY3 d   1      29.760   8.776   9.516  0.00  0.00    -0.355 N 
ATOM     14  H15 PY3 d   1      29.536   9.746   9.605  0.00  0.00     0.162 HD
ATOM     15  O24 PY3 d   1      31.191   7.304   8.637  0.00  0.00    -0.272 OA
BRANCH  13  16
ATOM     16  C19 PY3 d   1      28.743   7.755   9.941  0.00  0.00     0.020 C 
ATOM     17  H13 PY3 d   1      27.730   8.120   9.713  0.00  0.00     0.071 H 
ATOM     18  H14 PY3 d   1      28.920   6.809   9.409  0.00  0.00     0.071 H 
BRANCH  16  19
ATOM     19  C11 PY3 d   1      28.887   7.543  11.418  0.00  0.00    -0.025 A 
ATOM     20  C9  PY3 d   1      29.600   6.519  12.061  0.00  0.00     0.041 A 
ATOM     21  C15 PY3 d   1      29.668   6.440  13.486  0.00  0.00    -0.054 A 
ATOM     22  C14 PY3 d   1      29.005   7.389  14.298  0.00  0.00     0.008 A 
ATOM     23  H8  PY3 d   1      30.235   5.642  13.951  0.00  0.00     0.086 H 
ATOM     24  C13 PY3 d   1      28.270   8.430  13.671  0.00  0.00    -0.069 A 
ATOM     25  C12 PY3 d   1      28.217   8.504  12.246  0.00  0.00    -0.073 A 
ATOM     26  H7  PY3 d   1      27.750   9.167  14.273  0.00  0.00     0.085 H 
ATOM     27  H6  PY3 d   1      27.657   9.306  11.778  0.00  0.00     0.084 H 
BRANCH  20  28
ATOM     28  C8  PY3 d   1      30.314   5.453  11.339  0.00  0.00     0.256 C 
ATOM     29  N7  PY3 d   1      31.640   5.371  11.362  0.00  0.00    -0.323 N 
ATOM     30  H5  PY3 d   1      32.123   6.096  11.853  0.00  0.00     0.169 HD
ATOM     31  O10 PY3 d   1      29.579   4.680  10.762  0.00  0.00    -0.267 OA
BRANCH  29  32
ATOM     32  C3  PY3 d   1      32.438   4.376  10.772  0.00  0.00     0.037 A 
ATOM     33  C4  PY3 d   1      33.843   4.509  10.891  0.00  0.00    -0.040 A 
ATOM     34  C5  PY3 d   1      34.676   3.531  10.321  0.00  0.00     0.004 A 
ATOM     35  H1  PY3 d   1      34.271   5.356  11.416  0.00  0.00     0.089 H 
ATOM     36  N6  PY3 d   1      34.140   2.470   9.669  0.00  0.00    -0.273 NA
ATOM     37  H2  PY3 d   1      35.753   3.626  10.403  0.00  0.00     0.114 H 
ATOM     38  C1  PY3 d   1      32.808   2.305   9.534  0.00  0.00     0.004 A 
ATOM     39  C2  PY3 d   1      31.929   3.253  10.080  0.00  0.00    -0.040 A 
ATOM     40  H3  PY3 d   1      32.418   1.443   9.005  0.00  0.00     0.114 H 
ATOM     41  H4  PY3 d   1      30.858   3.124   9.971  0.00  0.00     0.089 H 
ENDBRANCH  29  32
ENDBRANCH  20  28
BRANCH  22  42
ATOM     42  C16 PY3 d   1      29.072   7.319  15.766  0.00  0.00     0.102 C 
ATOM     43  N18 PY3 d   1      29.599   6.285  16.362  0.00  0.00    -0.385 N 
ATOM     44  H11 PY3 d   1      29.977   5.506  15.804  0.00  0.00     0.157 HD
ATOM     45  H12 PY3 d   1      29.638   6.248  17.391  0.00  0.00     0.157 HD
BRANCH  42  46
ATOM     46  N17 PY3 d   1      28.583   8.330  16.532  0.00  0.00    -0.385 N 
ATOM     47  H9  PY3 d   1      28.636   8.270  17.559  0.00  0.00     0.157 HD
ATOM     48  H10 PY3 d   1      28.160   9.156  16.085  0.00  0.00     0.157 HD
ENDBRANCH  42  46
ENDBRANCH  22  42
ENDBRANCH  16  19
ENDBRANCH  13  16
ENDBRANCH   9  12
ENDBRANCH   1   9
BRANCH   6  49
ATOM     49  C30 PY3 d   1      33.916   9.871   6.641  0.00  0.00    -0.005 A 
ATOM     50  C35 PY3 d   1      34.433  11.130   6.208  0.00  0.00    -0.045 A 
ATOM     51  C36 PY3 d   1      33.976  11.697   4.983  0.00  0.00     0.027 A 
ATOM     52  H27 PY3 d   1      35.169  11.652   6.808  0.00  0.00     0.088 H 
ATOM     53  C37 PY3 d   1      33.006  11.009   4.207  0.00  0.00    -0.042 A 
ATOM     54  C38 PY3 d   1      32.482   9.774   4.612  0.00  0.00     0.035 A 
ATOM     55  H28 PY3 d   1      32.662  11.450   3.278  0.00  0.00     0.088 H 
ATOM     56  C39 PY3 d   1      32.938   9.200   5.837  0.00  0.00    -0.055 A 
ATOM     57  H29 PY3 d   1      32.540   8.246   6.163  0.00  0.00     0.086 H 
BRANCH  51  58
ATOM     58  N40 PY3 d   1      34.458  12.931   4.544  0.00  0.00    -0.399 N 
ATOM     59  H30 PY3 d   1      35.162  13.437   5.101  0.00  0.00     0.156 HD
ATOM     60  H31 PY3 d   1      34.110  13.336   3.663  0.00  0.00     0.156 HD
ENDBRANCH  51  58
BRANCH  54  61
ATOM     61  C41 PY3 d   1      31.454   9.112   3.790  0.00  0.00     0.252 C 
ATOM     62  N42 PY3 d   1      30.554   9.843   3.060  0.00  0.00    -0.353 N 
ATOM     63  H32 PY3 d   1      30.634  10.838   3.124  0.00  0.00     0.163 HD
ATOM     64  O46 PY3 d   1      31.422   7.897   3.781  0.00  0.00    -0.268 OA
BRANCH  62  65
ATOM     65  C43 PY3 d   1      29.467   9.321   2.180  0.00  0.00     0.009 C 
ATOM     66  H33 PY3 d   1      29.459   8.223   2.236  0.00  0.00     0.071 H 
BRANCH  65  67
ATOM     67  C44 PY3 d   1      28.084   9.838   2.645  0.00  0.00    -0.050 C 
ATOM     68  H34 PY3 d   1      27.604  10.334   1.788  0.00  0.00     0.035 H 
ATOM     69  H35 PY3 d   1      28.251  10.572   3.447  0.00  0.00     0.035 H 
BRANCH  67  70
ATOM     70  C45 PY3 d   1      27.099   8.758   3.184  0.00  0.00    -0.075 C 
ATOM     71  H36 PY3 d   1      26.156   9.239   3.483  0.00  0.00     0.027 H 
ATOM     72  H37 PY3 d   1      27.546   8.255   4.054  0.00  0.00     0.027 H 
ATOM     73  H38 PY3 d   1      26.899   8.018   2.396  0.00  0.00     0.027 H 
ENDBRANCH  67  70
ENDBRANCH  65  67
BRANCH  65  74
ATOM     74  C47 PY3 d   1      29.780   9.740   0.727  0.00  0.00    -0.057 C 
ATOM     75  H39 PY3 d   1      28.990   9.365   0.059  0.00  0.00     0.030 H 
ATOM     76  H40 PY3 d   1      30.748   9.316   0.424  0.00  0.00     0.030 H 
ATOM     77  H41 PY3 d   1      29.824  10.837   0.663  0.00  0.00     0.030 H 
ENDBRANCH  65  74
ENDBRANCH  62  65
ENDBRANCH  54  61
ENDBRANCH   6  49
BRANCH   3  78
ATOM     78  N31 PY3 d   1      35.767   7.374  11.367  0.00  0.00    -0.366 N 
ATOM     79  H19 PY3 d   1      35.077   7.022  12.046  0.00  0.00     0.161 HD
BRANCH  78  80
ATOM     80  C32 PY3 d   1      37.191   7.170  11.676  0.00  0.00     0.004 C 
ATOM     81  H20 PY3 d   1      37.785   7.999  11.263  0.00  0.00     0.071 H 
BRANCH  80  82
ATOM     82  C33 PY3 d   1      37.354   7.150  13.226  0.00  0.00    -0.058 C 
ATOM     83  H21 PY3 d   1      38.413   6.998  13.481  0.00  0.00     0.030 H 
ATOM     84  H22 PY3 d   1      36.754   6.330  13.647  0.00  0.00     0.030 H 
ATOM     85  H23 PY3 d   1      37.010   8.108  13.643  0.00  0.00     0.030 H 
ENDBRANCH  80  82
BRANCH  80  86
ATOM     86  C34 PY3 d   1      37.651   5.847  11.020  0.00  0.00    -0.058 C 
ATOM     87  H24 PY3 d   1      38.715   5.679  11.241  0.00  0.00     0.030 H 
ATOM     88  H25 PY3 d   1      37.508   5.909   9.931  0.00  0.00     0.030 H 
ATOM     89  H26 PY3 d   1      37.057   5.013  11.421  0.00  0.00     0.030 H 
ENDBRANCH  80  86
ENDBRANCH  78  80
ENDBRANCH   3  78
TORSDOF 19
