REMARK  7 active torsions:
REMARK  status: ('A' for Active; 'I' for Inactive)
REMARK    1  A    between atoms: C3_3  and  O3_13 
REMARK    2  A    between atoms: C5_5  and  C20_10 
REMARK    3  A    between atoms: C6_6  and  C10_7 
REMARK    4  A    between atoms: O3_13  and  C31_14 
REMARK    5  A    between atoms: C34_15  and  N1_20 
REMARK       I    between atoms: N1_20  and  C44_21 
REMARK    6  A    between atoms: C44_21  and  C51_23 
REMARK    7  A    between atoms: C54_25  and  N2_29 
ROOT
ATOM      1  C31 194 d   1      26.729  -1.617  51.527  0.00  0.00     0.102 C 
ATOM      2  C34 194 d   1      25.355  -1.618  51.789  0.00  0.00     0.069 C 
ATOM      3  C35 194 d   1      24.769  -2.670  52.530  0.00  0.00    -0.054 C 
ATOM      4  C36 194 d   1      25.590  -3.637  53.105  0.00  0.00    -0.081 C 
ATOM      5  C37 194 d   1      26.963  -3.620  52.877  0.00  0.00    -0.080 C 
ATOM      6  C38 194 d   1      27.511  -2.652  52.003  0.00  0.00    -0.048 C 
ATOM      7  H4  194 d   1      23.693  -2.723  52.649  0.00  0.00     0.087 H 
ATOM      8  H5  194 d   1      25.157  -4.407  53.733  0.00  0.00     0.083 H 
ATOM      9  H6  194 d   1      27.607  -4.343  53.365  0.00  0.00     0.083 H 
ATOM     10  H7  194 d   1      28.551  -2.723  51.705  0.00  0.00     0.087 H 
ENDROOT
BRANCH   2  11
ATOM     11  N1  194 d   1      24.655  -0.517  51.298  0.00  0.00    -0.320 N 
ATOM     12  C44 194 d   1      24.341   0.506  52.123  0.00  0.00     0.256 C 
ATOM     13  O6  194 d   1      24.288   0.277  53.310  0.00  0.00    -0.267 OA
ATOM     14  H8  194 d   1      24.385  -0.484  50.336  0.00  0.00     0.169 HD
BRANCH  12  15
ATOM     15  C51 194 d   1      24.043   1.905  51.664  0.00  0.00     0.034 A 
ATOM     16  C53 194 d   1      23.914   2.944  52.610  0.00  0.00    -0.036 A 
ATOM     17  C54 194 d   1      23.545   4.246  52.168  0.00  0.00     0.103 A 
ATOM     18  H9  194 d   1      24.094   2.753  53.662  0.00  0.00     0.088 H 
ATOM     19  C55 194 d   1      23.277   4.487  50.822  0.00  0.00    -0.051 A 
ATOM     20  C56 194 d   1      23.445   3.481  49.904  0.00  0.00    -0.080 A 
ATOM     21  H10 194 d   1      22.937   5.465  50.501  0.00  0.00     0.087 H 
ATOM     22  C57 194 d   1      23.806   2.222  50.346  0.00  0.00    -0.068 A 
ATOM     23  H11 194 d   1      23.297   3.671  48.847  0.00  0.00     0.083 H 
ATOM     24  H12 194 d   1      23.909   1.435  49.608  0.00  0.00     0.085 H 
BRANCH  17  25
ATOM     25  N2  194 d   1      23.607   5.376  53.068  0.00  0.00    -0.116 N 
ATOM     26  O7  194 d   1      24.148   5.287  54.109  0.00  0.00    -0.532 OA
ATOM     27  O8  194 d   1      23.225   6.549  52.694  0.00  0.00    -0.532 OA
ENDBRANCH  17  25
ENDBRANCH  12  15
ENDBRANCH   2  11
BRANCH   1  28
ATOM     28  O3  194 d   1      27.209  -0.564  50.777  0.00  0.00    -0.308 OA
BRANCH  28  29
ATOM     29  C3  194 d   1      28.554  -0.387  50.879  0.00  0.00     0.077 C 
ATOM     30  C2  194 d   1      29.163  -0.251  52.107  0.00  0.00    -0.049 C 
ATOM     31  C1  194 d   1      30.504   0.044  52.184  0.00  0.00    -0.063 C 
ATOM     32  H2  194 d   1      28.584  -0.377  53.015  0.00  0.00     0.087 H 
ATOM     33  C6  194 d   1      31.194   0.262  50.996  0.00  0.00     0.058 C 
ATOM     34  H1  194 d   1      31.008   0.105  53.142  0.00  0.00     0.085 H 
ATOM     35  C5  194 d   1      30.591  -0.027  49.761  0.00  0.00     0.060 C 
ATOM     36  C4  194 d   1      29.261  -0.362  49.705  0.00  0.00    -0.033 C 
ATOM     37  H3  194 d   1      28.784  -0.600  48.761  0.00  0.00     0.089 H 
BRANCH  33  38
ATOM     38  C10 194 d   1      32.506   0.978  51.129  0.00  0.00     0.210 C 
ATOM     39  O1  194 d   1      33.407   0.547  51.772  0.00  0.00    -0.644 OA
ATOM     40  O2  194 d   1      32.598   2.199  50.540  0.00  0.00    -0.644 OA
ENDBRANCH  33  38
BRANCH  35  41
ATOM     41  C20 194 d   1      31.273   0.053  48.489  0.00  0.00     0.210 C 
ATOM     42  O5  194 d   1      32.113  -0.958  48.113  0.00  0.00    -0.644 OA
ATOM     43  O4  194 d   1      31.029   0.968  47.796  0.00  0.00    -0.644 OA
ENDBRANCH  35  41
ENDBRANCH  28  29
ENDBRANCH   1  28
TORSDOF 7
