REMARK  10 active torsions:
REMARK  status: ('A' for Active; 'I' for Inactive)
REMARK    1  A    between atoms: C1_1  and  O1_7 
REMARK    2  A    between atoms: C2_2  and  N1_20 
REMARK    3  A    between atoms: C4_4  and  N2_32 
REMARK    4  A    between atoms: O1_7  and  C7_8 
REMARK    5  A    between atoms: C9_10  and  C14_17 
REMARK    6  A    between atoms: C10_11  and  C13_14 
REMARK       I    between atoms: N1_20  and  C15_21 
REMARK    7  A    between atoms: C15_21  and  C16_22 
REMARK    8  A    between atoms: C18_25  and  N4_29 
REMARK       I    between atoms: N2_32  and  C22_33 
REMARK    9  A    between atoms: C22_33  and  C23_35 
REMARK   10  A    between atoms: C25_37  and  N3_41 
ROOT
ATOM      1  C1  195 d   1      26.403  -1.560  51.604  0.00  0.00     0.102 A 
ATOM      2  C2  195 d   1      25.046  -1.485  51.860  0.00  0.00     0.071 A 
ATOM      3  C3  195 d   1      24.393  -2.532  52.512  0.00  0.00    -0.029 A 
ATOM      4  C4  195 d   1      25.110  -3.653  52.910  0.00  0.00     0.037 A 
ATOM      5  C5  195 d   1      26.488  -3.721  52.660  0.00  0.00    -0.054 A 
ATOM      6  C6  195 d   1      27.132  -2.672  52.011  0.00  0.00    -0.046 A 
ATOM      7  H1  195 d   1      23.328  -2.470  52.707  0.00  0.00     0.090 H 
ATOM      8  H2  195 d   1      27.052  -4.592  52.973  0.00  0.00     0.087 H 
ATOM      9  H3  195 d   1      28.198  -2.721  51.823  0.00  0.00     0.087 H 
ENDROOT
BRANCH   2  10
ATOM     10  N1  195 d   1      24.380  -0.341  51.541  0.00  0.00    -0.320 N 
ATOM     11  C15 195 d   1      24.760   0.801  52.151  0.00  0.00     0.256 C 
ATOM     12  O6  195 d   1      25.584   0.777  53.057  0.00  0.00    -0.267 OA
ATOM     13  H7  195 d   1      23.633  -0.347  50.876  0.00  0.00     0.169 HD
BRANCH  11  14
ATOM     14  C16 195 d   1      24.147   2.049  51.666  0.00  0.00     0.034 A 
ATOM     15  C17 195 d   1      24.073   3.130  52.525  0.00  0.00    -0.036 A 
ATOM     16  C18 195 d   1      23.593   4.348  52.079  0.00  0.00     0.103 A 
ATOM     17  H8  195 d   1      24.393   3.022  53.555  0.00  0.00     0.088 H 
ATOM     18  C19 195 d   1      23.178   4.491  50.769  0.00  0.00    -0.051 A 
ATOM     19  C20 195 d   1      23.239   3.408  49.902  0.00  0.00    -0.080 A 
ATOM     20  H9  195 d   1      22.805   5.447  50.419  0.00  0.00     0.087 H 
ATOM     21  C21 195 d   1      23.726   2.186  50.349  0.00  0.00    -0.068 A 
ATOM     22  H10 195 d   1      22.907   3.516  48.876  0.00  0.00     0.083 H 
ATOM     23  H11 195 d   1      23.777   1.341  49.672  0.00  0.00     0.085 H 
BRANCH  16  24
ATOM     24  N4  195 d   1      23.555   5.483  52.993  0.00  0.00    -0.116 N 
ATOM     25  O7  195 d   1      23.086   6.525  52.665  0.00  0.00    -0.532 OA
ATOM     26  O8  195 d   1      24.088   5.248  54.211  0.00  0.00    -0.532 OA
ENDBRANCH  16  24
ENDBRANCH  11  14
ENDBRANCH   2  10
BRANCH   1  27
ATOM     27  O1  195 d   1      26.995  -0.535  50.863  0.00  0.00    -0.308 OA
BRANCH  27  28
ATOM     28  C7  195 d   1      28.382  -0.463  50.995  0.00  0.00     0.077 A 
ATOM     29  C8  195 d   1      29.170  -0.391  49.851  0.00  0.00    -0.033 A 
ATOM     30  C9  195 d   1      30.535  -0.129  49.952  0.00  0.00     0.060 A 
ATOM     31  H4  195 d   1      28.720  -0.539  48.876  0.00  0.00     0.089 H 
ATOM     32  C10 195 d   1      31.112   0.073  51.179  0.00  0.00     0.058 A 
ATOM     33  C11 195 d   1      30.339  -0.021  52.332  0.00  0.00    -0.063 A 
ATOM     34  C12 195 d   1      28.972  -0.291  52.242  0.00  0.00    -0.049 A 
ATOM     35  H5  195 d   1      30.800   0.116  53.304  0.00  0.00     0.085 H 
ATOM     36  H6  195 d   1      28.372  -0.366  53.142  0.00  0.00     0.087 H 
BRANCH  30  37
ATOM     37  C14 195 d   1      31.372  -0.108  48.755  0.00  0.00     0.210 C 
ATOM     38  O4  195 d   1      32.309  -1.089  48.696  0.00  0.00    -0.644 OA
ATOM     39  O5  195 d   1      31.230   0.726  47.915  0.00  0.00    -0.644 OA
ENDBRANCH  30  37
BRANCH  32  40
ATOM     40  C13 195 d   1      32.519   0.471  51.254  0.00  0.00     0.210 C 
ATOM     41  O2  195 d   1      33.288  -0.265  52.078  0.00  0.00    -0.644 OA
ATOM     42  O3  195 d   1      32.928   1.392  50.613  0.00  0.00    -0.644 OA
ENDBRANCH  32  40
ENDBRANCH  27  28
ENDBRANCH   1  27
BRANCH   4  43
ATOM     43  N2  195 d   1      24.456  -4.694  53.538  0.00  0.00    -0.323 N 
ATOM     44  C22 195 d   1      25.031  -5.915  53.617  0.00  0.00     0.256 C 
ATOM     45  O9  195 d   1      26.116  -6.148  53.098  0.00  0.00    -0.267 OA
ATOM     46  H12 195 d   1      23.551  -4.544  53.937  0.00  0.00     0.169 HD
BRANCH  44  47
ATOM     47  C23 195 d   1      24.250  -6.936  54.375  0.00  0.00     0.034 A 
ATOM     48  C24 195 d   1      23.181  -6.557  55.191  0.00  0.00    -0.036 A 
ATOM     49  C25 195 d   1      22.487  -7.527  55.935  0.00  0.00     0.103 A 
ATOM     50  H13 195 d   1      22.887  -5.515  55.250  0.00  0.00     0.088 H 
ATOM     51  C26 195 d   1      22.865  -8.852  55.859  0.00  0.00    -0.051 A 
ATOM     52  C27 195 d   1      23.922  -9.230  55.045  0.00  0.00    -0.080 A 
ATOM     53  H14 195 d   1      22.334  -9.600  56.437  0.00  0.00     0.087 H 
ATOM     54  C28 195 d   1      24.617  -8.274  54.303  0.00  0.00    -0.068 A 
ATOM     55  H15 195 d   1      24.210 -10.273  54.985  0.00  0.00     0.083 H 
ATOM     56  H16 195 d   1      25.444  -8.576  53.670  0.00  0.00     0.085 H 
BRANCH  49  57
ATOM     57  N3  195 d   1      21.368  -7.146  56.812  0.00  0.00    -0.116 N 
ATOM     58  O10 195 d   1      21.268  -6.041  57.246  0.00  0.00    -0.532 OA
ATOM     59  O11 195 d   1      20.487  -8.143  57.081  0.00  0.00    -0.532 OA
ENDBRANCH  49  57
ENDBRANCH  44  47
ENDBRANCH   4  43
TORSDOF 10
