REMARK  6 active torsions:
REMARK  status: ('A' for Active; 'I' for Inactive)
REMARK    1  A    between atoms: C3_4  and  O_21 
REMARK    2  A    between atoms: O_21  and  C6_7 
REMARK    3  A    between atoms: C7_8  and  C17_18 
REMARK    4  A    between atoms: C8_9  and  C16_17 
REMARK    5  A    between atoms: C9_10  and  C10_11 
REMARK       I    between atoms: C9_10  and  N_20 
REMARK    6  A    between atoms: C17_18  and  C18_19 
ROOT
ATOM      1  C   IMN d   1     -21.083  54.362  11.965  0.00  0.00     0.053 A 
ATOM      2  C1  IMN d   1     -20.073  53.842  12.956  0.00  0.00     0.003 A 
ATOM      3  C2  IMN d   1     -19.218  54.788  13.670  0.00  0.00    -0.038 A 
ATOM      4  C3  IMN d   1     -19.301  56.193  13.458  0.00  0.00     0.069 A 
ATOM      5  C4  IMN d   1     -20.260  56.699  12.524  0.00  0.00    -0.049 A 
ATOM      6  C5  IMN d   1     -21.117  55.821  11.801  0.00  0.00    -0.053 A 
ATOM      7  C7  IMN d   1     -20.179  52.346  12.997  0.00  0.00    -0.013 A 
ATOM      8  C8  IMN d   1     -21.259  51.999  12.010  0.00  0.00     0.024 A 
ATOM      9  C9  IMN d   1     -22.812  53.327  10.430  0.00  0.00     0.263 C 
ATOM     10  N   IMN d   1     -21.724  53.223  11.462  0.00  0.00    -0.281 N 
ATOM     11  O1  IMN d   1     -23.628  52.409  10.328  0.00  0.00    -0.267 OA
ATOM     12  H1  IMN d   1     -18.497  54.407  14.384  0.00  0.00     0.089 H 
ATOM     13  H2  IMN d   1     -20.335  57.769  12.364  0.00  0.00     0.087 H 
ATOM     14  H3  IMN d   1     -21.825  56.248  11.100  0.00  0.00     0.087 H 
ENDROOT
BRANCH   8  15
ATOM     15  C16 IMN d   1     -21.708  50.569  11.718  0.00  0.00    -0.036 C 
ATOM     16  H11 IMN d   1     -21.123  49.868  12.332  0.00  0.00     0.035 H 
ATOM     17  H12 IMN d   1     -21.549  50.345  10.653  0.00  0.00     0.035 H 
ATOM     18  H13 IMN d   1     -22.776  50.464  11.959  0.00  0.00     0.035 H 
ENDBRANCH   8  15
BRANCH   9  19
ATOM     19  C10 IMN d   1     -23.087  54.500   9.414  0.00  0.00     0.033 A 
ATOM     20  C11 IMN d   1     -24.318  55.236   9.658  0.00  0.00    -0.066 A 
ATOM     21  C12 IMN d   1     -24.717  56.359   8.830  0.00  0.00    -0.061 A 
ATOM     22  H7  IMN d   1     -24.956  54.937  10.482  0.00  0.00     0.085 H 
ATOM     23  C13 IMN d   1     -23.880  56.763   7.750  0.00  0.00     0.034 A 
ATOM     24  H8  IMN d   1     -25.643  56.886   9.031  0.00  0.00     0.086 H 
ATOM     25  C14 IMN d   1     -22.674  56.064   7.482  0.00  0.00    -0.061 A 
ATOM     26 CL   IMN d   1     -24.289  58.101   6.791  0.00  0.00    -0.084 Cl
ATOM     27  C15 IMN d   1     -22.266  54.940   8.304  0.00  0.00    -0.066 A 
ATOM     28  H9  IMN d   1     -22.049  56.374   6.652  0.00  0.00     0.086 H 
ATOM     29  H10 IMN d   1     -21.338  54.424   8.085  0.00  0.00     0.085 H 
ENDBRANCH   9  19
BRANCH   7  30
ATOM     30  C17 IMN d   1     -19.272  51.552  13.933  0.00  0.00     0.042 C 
ATOM     31  H14 IMN d   1     -18.245  51.760  13.599  0.00  0.00     0.056 H 
ATOM     32  H15 IMN d   1     -19.510  50.494  13.751  0.00  0.00     0.056 H 
BRANCH  30  33
ATOM     33  C18 IMN d   1     -19.253  51.716  15.460  0.00  0.00     0.177 C 
ATOM     34  O2  IMN d   1     -20.221  51.734  16.207  0.00  0.00    -0.648 OA
ATOM     35  O3  IMN d   1     -18.054  51.880  16.035  0.00  0.00    -0.648 OA
ENDBRANCH  30  33
ENDBRANCH   7  30
BRANCH   4  36
ATOM     36  O   IMN d   1     -18.450  57.004  14.174  0.00  0.00    -0.356 OA
BRANCH  36  37
ATOM     37  C6  IMN d   1     -18.393  58.450  14.094  0.00  0.00     0.010 C 
ATOM     38  H4  IMN d   1     -17.618  58.825  14.779  0.00  0.00     0.066 H 
ATOM     39  H5  IMN d   1     -19.369  58.872  14.378  0.00  0.00     0.066 H 
ATOM     40  H6  IMN d   1     -18.149  58.751  13.065  0.00  0.00     0.066 H 
ENDBRANCH  36  37
ENDBRANCH   4  36
TORSDOF 6
