REMARK  3 active torsions:
REMARK  status: ('A' for Active; 'I' for Inactive)
REMARK    1  A    between atoms: C1_1  and  O26_18 
REMARK    2  A    between atoms: C11_8  and  C13_10 
REMARK    3  A    between atoms: C17_13  and  O24_16 
ROOT
ATOM      1  C1  789 d   1      33.462  36.316  35.954  0.00  0.00     0.066 A 
ATOM      2  C2  789 d   1      32.816  35.635  37.042  0.00  0.00    -0.036 A 
ATOM      3  C3  789 d   1      31.542  36.130  37.456  0.00  0.00     0.029 A 
ATOM      4  C4  789 d   1      30.933  37.225  36.851  0.00  0.00    -0.003 A 
ATOM      5  C5  789 d   1      31.583  37.908  35.758  0.00  0.00    -0.068 A 
ATOM      6  C6  789 d   1      32.860  37.445  35.308  0.00  0.00    -0.050 A 
ATOM      7  C10 789 d   1      30.661  35.702  38.468  0.00  0.00     0.195 A 
ATOM      8  C11 789 d   1      29.435  36.580  38.485  0.00  0.00     0.043 A 
ATOM      9  C12 789 d   1      29.639  37.555  37.439  0.00  0.00     0.037 A 
ATOM     10  O25 789 d   1      30.864  34.750  39.220  0.00  0.00    -0.287 OA
ATOM     11 BR29 789 d   1      28.545  38.988  36.862  0.00  0.00    -0.049 Br
ATOM     12  H1  789 d   1      33.276  34.782  37.528  0.00  0.00     0.089 H 
ATOM     13  H2  789 d   1      31.110  38.761  35.284  0.00  0.00     0.085 H 
ATOM     14  H3  789 d   1      33.366  37.942  34.488  0.00  0.00     0.087 H 
ENDROOT
BRANCH   8  15
ATOM     15  C13 789 d   1      28.242  36.459  39.420  0.00  0.00    -0.020 A 
ATOM     16  C15 789 d   1      26.915  36.745  38.934  0.00  0.00    -0.070 A 
ATOM     17  C16 789 d   1      25.771  36.653  39.782  0.00  0.00    -0.050 A 
ATOM     18  H4  789 d   1      26.783  37.037  37.898  0.00  0.00     0.085 H 
ATOM     19  C17 789 d   1      25.956  36.266  41.138  0.00  0.00     0.065 A 
ATOM     20  H5  789 d   1      24.781  36.874  39.400  0.00  0.00     0.087 H 
ATOM     21  C18 789 d   1      27.257  35.968  41.657  0.00  0.00    -0.050 A 
ATOM     22  C19 789 d   1      28.402  36.065  40.797  0.00  0.00    -0.070 A 
ATOM     23  H6  789 d   1      27.376  35.671  42.693  0.00  0.00     0.087 H 
ATOM     24  H7  789 d   1      29.390  35.841  41.184  0.00  0.00     0.085 H 
BRANCH  19  25
ATOM     25  O24 789 d   1      24.849  36.183  41.942  0.00  0.00    -0.361 OA
ATOM     26  H8  789 d   1      24.763  35.295  42.270  0.00  0.00     0.217 HD
ENDBRANCH  19  25
ENDBRANCH   8  15
BRANCH   1  27
ATOM     27  O26 789 d   1      34.692  35.886  35.514  0.00  0.00    -0.361 OA
ATOM     28  H9  789 d   1      35.325  36.588  35.611  0.00  0.00     0.217 HD
ENDBRANCH   1  27
TORSDOF 3
