REMARK  13 active torsions:
REMARK  status: ('A' for Active; 'I' for Inactive)
REMARK    1  A    between atoms: C1_1  and  C2_6 
REMARK    2  A    between atoms: O1_11  and  C1_1 
REMARK    3  A    between atoms: C5_2  and  C6_3 
REMARK    4  A    between atoms: C4_4  and  C5_2 
REMARK    5  A    between atoms: C5_2  and  O5_15 
REMARK    6  A    between atoms: C6_3  and  O6_16 
REMARK    7  A    between atoms: C3_5  and  C4_4 
REMARK    8  A    between atoms: C4_4  and  O4_14 
REMARK    9  A    between atoms: C2_6  and  C3_5 
REMARK   10  A    between atoms: C3_5  and  O3_13 
REMARK   11  A    between atoms: C2_6  and  O2_12 
REMARK   12  A    between atoms: P1_8  and  O1_11 
REMARK   13  A    between atoms: O6_16  and  P6_17 
ROOT
ATOM      1  C4  M2P d   1       2.805 -30.232  49.972  0.00  0.00     0.089 C 
ATOM      2  H6  M2P d   1       2.706 -31.258  49.589  0.00  0.00     0.091 H 
ENDROOT
BRANCH   1   3
ATOM      3  C5  M2P d   1       2.509 -30.241  51.472  0.00  0.00     0.084 C 
ATOM      4  H3  M2P d   1       2.643 -29.228  51.880  0.00  0.00     0.090 H 
BRANCH   3   5
ATOM      5  C6  M2P d   1       1.068 -30.701  51.699  0.00  0.00     0.059 C 
ATOM      6  H4  M2P d   1       0.973 -31.751  51.384  0.00  0.00     0.079 H 
ATOM      7  H5  M2P d   1       0.393 -30.075  51.097  0.00  0.00     0.079 H 
BRANCH   5   8
ATOM      8  O6  M2P d   1       0.702 -30.592  53.075  0.00  0.00    -0.280 OA
BRANCH   8   9
ATOM      9  P6  M2P d   1      -0.780 -31.041  53.508  0.00  0.00     0.422 P 
ATOM     10  O62 M2P d   1      -0.875 -30.735  55.085  0.00  0.00    -0.617 OA
ATOM     11  O63 M2P d   1      -0.843 -32.639  53.329  0.00  0.00    -0.617 OA
ATOM     12  O61 M2P d   1      -1.820 -30.338  52.725  0.00  0.00    -0.617 OA
ENDBRANCH   8   9
ENDBRANCH   5   8
ENDBRANCH   3   5
BRANCH   3  13
ATOM     13  O5  M2P d   1       3.398 -31.145  52.133  0.00  0.00    -0.391 OA
ATOM     14  H12 M2P d   1       4.295 -30.867  51.990  0.00  0.00     0.210 HD
ENDBRANCH   3  13
ENDBRANCH   1   3
BRANCH   1  15
ATOM     15  C3  M2P d   1       4.221 -29.737  49.667  0.00  0.00     0.089 C 
ATOM     16  H7  M2P d   1       4.945 -30.341  50.233  0.00  0.00     0.091 H 
BRANCH  15  17
ATOM     17  C2  M2P d   1       4.525 -29.852  48.172  0.00  0.00     0.084 C 
ATOM     18  H8  M2P d   1       4.604 -28.839  47.750  0.00  0.00     0.090 H 
BRANCH  17  19
ATOM     19  C1  M2P d   1       5.847 -30.586  47.939  0.00  0.00     0.059 C 
ATOM     20  H1  M2P d   1       6.675 -29.969  48.318  0.00  0.00     0.079 H 
ATOM     21  H2  M2P d   1       5.981 -30.757  46.861  0.00  0.00     0.079 H 
BRANCH  19  22
ATOM     22  O1  M2P d   1       5.848 -31.844  48.619  0.00  0.00    -0.280 OA
BRANCH  22  23
ATOM     23  P1  M2P d   1       6.734 -33.072  48.071  0.00  0.00     0.422 P 
ATOM     24  O12 M2P d   1       8.114 -32.435  47.537  0.00  0.00    -0.617 OA
ATOM     25  O13 M2P d   1       5.951 -33.614  46.772  0.00  0.00    -0.617 OA
ATOM     26  O11 M2P d   1       6.946 -34.118  49.096  0.00  0.00    -0.617 OA
ENDBRANCH  22  23
ENDBRANCH  19  22
ENDBRANCH  17  19
BRANCH  17  27
ATOM     27  O2  M2P d   1       3.467 -30.550  47.507  0.00  0.00    -0.391 OA
ATOM     28  H9  M2P d   1       2.653 -30.075  47.624  0.00  0.00     0.210 HD
ENDBRANCH  17  27
ENDBRANCH  15  17
BRANCH  15  29
ATOM     29  O3  M2P d   1       4.336 -28.364  50.053  0.00  0.00    -0.390 OA
ATOM     30  H10 M2P d   1       4.149 -28.280  50.981  0.00  0.00     0.210 HD
ENDBRANCH  15  29
ENDBRANCH   1  15
BRANCH   1  31
ATOM     31  O4  M2P d   1       1.846 -29.395  49.319  0.00  0.00    -0.390 OA
ATOM     32  H11 M2P d   1       1.992 -29.420  48.381  0.00  0.00     0.210 HD
ENDBRANCH   1  31
TORSDOF 13
