REMARK  3 active torsions:
REMARK  status: ('A' for Active; 'I' for Inactive)
REMARK    1  A    between atoms: C1_1  and  N2_2 
REMARK       I    between atoms: N2_2  and  C3_3 
REMARK       I    between atoms: C3_3  and  N4_4 
REMARK    2  A    between atoms: N4_4  and  C5_5 
REMARK    3  A    between atoms: C5_5  and  C6_6 
ROOT
ATOM      1  C1  NC3 d   1     -18.003  -9.645  67.374  0.00  0.00     0.014 C 
ATOM      2  C10 NC3 d   1     -18.536 -11.110  67.422  0.00  0.00    -0.046 C 
ATOM      3  C11 NC3 d   1     -18.428 -11.734  68.843  0.00  0.00    -0.063 C 
ATOM      4  C12 NC3 d   1     -16.971 -11.653  69.389  0.00  0.00    -0.065 C 
ATOM      5  C13 NC3 d   1     -16.427 -10.193  69.330  0.00  0.00    -0.063 C 
ATOM      6  C14 NC3 d   1     -16.536  -9.610  67.895  0.00  0.00    -0.046 C 
ATOM      7  H1  NC3 d   1     -18.619  -9.027  68.043  0.00  0.00     0.072 H 
ATOM      8  H6  NC3 d   1     -17.949 -11.723  66.722  0.00  0.00     0.035 H 
ATOM      9  H7  NC3 d   1     -19.592 -11.112  67.115  0.00  0.00     0.035 H 
ATOM     10  H8  NC3 d   1     -18.734 -12.789  68.795  0.00  0.00     0.033 H 
ATOM     11  H9  NC3 d   1     -19.097 -11.189  69.525  0.00  0.00     0.033 H 
ATOM     12  H10 NC3 d   1     -16.323 -12.302  68.781  0.00  0.00     0.033 H 
ATOM     13  H11 NC3 d   1     -16.959 -11.998  70.433  0.00  0.00     0.033 H 
ATOM     14  H12 NC3 d   1     -15.371 -10.191  69.639  0.00  0.00     0.033 H 
ATOM     15  H13 NC3 d   1     -17.012  -9.564  70.018  0.00  0.00     0.033 H 
ATOM     16  H14 NC3 d   1     -16.185  -8.568  67.905  0.00  0.00     0.035 H 
ATOM     17  H15 NC3 d   1     -15.903 -10.203  67.219  0.00  0.00     0.035 H 
ENDROOT
BRANCH   1  18
ATOM     18  N2  NC3 d   1     -18.128  -9.086  65.977  0.00  0.00    -0.339 N 
ATOM     19  C3  NC3 d   1     -17.310  -8.103  65.377  0.00  0.00     0.316 C 
ATOM     20  N4  NC3 d   1     -17.655  -7.752  64.060  0.00  0.00    -0.333 N 
ATOM     21  O8  NC3 d   1     -16.386  -7.555  65.961  0.00  0.00    -0.247 OA
ATOM     22  H3  NC3 d   1     -18.430  -8.220  63.635  0.00  0.00     0.164 HD
ATOM     23  H2  NC3 d   1     -18.870  -9.451  65.415  0.00  0.00     0.164 HD
BRANCH  20  24
ATOM     24  C5  NC3 d   1     -16.928  -6.718  63.258  0.00  0.00     0.077 C 
ATOM     25  H4  NC3 d   1     -15.866  -6.992  63.178  0.00  0.00     0.080 H 
ATOM     26  H5  NC3 d   1     -17.018  -5.738  63.750  0.00  0.00     0.080 H 
BRANCH  24  27
ATOM     27  C6  NC3 d   1     -17.555  -6.649  61.844  0.00  0.00     0.191 C 
ATOM     28  O7  NC3 d   1     -17.185  -5.558  61.155  0.00  0.00    -0.647 OA
ATOM     29  O9  NC3 d   1     -18.295  -7.481  61.371  0.00  0.00    -0.647 OA
ENDBRANCH  24  27
ENDBRANCH  20  24
ENDBRANCH   1  18
TORSDOF 3
