REMARK  5 active torsions:
REMARK  status: ('A' for Active; 'I' for Inactive)
REMARK    1  A    between atoms: C1_1  and  N2_2 
REMARK       I    between atoms: N2_2  and  C3_3 
REMARK       I    between atoms: C3_3  and  N4_4 
REMARK    2  A    between atoms: N4_4  and  C5_5 
REMARK    3  A    between atoms: C5_5  and  C6_6 
REMARK    4  A    between atoms: C6_6  and  C7_7 
REMARK    5  A    between atoms: C7_7  and  C8_8 
ROOT
ATOM      1  N2  NC4 d   1     -18.020  -7.760  64.421  0.00  0.00    -0.339 N 
ATOM      2  C3  NC4 d   1     -17.779  -8.993  64.963  0.00  0.00     0.316 C 
ATOM      3  N4  NC4 d   1     -18.227  -9.162  66.244  0.00  0.00    -0.343 N 
ATOM      4  O10 NC4 d   1     -17.204  -9.861  64.366  0.00  0.00    -0.247 OA
ATOM      5  H2  NC4 d   1     -18.499  -7.087  64.985  0.00  0.00     0.164 HD
ATOM      6  H3  NC4 d   1     -18.706  -8.406  66.689  0.00  0.00     0.164 HD
ENDROOT
BRANCH   1   7
ATOM      7  C1  NC4 d   1     -17.621  -7.361  63.066  0.00  0.00     0.014 C 
ATOM      8  C12 NC4 d   1     -18.601  -6.301  62.494  0.00  0.00    -0.046 C 
ATOM      9  C13 NC4 d   1     -18.189  -5.869  61.070  0.00  0.00    -0.063 C 
ATOM     10  H10 NC4 d   1     -18.599  -5.419  63.151  0.00  0.00     0.035 H 
ATOM     11  H11 NC4 d   1     -19.613  -6.730  62.460  0.00  0.00     0.035 H 
ATOM     12  C14 NC4 d   1     -16.741  -5.323  61.053  0.00  0.00    -0.065 C 
ATOM     13  H12 NC4 d   1     -18.874  -5.083  60.720  0.00  0.00     0.033 H 
ATOM     14  H13 NC4 d   1     -18.254  -6.737  60.398  0.00  0.00     0.033 H 
ATOM     15  C15 NC4 d   1     -15.730  -6.336  61.654  0.00  0.00    -0.063 C 
ATOM     16  H14 NC4 d   1     -16.705  -4.394  61.641  0.00  0.00     0.033 H 
ATOM     17  H15 NC4 d   1     -16.454  -5.110  60.013  0.00  0.00     0.033 H 
ATOM     18  C16 NC4 d   1     -16.178  -6.780  63.076  0.00  0.00    -0.046 C 
ATOM     19  H16 NC4 d   1     -14.739  -5.862  61.719  0.00  0.00     0.033 H 
ATOM     20  H17 NC4 d   1     -15.672  -7.219  61.001  0.00  0.00     0.033 H 
ATOM     21  H18 NC4 d   1     -15.485  -7.551  63.444  0.00  0.00     0.035 H 
ATOM     22  H19 NC4 d   1     -16.148  -5.909  63.748  0.00  0.00     0.035 H 
ATOM     23  H1  NC4 d   1     -17.642  -8.249  62.418  0.00  0.00     0.072 H 
ENDBRANCH   1   7
BRANCH   3  24
ATOM     24  C5  NC4 d   1     -18.032 -10.410  66.990  0.00  0.00    -0.003 C 
ATOM     25  H4  NC4 d   1     -17.032 -10.815  66.775  0.00  0.00     0.064 H 
ATOM     26  H5  NC4 d   1     -18.796 -11.142  66.690  0.00  0.00     0.064 H 
BRANCH  24  27
ATOM     27  C6  NC4 d   1     -18.158 -10.123  68.492  0.00  0.00    -0.041 C 
ATOM     28  H6  NC4 d   1     -19.075 -10.601  68.867  0.00  0.00     0.036 H 
ATOM     29  H7  NC4 d   1     -18.225  -9.035  68.639  0.00  0.00     0.036 H 
BRANCH  27  30
ATOM     30  C7  NC4 d   1     -16.956 -10.658  69.297  0.00  0.00     0.017 C 
ATOM     31  H8  NC4 d   1     -16.042 -10.174  68.922  0.00  0.00     0.049 H 
ATOM     32  H9  NC4 d   1     -16.887 -11.744  69.139  0.00  0.00     0.049 H 
BRANCH  30  33
ATOM     33  C8  NC4 d   1     -17.063 -10.393  70.797  0.00  0.00     0.172 C 
ATOM     34  O9  NC4 d   1     -15.995 -10.873  71.468  0.00  0.00    -0.648 OA
ATOM     35  O11 NC4 d   1     -17.961  -9.831  71.377  0.00  0.00    -0.648 OA
ENDBRANCH  30  33
ENDBRANCH  27  30
ENDBRANCH  24  27
ENDBRANCH   3  24
TORSDOF 5
