REMARK  8 active torsions:
REMARK  status: ('A' for Active; 'I' for Inactive)
REMARK    1  A    between atoms: C1_1  and  N2_2 
REMARK       I    between atoms: N2_2  and  C3_3 
REMARK       I    between atoms: C3_3  and  N4_4 
REMARK    2  A    between atoms: N4_4  and  C5_5 
REMARK    3  A    between atoms: C5_5  and  C6_6 
REMARK    4  A    between atoms: C6_6  and  C7_7 
REMARK    5  A    between atoms: C7_7  and  C8_8 
REMARK    6  A    between atoms: C8_8  and  C9_9 
REMARK    7  A    between atoms: C9_9  and  C11_11 
REMARK    8  A    between atoms: C11_11  and  C12_12 
ROOT
ATOM      1  N2  NC7 d   1     -18.493  -8.974  66.248  0.00  0.00    -0.339 N 
ATOM      2  C3  NC7 d   1     -17.894  -8.586  65.071  0.00  0.00     0.316 C 
ATOM      3  N4  NC7 d   1     -18.335  -7.433  64.489  0.00  0.00    -0.343 N 
ATOM      4  O10 NC7 d   1     -16.918  -9.145  64.646  0.00  0.00    -0.247 OA
ATOM      5  H2  NC7 d   1     -19.315  -8.496  66.559  0.00  0.00     0.164 HD
ATOM      6  H3  NC7 d   1     -19.165  -6.950  64.767  0.00  0.00     0.164 HD
ENDROOT
BRANCH   3   7
ATOM      7  C5  NC7 d   1     -17.468  -6.993  63.429  0.00  0.00    -0.003 C 
ATOM      8  H4  NC7 d   1     -16.466  -7.397  63.638  0.00  0.00     0.064 H 
ATOM      9  H5  NC7 d   1     -17.436  -5.894  63.469  0.00  0.00     0.064 H 
BRANCH   7  10
ATOM     10  C6  NC7 d   1     -17.825  -7.386  61.988  0.00  0.00    -0.050 C 
ATOM     11  H6  NC7 d   1     -18.736  -6.888  61.624  0.00  0.00     0.035 H 
ATOM     12  H7  NC7 d   1     -17.923  -8.473  61.855  0.00  0.00     0.035 H 
BRANCH  10  13
ATOM     13  C7  NC7 d   1     -16.571  -6.834  61.363  0.00  0.00    -0.064 C 
ATOM     14  H8  NC7 d   1     -15.742  -7.375  61.842  0.00  0.00     0.033 H 
ATOM     15  H9  NC7 d   1     -16.537  -5.775  61.660  0.00  0.00     0.033 H 
BRANCH  13  16
ATOM     16  C8  NC7 d   1     -16.261  -6.848  59.889  0.00  0.00    -0.065 C 
ATOM     17  H10 NC7 d   1     -16.930  -6.205  59.298  0.00  0.00     0.033 H 
ATOM     18  H11 NC7 d   1     -16.249  -7.860  59.457  0.00  0.00     0.033 H 
BRANCH  16  19
ATOM     19  C9  NC7 d   1     -14.858  -6.252  60.077  0.00  0.00    -0.056 C 
ATOM     20  H12 NC7 d   1     -14.318  -6.938  60.747  0.00  0.00     0.033 H 
ATOM     21  H13 NC7 d   1     -14.999  -5.284  60.580  0.00  0.00     0.033 H 
BRANCH  19  22
ATOM     22  C11 NC7 d   1     -13.942  -5.993  58.910  0.00  0.00     0.016 C 
ATOM     23  H14 NC7 d   1     -14.389  -5.233  58.252  0.00  0.00     0.049 H 
ATOM     24  H15 NC7 d   1     -13.792  -6.925  58.345  0.00  0.00     0.049 H 
BRANCH  22  25
ATOM     25  C12 NC7 d   1     -12.589  -5.487  59.436  0.00  0.00     0.172 C 
ATOM     26  O13 NC7 d   1     -11.769  -5.230  58.412  0.00  0.00    -0.648 OA
ATOM     27  O14 NC7 d   1     -12.238  -5.312  60.610  0.00  0.00    -0.648 OA
ENDBRANCH  22  25
ENDBRANCH  19  22
ENDBRANCH  16  19
ENDBRANCH  13  16
ENDBRANCH  10  13
ENDBRANCH   7  10
ENDBRANCH   3   7
BRANCH   1  28
ATOM     28  C1  NC7 d   1     -17.951 -10.079  67.062  0.00  0.00     0.014 C 
ATOM     29  C15 NC7 d   1     -17.644  -9.584  68.490  0.00  0.00    -0.046 C 
ATOM     30  C16 NC7 d   1     -17.107 -10.726  69.384  0.00  0.00    -0.063 C 
ATOM     31  H16 NC7 d   1     -18.567  -9.185  68.936  0.00  0.00     0.035 H 
ATOM     32  H17 NC7 d   1     -16.888  -8.787  68.437  0.00  0.00     0.035 H 
ATOM     33  C17 NC7 d   1     -18.092 -11.923  69.427  0.00  0.00    -0.065 C 
ATOM     34  H18 NC7 d   1     -16.964 -10.344  70.405  0.00  0.00     0.033 H 
ATOM     35  H19 NC7 d   1     -16.142 -11.071  68.983  0.00  0.00     0.033 H 
ATOM     36  C18 NC7 d   1     -18.454 -12.413  68.004  0.00  0.00    -0.063 C 
ATOM     37  H20 NC7 d   1     -19.012 -11.610  69.942  0.00  0.00     0.033 H 
ATOM     38  H21 NC7 d   1     -17.625 -12.750  69.981  0.00  0.00     0.033 H 
ATOM     39  C19 NC7 d   1     -18.987 -11.246  67.128  0.00  0.00    -0.046 C 
ATOM     40  H22 NC7 d   1     -19.230 -13.190  68.078  0.00  0.00     0.033 H 
ATOM     41  H23 NC7 d   1     -17.556 -12.836  67.531  0.00  0.00     0.033 H 
ATOM     42  H24 NC7 d   1     -19.176 -11.617  66.110  0.00  0.00     0.035 H 
ATOM     43  H25 NC7 d   1     -19.925 -10.870  67.561  0.00  0.00     0.035 H 
ATOM     44  H1  NC7 d   1     -17.023 -10.445  66.599  0.00  0.00     0.072 H 
ENDBRANCH   1  28
TORSDOF 8
