REMARK  14 active torsions:
REMARK  status: ('A' for Active; 'I' for Inactive)
REMARK    1  A    between atoms: C1_1  and  C26_15 
REMARK    2  A    between atoms: C2_2  and  O36_18 
REMARK    3  A    between atoms: C3_3  and  C16_12 
REMARK    4  A    between atoms: N9_8  and  C11_10 
REMARK    5  A    between atoms: C16_12  and  C17_13 
REMARK    6  A    between atoms: C17_13  and  C20_14 
REMARK    7  A    between atoms: C26_15  and  C27_16 
REMARK    8  A    between atoms: C27_16  and  C30_17 
REMARK    9  A    between atoms: O36_18  and  C37_19 
REMARK   10  A    between atoms: C37_19  and  C38_20 
REMARK   11  A    between atoms: C37_19  and  C39_21 
REMARK   12  A    between atoms: C42_24  and  C49_27 
REMARK   13  A    between atoms: C49_27  and  C50_28 
REMARK   14  A    between atoms: C49_27  and  C54_29 
ROOT
ATOM      1  C1  C01 d   1      21.343   6.189  14.894  0.00  0.00    -0.023 A 
ATOM      2  C2  C01 d   1      21.307   7.055  16.046  0.00  0.00     0.086 A 
ATOM      3  C3  C01 d   1      21.941   8.383  15.958  0.00  0.00     0.013 A 
ATOM      4  C4  C01 d   1      22.568   8.737  14.691  0.00  0.00     0.124 A 
ATOM      5  C5  C01 d   1      22.567   7.848  13.604  0.00  0.00     0.071 A 
ATOM      6  C6  C01 d   1      21.986   6.599  13.684  0.00  0.00    -0.056 A 
ATOM      7  O8  C01 d   1      23.248   9.919  14.311  0.00  0.00    -0.232 OA
ATOM      8  N9  C01 d   1      23.651   9.670  12.939  0.00  0.00    -0.220 N 
ATOM      9  C10 C01 d   1      23.282   8.446  12.482  0.00  0.00     0.280 A 
ATOM     10  O15 C01 d   1      23.497   7.990  11.354  0.00  0.00    -0.265 OA
ATOM     11  H1  C01 d   1      22.017   5.930  12.832  0.00  0.00     0.086 H 
ENDROOT
BRANCH   2  12
ATOM     12  O36 C01 d   1      20.665   6.588  17.254  0.00  0.00    -0.329 OA
BRANCH  12  13
ATOM     13  C37 C01 d   1      19.393   7.151  17.672  0.00  0.00     0.154 C 
ATOM     14  H19 C01 d   1      19.437   8.236  17.495  0.00  0.00     0.109 H 
BRANCH  13  15
ATOM     15  C38 C01 d   1      18.242   6.598  16.845  0.00  0.00    -0.019 A 
ATOM     16  C40 C01 d   1      17.574   7.479  15.972  0.00  0.00    -0.073 A 
ATOM     17  C41 C01 d   1      16.511   7.047  15.161  0.00  0.00    -0.076 A 
ATOM     18  H20 C01 d   1      17.888   8.515  15.925  0.00  0.00     0.084 H 
ATOM     19  C42 C01 d   1      16.055   5.712  15.191  0.00  0.00    -0.055 A 
ATOM     20  H21 C01 d   1      16.030   7.756  14.497  0.00  0.00     0.084 H 
ATOM     21  C43 C01 d   1      16.721   4.793  16.077  0.00  0.00    -0.076 A 
ATOM     22  C44 C01 d   1      17.804   5.227  16.906  0.00  0.00    -0.073 A 
ATOM     23  H22 C01 d   1      16.398   3.759  16.117  0.00  0.00     0.084 H 
ATOM     24  H23 C01 d   1      18.292   4.528  17.576  0.00  0.00     0.084 H 
BRANCH  19  25
ATOM     25  C49 C01 d   1      14.887   5.321  14.277  0.00  0.00    -0.036 C 
ATOM     26  H24 C01 d   1      14.390   6.251  13.965  0.00  0.00     0.046 H 
BRANCH  25  27
ATOM     27  C50 C01 d   1      15.364   4.613  13.008  0.00  0.00    -0.069 C 
ATOM     28  H25 C01 d   1      14.496   4.352  12.385  0.00  0.00     0.028 H 
ATOM     29  H26 C01 d   1      15.907   3.696  13.282  0.00  0.00     0.028 H 
ATOM     30  H27 C01 d   1      16.032   5.281  12.444  0.00  0.00     0.028 H 
ENDBRANCH  25  27
BRANCH  25  31
ATOM     31  C54 C01 d   1      13.847   4.472  15.033  0.00  0.00    -0.069 C 
ATOM     32  H28 C01 d   1      13.525   5.007  15.938  0.00  0.00     0.028 H 
ATOM     33  H29 C01 d   1      14.296   3.509  15.317  0.00  0.00     0.028 H 
ATOM     34  H30 C01 d   1      12.977   4.293  14.383  0.00  0.00     0.028 H 
ENDBRANCH  25  31
ENDBRANCH  19  25
ENDBRANCH  13  15
BRANCH  13  35
ATOM     35  C39 C01 d   1      19.149   6.932  19.207  0.00  0.00     0.208 C 
ATOM     36  O60 C01 d   1      18.093   7.017  19.752  0.00  0.00    -0.646 OA
ATOM     37  O61 C01 d   1      20.278   6.658  19.877  0.00  0.00    -0.646 OA
ENDBRANCH  13  35
ENDBRANCH  12  13
ENDBRANCH   2  12
BRANCH   1  38
ATOM     38  C26 C01 d   1      20.737   4.817  14.899  0.00  0.00    -0.039 C 
ATOM     39  H12 C01 d   1      20.270   4.633  15.877  0.00  0.00     0.040 H 
ATOM     40  H13 C01 d   1      21.528   4.073  14.724  0.00  0.00     0.040 H 
BRANCH  38  41
ATOM     41  C27 C01 d   1      19.680   4.689  13.808  0.00  0.00    -0.065 C 
ATOM     42  H14 C01 d   1      20.142   4.902  12.833  0.00  0.00     0.032 H 
ATOM     43  H15 C01 d   1      18.875   5.414  13.999  0.00  0.00     0.032 H 
BRANCH  41  44
ATOM     44  C30 C01 d   1      19.093   3.291  13.784  0.00  0.00    -0.076 C 
ATOM     45  H16 C01 d   1      18.335   3.225  12.990  0.00  0.00     0.027 H 
ATOM     46  H17 C01 d   1      18.626   3.073  14.756  0.00  0.00     0.027 H 
ATOM     47  H18 C01 d   1      19.892   2.561  13.589  0.00  0.00     0.027 H 
ENDBRANCH  41  44
ENDBRANCH  38  41
ENDBRANCH   1  38
BRANCH   3  48
ATOM     48  C16 C01 d   1      21.978   9.375  17.135  0.00  0.00    -0.036 C 
ATOM     49  H5  C01 d   1      22.854  10.025  16.994  0.00  0.00     0.040 H 
ATOM     50  H6  C01 d   1      22.100   8.790  18.059  0.00  0.00     0.040 H 
BRANCH  48  51
ATOM     51  C17 C01 d   1      20.754  10.282  17.319  0.00  0.00    -0.065 C 
ATOM     52  H7  C01 d   1      19.861   9.654  17.455  0.00  0.00     0.032 H 
ATOM     53  H8  C01 d   1      20.631  10.904  16.420  0.00  0.00     0.032 H 
BRANCH  51  54
ATOM     54  C20 C01 d   1      20.910  11.190  18.531  0.00  0.00    -0.076 C 
ATOM     55  H9  C01 d   1      20.017  11.824  18.631  0.00  0.00     0.027 H 
ATOM     56  H10 C01 d   1      21.798  11.826  18.401  0.00  0.00     0.027 H 
ATOM     57  H11 C01 d   1      21.028  10.576  19.436  0.00  0.00     0.027 H 
ENDBRANCH  51  54
ENDBRANCH  48  51
ENDBRANCH   3  48
BRANCH   8  58
ATOM     58  C11 C01 d   1      24.403  10.608  12.096  0.00  0.00     0.010 C 
ATOM     59  H2  C01 d   1      24.569  10.159  11.106  0.00  0.00     0.060 H 
ATOM     60  H3  C01 d   1      25.373  10.827  12.566  0.00  0.00     0.060 H 
ATOM     61  H4  C01 d   1      23.830  11.540  11.984  0.00  0.00     0.060 H 
ENDBRANCH   8  58
TORSDOF 14
