REMARK  6 active torsions:
REMARK  status: ('A' for Active; 'I' for Inactive)
REMARK    1  A    between atoms: S1_1  and  N24_2 
REMARK    2  A    between atoms: S1_1  and  C2_5 
REMARK    3  A    between atoms: C5_8  and  N8_9 
REMARK       I    between atoms: N8_9  and  C9_10 
REMARK       I    between atoms: C9_10  and  N10_12 
REMARK    4  A    between atoms: N10_12  and  S11_13 
REMARK    5  A    between atoms: S11_13  and  C12_16 
REMARK    6  A    between atoms: C18_19  and  C21_20 
ROOT
ATOM      1  N8  NR2 d   1      17.192   7.412  13.645  0.00  0.00    -0.308 N 
ATOM      2  C9  NR2 d   1      18.419   7.763  13.211  0.00  0.00     0.334 C 
ATOM      3  O13 NR2 d   1      19.439   7.117  13.411  0.00  0.00    -0.246 OA
ATOM      4  N10 NR2 d   1      18.447   8.912  12.513  0.00  0.00    -0.232 N 
ATOM      5  H5  NR2 d   1      16.444   8.031  13.405  0.00  0.00     0.170 HD
ATOM      6  H6  NR2 d   1      17.620   9.473  12.541  0.00  0.00     0.183 HD
ENDROOT
BRANCH   1   7
ATOM      7  C5  NR2 d   1      16.841   6.273  14.399  0.00  0.00     0.036 A 
ATOM      8  C6  NR2 d   1      15.493   6.114  14.739  0.00  0.00    -0.056 A 
ATOM      9  C7  NR2 d   1      15.078   5.008  15.472  0.00  0.00    -0.058 A 
ATOM     10  H4  NR2 d   1      14.768   6.858  14.429  0.00  0.00     0.087 H 
ATOM     11  C2  NR2 d   1      16.005   4.027  15.887  0.00  0.00     0.079 A 
ATOM     12  H3  NR2 d   1      14.030   4.897  15.728  0.00  0.00     0.086 H 
ATOM     13  C3  NR2 d   1      17.344   4.179  15.549  0.00  0.00    -0.058 A 
ATOM     14  C4  NR2 d   1      17.753   5.298  14.804  0.00  0.00    -0.056 A 
ATOM     15  H15 NR2 d   1      18.071   3.437  15.859  0.00  0.00     0.086 H 
ATOM     16  H14 NR2 d   1      18.798   5.406  14.539  0.00  0.00     0.087 H 
BRANCH  11  17
ATOM     17  S1  NR2 d   1      15.326   2.693  16.808  0.00  0.00     0.256 S 
ATOM     18  O23 NR2 d   1      13.884   2.766  16.674  0.00  0.00    -0.201 OA
ATOM     19  O22 NR2 d   1      15.867   2.848  18.157  0.00  0.00    -0.201 OA
BRANCH  17  20
ATOM     20  N24 NR2 d   1      15.814   1.432  16.169  0.00  0.00    -0.324 N 
ATOM     21  H1  NR2 d   1      15.523   1.196  15.242  0.00  0.00     0.169 HD
ATOM     22  H2  NR2 d   1      16.431   0.825  16.669  0.00  0.00     0.169 HD
ENDBRANCH  17  20
ENDBRANCH  11  17
ENDBRANCH   1   7
BRANCH   4  23
ATOM     23  S11 NR2 d   1      19.589   9.440  11.697  0.00  0.00     0.266 S 
ATOM     24  O15 NR2 d   1      20.558   8.443  11.316  0.00  0.00    -0.200 OA
ATOM     25  O14 NR2 d   1      19.017  10.296  10.664  0.00  0.00    -0.200 OA
BRANCH  23  26
ATOM     26  C12 NR2 d   1      20.337  10.474  12.920  0.00  0.00     0.080 A 
ATOM     27  C20 NR2 d   1      21.728  10.402  13.085  0.00  0.00    -0.060 A 
ATOM     28  C19 NR2 d   1      22.343  11.210  14.045  0.00  0.00    -0.076 A 
ATOM     29  H7  NR2 d   1      22.319   9.728  12.475  0.00  0.00     0.085 H 
ATOM     30  C18 NR2 d   1      21.568  12.071  14.824  0.00  0.00    -0.062 A 
ATOM     31  H8  NR2 d   1      23.417  11.168  14.184  0.00  0.00     0.084 H 
ATOM     32  C17 NR2 d   1      20.189  12.134  14.652  0.00  0.00    -0.076 A 
ATOM     33  C16 NR2 d   1      19.573  11.331  13.695  0.00  0.00    -0.060 A 
ATOM     34  H12 NR2 d   1      19.596  12.806  15.261  0.00  0.00     0.084 H 
ATOM     35  H13 NR2 d   1      18.499  11.377  13.557  0.00  0.00     0.085 H 
BRANCH  30  36
ATOM     36  C21 NR2 d   1      22.228  12.957  15.869  0.00  0.00    -0.051 C 
ATOM     37  H9  NR2 d   1      21.460  13.559  16.377  0.00  0.00     0.033 H 
ATOM     38  H10 NR2 d   1      22.953  13.624  15.379  0.00  0.00     0.033 H 
ATOM     39  H11 NR2 d   1      22.748  12.329  16.607  0.00  0.00     0.033 H 
ENDBRANCH  30  36
ENDBRANCH  23  26
ENDBRANCH   4  23
TORSDOF 6
