REMARK  28 active torsions:
REMARK  status: ('A' for Active; 'I' for Inactive)
REMARK    1  A    between atoms: C_1  and  C1_3 
REMARK       I    between atoms: N_10  and  C_1 
REMARK    2  A    between atoms: C2_4  and  N2_6 
REMARK    3  A    between atoms: CA_11  and  N_10 
REMARK    4  A    between atoms: C_12  and  CA_11 
REMARK    5  A    between atoms: CA_11  and  CB_14 
REMARK       I    between atoms: N_19  and  C_12 
REMARK    6  A    between atoms: CB_14  and  CG_15 
REMARK    7  A    between atoms: CG_15  and  CD_16 
REMARK    8  A    between atoms: CA_20  and  N_19 
REMARK    9  A    between atoms: CA_20  and  CB_23 
REMARK   10  A    between atoms: C_21  and  CA_20 
REMARK       I    between atoms: C_21  and  N_35 
REMARK   11  A    between atoms: CB_23  and  CG_24 
REMARK   12  A    between atoms: CZ_29  and  OH_30 
REMARK   13  A    between atoms: OH_30  and  P_31 
REMARK   14  A    between atoms: N_35  and  CA_36 
REMARK   15  A    between atoms: CA_36  and  C_37 
REMARK   16  A    between atoms: CA_36  and  CB_39 
REMARK       I    between atoms: C_37  and  N_43 
REMARK   17  A    between atoms: CB_39  and  CG1_40 
REMARK   18  A    between atoms: CB_39  and  CG2_41 
REMARK   19  A    between atoms: CG1_40  and  CD1_42 
REMARK   20  A    between atoms: N_43  and  CA_44 
REMARK   21  A    between atoms: CA_44  and  C_45 
REMARK   22  A    between atoms: CA_44  and  CB_47 
REMARK       I    between atoms: C_45  and  N_51 
REMARK   23  A    between atoms: CB_47  and  CG_48 
REMARK       I    between atoms: CG_48  and  ND2_50 
REMARK   24  A    between atoms: N_51  and  CA_52 
REMARK   25  A    between atoms: CA_52  and  C_53 
REMARK   26  A    between atoms: CA_52  and  CB_55 
REMARK       I    between atoms: C_53  and  N_60 
REMARK   27  A    between atoms: CB_55  and  CG_56 
REMARK   28  A    between atoms: CG_56  and  CD_57 
REMARK       I    between atoms: CD_57  and  NE2_59 
ROOT
ATOM      1  C   PTR d   1      32.435  31.581  73.682  0.00  0.00     0.241 C 
ATOM      2  O   PTR d   1      31.789  30.595  73.334  0.00  0.00    -0.271 OA
ATOM      3  N   ILE d   1      32.906  32.490  72.815  0.00  0.00    -0.346 N 
ATOM      4  H21 ILE d   1      33.416  33.277  73.162  0.00  0.00     0.163 HD
ENDROOT
BRANCH   1   5
ATOM      5  CA  PTR d   1      32.707  31.818  75.165  0.00  0.00     0.093 C 
ATOM      6  H14 PTR d   1      32.920  32.885  75.328  0.00  0.00     0.088 H 
BRANCH   5   7
ATOM      7  N   PTR d   1      31.496  31.473  75.870  0.00  0.00    -0.346 N 
ATOM      8  C   GLU d   1      30.839  32.328  76.649  0.00  0.00     0.241 C 
ATOM      9  O   GLU d   1      31.213  33.478  76.864  0.00  0.00    -0.271 OA
ATOM     10  H13 PTR d   1      31.133  30.547  75.768  0.00  0.00     0.163 HD
BRANCH   8  11
ATOM     11  CA  GLU d   1      29.550  31.802  77.271  0.00  0.00     0.090 C 
ATOM     12  H8  GLU d   1      29.557  30.702  77.254  0.00  0.00     0.087 H 
BRANCH  11  13
ATOM     13  CB  GLU d   1      28.350  32.314  76.451  0.00  0.00    -0.029 C 
ATOM     14  H9  GLU d   1      28.349  33.413  76.496  0.00  0.00     0.037 H 
ATOM     15  H10 GLU d   1      27.430  31.927  76.913  0.00  0.00     0.037 H 
BRANCH  13  16
ATOM     16  CG  GLU d   1      28.353  31.895  74.967  0.00  0.00     0.018 C 
ATOM     17  H11 GLU d   1      28.219  30.805  74.904  0.00  0.00     0.049 H 
ATOM     18  H12 GLU d   1      29.320  32.172  74.521  0.00  0.00     0.049 H 
BRANCH  16  19
ATOM     19  CD  GLU d   1      27.248  32.568  74.194  0.00  0.00     0.172 C 
ATOM     20  OE1 GLU d   1      26.192  32.912  74.704  0.00  0.00    -0.648 OA
ATOM     21  OE2 GLU d   1      27.593  32.864  72.968  0.00  0.00    -0.648 OA
ENDBRANCH  16  19
ENDBRANCH  13  16
ENDBRANCH  11  13
BRANCH  11  22
ATOM     22  N   GLU d   1      29.458  32.257  78.651  0.00  0.00    -0.344 N 
ATOM     23  C   BE2 d   1      30.194  31.711  79.620  0.00  0.00     0.254 C 
ATOM     24  O1  BE2 d   1      30.967  30.775  79.412  0.00  0.00    -0.268 OA
ATOM     25  H7  GLU d   1      28.826  32.998  78.878  0.00  0.00     0.163 HD
BRANCH  23  26
ATOM     26  C1  BE2 d   1      30.051  32.254  80.923  0.00  0.00     0.058 A 
ATOM     27  C6  BE2 d   1      28.883  32.935  81.263  0.00  0.00    -0.066 A 
ATOM     28  C5  BE2 d   1      28.735  33.501  82.530  0.00  0.00    -0.082 A 
ATOM     29  H6  BE2 d   1      28.083  33.026  80.537  0.00  0.00     0.085 H 
ATOM     30  C4  BE2 d   1      29.765  33.406  83.458  0.00  0.00    -0.081 A 
ATOM     31  H5  BE2 d   1      27.817  34.015  82.790  0.00  0.00     0.083 H 
ATOM     32  C3  BE2 d   1      30.941  32.735  83.126  0.00  0.00    -0.057 A 
ATOM     33  H4  BE2 d   1      29.654  33.853  84.439  0.00  0.00     0.083 H 
ATOM     34  C2  BE2 d   1      31.098  32.158  81.864  0.00  0.00     0.041 A 
ATOM     35  H1  BE2 d   1      31.741  32.660  83.854  0.00  0.00     0.086 H 
BRANCH  34  36
ATOM     36  N2  BE2 d   1      32.245  31.536  81.599  0.00  0.00    -0.398 N 
ATOM     37  H2  BE2 d   1      32.393  31.100  80.678  0.00  0.00     0.156 HD
ATOM     38  H3  BE2 d   1      32.984  31.491  82.315  0.00  0.00     0.156 HD
ENDBRANCH  34  36
ENDBRANCH  23  26
ENDBRANCH  11  22
ENDBRANCH   8  11
ENDBRANCH   5   7
BRANCH   5  39
ATOM     39  CB  PTR d   1      33.906  31.027  75.629  0.00  0.00    -0.014 C 
ATOM     40  H15 PTR d   1      34.743  31.258  74.953  0.00  0.00     0.043 H 
ATOM     41  H16 PTR d   1      33.655  29.959  75.549  0.00  0.00     0.043 H 
BRANCH  39  42
ATOM     42  CG  PTR d   1      34.343  31.272  76.960  0.00  0.00    -0.056 A 
ATOM     43  CD2 PTR d   1      33.979  30.430  78.027  0.00  0.00    -0.074 A 
ATOM     44  CE2 PTR d   1      34.438  30.650  79.336  0.00  0.00    -0.050 A 
ATOM     45  H18 PTR d   1      33.325  29.587  77.833  0.00  0.00     0.084 H 
ATOM     46  CZ  PTR d   1      35.276  31.727  79.636  0.00  0.00     0.082 A 
ATOM     47  H20 PTR d   1      34.137  29.973  80.127  0.00  0.00     0.087 H 
ATOM     48  CE1 PTR d   1      35.701  32.562  78.591  0.00  0.00    -0.050 A 
ATOM     49  CD1 PTR d   1      35.221  32.337  77.271  0.00  0.00    -0.074 A 
ATOM     50  H19 PTR d   1      36.391  33.374  78.789  0.00  0.00     0.087 H 
ATOM     51  H17 PTR d   1      35.538  33.004  76.477  0.00  0.00     0.084 H 
BRANCH  46  52
ATOM     52  OH  PTR d   1      35.739  31.821  80.948  0.00  0.00    -0.240 OA
BRANCH  52  53
ATOM     53  P   PTR d   1      35.601  33.009  81.778  0.00  0.00     0.427 P 
ATOM     54  O3P PTR d   1      36.871  33.471  82.010  0.00  0.00    -0.617 OA
ATOM     55  O2P PTR d   1      34.825  34.019  81.213  0.00  0.00    -0.617 OA
ATOM     56  O1P PTR d   1      35.037  32.612  82.979  0.00  0.00    -0.617 OA
ENDBRANCH  52  53
ENDBRANCH  46  52
ENDBRANCH  39  42
ENDBRANCH   5  39
ENDBRANCH   1   5
BRANCH   3  57
ATOM     57  CA  ILE d   1      32.692  32.358  71.379  0.00  0.00     0.092 C 
ATOM     58  H22 ILE d   1      31.608  32.289  71.205  0.00  0.00     0.088 H 
BRANCH  57  59
ATOM     59  C   ILE d   1      33.340  31.092  70.841  0.00  0.00     0.241 C 
ATOM     60  O   ILE d   1      32.757  30.373  70.025  0.00  0.00    -0.271 OA
ATOM     61  N   ASN d   1      34.565  30.830  71.295  0.00  0.00    -0.346 N 
ATOM     62  H32 ASN d   1      34.976  31.444  71.969  0.00  0.00     0.163 HD
BRANCH  61  63
ATOM     63  CA  ASN d   1      35.320  29.676  70.837  0.00  0.00     0.097 C 
ATOM     64  H33 ASN d   1      34.947  29.479  69.821  0.00  0.00     0.088 H 
BRANCH  63  65
ATOM     65  C   ASN d   1      35.114  28.375  71.589  0.00  0.00     0.241 C 
ATOM     66  O   ASN d   1      35.948  27.488  71.486  0.00  0.00    -0.271 OA
ATOM     67  N   GLN d   1      34.011  28.277  72.323  0.00  0.00    -0.346 N 
ATOM     68  H38 GLN d   1      33.385  29.056  72.357  0.00  0.00     0.163 HD
BRANCH  67  69
ATOM     69  CA  GLN d   1      33.678  27.078  73.081  0.00  0.00     0.089 C 
ATOM     70  H39 GLN d   1      34.366  26.266  72.803  0.00  0.00     0.087 H 
BRANCH  69  71
ATOM     71  C   GLN d   1      32.243  26.682  72.762  0.00  0.00     0.238 C 
ATOM     72  O   GLN d   1      31.986  25.604  72.238  0.00  0.00    -0.271 OA
ATOM     73  N   NH2 d   1      31.310  27.563  73.051  0.00  0.00    -0.368 N 
ATOM     74  H46 NH2 d   1      30.350  27.355  72.862  0.00  0.00     0.159 HD
ATOM     75  H47 NH2 d   1      31.561  28.441  73.459  0.00  0.00     0.159 HD
ENDBRANCH  69  71
BRANCH  69  76
ATOM     76  CB  GLN d   1      33.765  27.335  74.595  0.00  0.00    -0.030 C 
ATOM     77  H40 GLN d   1      32.742  27.357  75.000  0.00  0.00     0.037 H 
ATOM     78  H41 GLN d   1      34.242  28.314  74.751  0.00  0.00     0.037 H 
BRANCH  76  79
ATOM     79  CG  GLN d   1      34.567  26.279  75.371  0.00  0.00     0.011 C 
ATOM     80  H42 GLN d   1      34.221  25.281  75.064  0.00  0.00     0.047 H 
ATOM     81  H43 GLN d   1      34.380  26.417  76.446  0.00  0.00     0.047 H 
BRANCH  79  82
ATOM     82  CD  GLN d   1      36.062  26.369  75.125  0.00  0.00     0.215 C 
ATOM     83  OE1 GLN d   1      36.862  26.129  76.048  0.00  0.00    -0.274 OA
ATOM     84  NE2 GLN d   1      36.436  26.373  73.850  0.00  0.00    -0.370 N 
ATOM     85  H44 GLN d   1      37.406  26.430  73.614  0.00  0.00     0.159 HD
ATOM     86  H45 GLN d   1      35.748  26.319  73.127  0.00  0.00     0.159 HD
ENDBRANCH  79  82
ENDBRANCH  76  79
ENDBRANCH  69  76
ENDBRANCH  67  69
ENDBRANCH  63  65
BRANCH  63  87
ATOM     87  CB  ASN d   1      36.807  30.004  70.685  0.00  0.00     0.036 C 
ATOM     88  H34 ASN d   1      36.914  30.854  69.994  0.00  0.00     0.051 H 
ATOM     89  H35 ASN d   1      37.323  29.126  70.269  0.00  0.00     0.051 H 
BRANCH  87  90
ATOM     90  CG  ASN d   1      37.448  30.366  72.006  0.00  0.00     0.217 C 
ATOM     91  OD1 ASN d   1      36.765  30.785  72.948  0.00  0.00    -0.274 OA
ATOM     92  ND2 ASN d   1      38.748  30.083  72.112  0.00  0.00    -0.370 N 
ATOM     93  H36 ASN d   1      39.239  30.295  72.957  0.00  0.00     0.159 HD
ATOM     94  H37 ASN d   1      39.232  29.659  71.346  0.00  0.00     0.159 HD
ENDBRANCH  87  90
ENDBRANCH  63  87
ENDBRANCH  61  63
ENDBRANCH  57  59
BRANCH  57  95
ATOM     95  CB  ILE d   1      33.224  33.589  70.608  0.00  0.00    -0.030 C 
ATOM     96  H23 ILE d   1      34.306  33.659  70.794  0.00  0.00     0.043 H 
BRANCH  95  97
ATOM     97  CG1 ILE d   1      32.578  34.870  71.113  0.00  0.00    -0.063 C 
ATOM     98  H24 ILE d   1      32.959  35.713  70.517  0.00  0.00     0.033 H 
ATOM     99  H25 ILE d   1      32.857  35.011  72.168  0.00  0.00     0.033 H 
BRANCH  97 100
ATOM    100  CD1 ILE d   1      31.050  34.852  71.011  0.00  0.00    -0.076 C 
ATOM    101  H29 ILE d   1      30.646  35.802  71.390  0.00  0.00     0.027 H 
ATOM    102  H30 ILE d   1      30.652  34.020  71.610  0.00  0.00     0.027 H 
ATOM    103  H31 ILE d   1      30.754  34.721  69.960  0.00  0.00     0.027 H 
ENDBRANCH  97 100
ENDBRANCH  95  97
BRANCH  95 104
ATOM    104  CG2 ILE d   1      33.015  33.437  69.090  0.00  0.00    -0.071 C 
ATOM    105  H26 ILE d   1      33.489  32.506  68.746  0.00  0.00     0.028 H 
ATOM    106  H27 ILE d   1      33.469  34.293  68.570  0.00  0.00     0.028 H 
ATOM    107  H28 ILE d   1      31.938  33.403  68.870  0.00  0.00     0.028 H 
ENDBRANCH  95 104
ENDBRANCH  57  95
ENDBRANCH   3  57
TORSDOF 28
