REMARK  13 active torsions:
REMARK  status: ('A' for Active; 'I' for Inactive)
REMARK    1  A    between atoms: C3_3  and  N12_12 
REMARK    2  A    between atoms: N12_12  and  C13_13 
REMARK    3  A    between atoms: C13_13  and  C14_14 
REMARK    4  A    between atoms: C14_14  and  C15_15 
REMARK    5  A    between atoms: C15_15  and  C16_16 
REMARK    6  A    between atoms: C16_16  and  C17_17 
REMARK    7  A    between atoms: C17_17  and  C18_18 
REMARK    8  A    between atoms: C18_18  and  C19_19 
REMARK    9  A    between atoms: C19_19  and  C20_20 
REMARK   10  A    between atoms: C20_20  and  C21_21 
REMARK   11  A    between atoms: C21_21  and  C22_22 
REMARK   12  A    between atoms: C22_22  and  N23_23 
REMARK   13  A    between atoms: N23_23  and  C24_24 
ROOT
ATOM      1  C18 A1E d   1       3.679  63.774  69.010  0.00  0.00    -0.065 C 
ATOM      2  H23 A1E d   1       3.321  63.899  67.978  0.00  0.00     0.033 H 
ATOM      3  H24 A1E d   1       4.777  63.702  69.011  0.00  0.00     0.033 H 
ENDROOT
BRANCH   1   4
ATOM      4  C17 A1E d   1       3.121  62.474  69.548  0.00  0.00    -0.065 C 
ATOM      5  H21 A1E d   1       3.751  61.633  69.222  0.00  0.00     0.033 H 
ATOM      6  H22 A1E d   1       3.091  62.506  70.647  0.00  0.00     0.033 H 
BRANCH   4   7
ATOM      7  C16 A1E d   1       1.699  62.309  68.991  0.00  0.00    -0.065 C 
ATOM      8  H19 A1E d   1       1.576  62.976  68.125  0.00  0.00     0.033 H 
ATOM      9  H20 A1E d   1       1.560  61.265  68.673  0.00  0.00     0.033 H 
BRANCH   7  10
ATOM     10  C15 A1E d   1       0.638  62.654  70.035  0.00  0.00    -0.064 C 
ATOM     11  H17 A1E d   1       0.592  63.746  70.162  0.00  0.00     0.033 H 
ATOM     12  H18 A1E d   1      -0.341  62.283  69.697  0.00  0.00     0.033 H 
BRANCH  10  13
ATOM     13  C14 A1E d   1       0.987  62.015  71.346  0.00  0.00    -0.043 C 
ATOM     14  H15 A1E d   1       1.077  60.928  71.202  0.00  0.00     0.035 H 
ATOM     15  H16 A1E d   1       1.948  62.420  71.698  0.00  0.00     0.035 H 
BRANCH  13  16
ATOM     16  C13 A1E d   1      -0.068  62.286  72.383  0.00  0.00     0.083 C 
ATOM     17  H13 A1E d   1       0.153  63.201  72.952  0.00  0.00     0.075 H 
ATOM     18  H14 A1E d   1      -1.066  62.369  71.928  0.00  0.00     0.075 H 
BRANCH  16  19
ATOM     19  N12 A1E d   1       0.040  61.070  73.243  0.00  0.00    -0.067 N 
ATOM     20  H11 A1E d   1       0.890  60.592  72.987  0.00  0.00     0.277 HD
ATOM     21  H12 A1E d   1       0.104  61.380  74.200  0.00  0.00     0.277 HD
BRANCH  19  22
ATOM     22  C3  A1E d   1      -1.072  60.080  73.165  0.00  0.00     0.129 C 
ATOM     23  C2  A1E d   1      -2.030  60.648  74.269  0.00  0.00    -0.034 C 
ATOM     24  C1  A1E d   1      -3.101  59.642  74.646  0.00  0.00    -0.058 C 
ATOM     25  H3  A1E d   1      -1.439  60.893  75.164  0.00  0.00     0.036 H 
ATOM     26  H4  A1E d   1      -2.514  61.559  73.888  0.00  0.00     0.036 H 
ATOM     27  C6  A1E d   1      -2.444  58.409  75.279  0.00  0.00    -0.026 C 
ATOM     28  H1  A1E d   1      -3.654  59.340  73.745  0.00  0.00     0.033 H 
ATOM     29  H2  A1E d   1      -3.795  60.098  75.367  0.00  0.00     0.033 H 
ATOM     30  C5  A1E d   1      -1.226  57.929  74.508  0.00  0.00     0.020 A 
ATOM     31  H6  A1E d   1      -3.183  57.595  75.311  0.00  0.00     0.042 H 
ATOM     32  H7  A1E d   1      -2.134  58.663  76.303  0.00  0.00     0.042 H 
ATOM     33  C4  A1E d   1      -0.564  58.672  73.543  0.00  0.00    -0.005 A 
ATOM     34  N10 A1E d   1      -0.779  56.673  74.827  0.00  0.00    -0.327 N 
ATOM     35  C7  A1E d   1       0.626  58.022  72.883  0.00  0.00    -0.068 A 
ATOM     36  C8  A1E d   1       1.054  56.748  73.220  0.00  0.00    -0.017 A 
ATOM     37  H8  A1E d   1       1.167  58.573  72.115  0.00  0.00     0.084 H 
ATOM     38  C9  A1E d   1       0.285  56.003  74.296  0.00  0.00     0.245 A 
ATOM     39  H9  A1E d   1       1.914  56.296  72.729  0.00  0.00     0.092 H 
ATOM     40  O11 A1E d   1       0.539  54.906  74.692  0.00  0.00    -0.268 OA
ATOM     41  H10 A1E d   1      -1.295  56.189  75.534  0.00  0.00     0.169 HD
ATOM     42  H5  A1E d   1      -1.546  60.060  72.173  0.00  0.00     0.092 H 
ENDBRANCH  19  22
ENDBRANCH  16  19
ENDBRANCH  13  16
ENDBRANCH  10  13
ENDBRANCH   7  10
ENDBRANCH   4   7
ENDBRANCH   1   4
BRANCH   1  43
ATOM     43  C19 A1E d   1       3.280  65.028  69.812  0.00  0.00    -0.065 C 
ATOM     44  H25 A1E d   1       4.175  65.642  69.989  0.00  0.00     0.033 H 
ATOM     45  H26 A1E d   1       2.851  64.717  70.776  0.00  0.00     0.033 H 
BRANCH  43  46
ATOM     46  C20 A1E d   1       2.241  65.863  69.045  0.00  0.00    -0.064 C 
ATOM     47  H27 A1E d   1       1.972  66.731  69.665  0.00  0.00     0.033 H 
ATOM     48  H28 A1E d   1       1.350  65.238  68.882  0.00  0.00     0.033 H 
BRANCH  46  49
ATOM     49  C21 A1E d   1       2.718  66.377  67.686  0.00  0.00    -0.050 C 
ATOM     50  H29 A1E d   1       2.758  65.546  66.967  0.00  0.00     0.035 H 
ATOM     51  H30 A1E d   1       3.718  66.823  67.787  0.00  0.00     0.035 H 
BRANCH  49  52
ATOM     52  C22 A1E d   1       1.726  67.435  67.200  0.00  0.00    -0.007 C 
ATOM     53  H31 A1E d   1       1.381  67.995  68.082  0.00  0.00     0.063 H 
ATOM     54  H32 A1E d   1       0.875  66.907  66.745  0.00  0.00     0.063 H 
BRANCH  52  55
ATOM     55  N23 A1E d   1       2.213  68.411  66.222  0.00  0.00    -0.389 N 
ATOM     56  H33 A1E d   1       1.483  69.017  65.823  0.00  0.00     0.159 HD
BRANCH  55  57
ATOM     57  C24 A1E d   1       3.521  68.662  65.732  0.00  0.00     0.049 A 
ATOM     58  C25 A1E d   1       4.528  69.268  66.626  0.00  0.00     0.020 A 
ATOM     59  C26 A1E d   1       5.797  69.577  66.022  0.00  0.00     0.069 A 
ATOM     60  C30 A1E d   1       4.425  69.610  68.048  0.00  0.00    -0.069 A 
ATOM     61  N27 A1E d   1       6.070  69.305  64.651  0.00  0.00    -0.252 NA
ATOM     62  C33 A1E d   1       6.866  70.192  66.780  0.00  0.00    -0.054 A 
ATOM     63  C28 A1E d   1       5.155  68.742  63.863  0.00  0.00     0.043 A 
ATOM     64  C29 A1E d   1       3.830  68.386  64.351  0.00  0.00    -0.006 A 
ATOM     65  C34 A1E d   1       5.623  68.517  62.401  0.00  0.00    -0.024 C 
ATOM     66  C37 A1E d   1       2.836  67.754  63.356  0.00  0.00    -0.037 C 
ATOM     67  C36 A1E d   1       3.463  67.246  62.008  0.00  0.00    -0.061 C 
ATOM     68  H44 A1E d   1       2.074  68.509  63.112  0.00  0.00     0.040 H 
ATOM     69  H45 A1E d   1       2.358  66.897  63.852  0.00  0.00     0.040 H 
ATOM     70  C35 A1E d   1       4.417  68.291  61.435  0.00  0.00    -0.060 C 
ATOM     71  H42 A1E d   1       4.017  66.314  62.195  0.00  0.00     0.033 H 
ATOM     72  H43 A1E d   1       2.658  67.055  61.283  0.00  0.00     0.033 H 
ATOM     73  H40 A1E d   1       4.793  67.943  60.462  0.00  0.00     0.033 H 
ATOM     74  H41 A1E d   1       3.877  69.240  61.302  0.00  0.00     0.033 H 
ATOM     75  H38 A1E d   1       6.276  67.632  62.368  0.00  0.00     0.042 H 
ATOM     76  H39 A1E d   1       6.186  69.401  62.067  0.00  0.00     0.042 H 
ATOM     77  C32 A1E d   1       6.711  70.499  68.132  0.00  0.00    -0.081 A 
ATOM     78  H37 A1E d   1       7.805  70.418  66.288  0.00  0.00     0.087 H 
ATOM     79  C31 A1E d   1       5.466  70.197  68.772  0.00  0.00    -0.082 A 
ATOM     80  H36 A1E d   1       7.520  70.959  68.689  0.00  0.00     0.083 H 
ATOM     81  H35 A1E d   1       5.331  70.425  69.823  0.00  0.00     0.083 H 
ATOM     82  H34 A1E d   1       3.495  69.397  68.563  0.00  0.00     0.085 H 
ENDBRANCH  55  57
ENDBRANCH  52  55
ENDBRANCH  49  52
ENDBRANCH  46  49
ENDBRANCH  43  46
ENDBRANCH   1  43
TORSDOF 13
