REMARK  9 active torsions:
REMARK  status: ('A' for Active; 'I' for Inactive)
REMARK    1  A    between atoms: C2_2  and  C42_24 
REMARK    2  A    between atoms: C3_3  and  N10_7 
REMARK    3  A    between atoms: N10_7  and  C11_8 
REMARK    4  A    between atoms: C17_14  and  C37_22 
REMARK    5  A    between atoms: C19_16  and  N21_17 
REMARK    6  A    between atoms: N21_17  and  C22_18 
REMARK    7  A    between atoms: C22_18  and  C23_19 
REMARK    8  A    between atoms: C23_19  and  C26_20 
REMARK    9  A    between atoms: C26_20  and  C29_21 
ROOT
ATOM      1  C11 501 d   1      14.611 -12.399  21.223  0.00  0.00     0.737 A 
ATOM      2  N12 501 d   1      15.711 -12.170  20.404  0.00  0.00    -0.015 N 
ATOM      3  C13 501 d   1      16.610 -13.075  20.840  0.00  0.00     0.744 A 
ATOM      4  N14 501 d   1      16.128 -13.797  21.878  0.00  0.00    -0.029 N 
ATOM      5  N15 501 d   1      14.931 -13.427  22.128  0.00  0.00     0.042 NA
ATOM      6  N16 501 d   1      17.863 -13.195  20.331  0.00  0.00    -0.067 NA
ATOM      7  C17 501 d   1      18.703 -14.175  20.850  0.00  0.00     0.053 A 
ATOM      8  C18 501 d   1      18.309 -15.051  21.987  0.00  0.00    -0.014 A 
ATOM      9  C19 501 d   1      16.975 -14.827  22.570  0.00  0.00     0.146 A 
ATOM     10  H5  501 d   1      15.814 -11.478  19.648  0.00  0.00     0.203 HD
ATOM     11  H6  501 d   1      18.973 -15.818  22.368  0.00  0.00     0.092 H 
ENDROOT
BRANCH   1  12
ATOM     12  N10 501 d   1      13.340 -11.705  21.083  0.00  0.00    -0.188 N 
ATOM     13  H4  501 d   1      13.047 -11.320  20.173  0.00  0.00     0.184 HD
BRANCH  12  14
ATOM     14  C3  501 d   1      12.506 -11.569  22.237  0.00  0.00     0.057 A 
ATOM     15  C2  501 d   1      11.615 -12.611  22.621  0.00  0.00    -0.035 A 
ATOM     16  C1  501 d   1      10.732 -12.510  23.768  0.00  0.00    -0.073 A 
ATOM     17  C6  501 d   1      10.875 -11.315  24.561  0.00  0.00    -0.061 A 
ATOM     18  H1  501 d   1      10.012 -13.283  24.012  0.00  0.00     0.084 H 
ATOM     19  C5  501 d   1      11.779 -10.268  24.149  0.00  0.00     0.036 A 
ATOM     20  H3  501 d   1      10.300 -11.202  25.473  0.00  0.00     0.086 H 
ATOM     21  C4  501 d   1      12.577 -10.381  22.989  0.00  0.00    -0.035 A 
ATOM     22 CL41 501 d   1      11.974  -8.790  25.039  0.00  0.00    -0.084 Cl
ATOM     23  H2  501 d   1      13.230  -9.571  22.684  0.00  0.00     0.089 H 
BRANCH  15  24
ATOM     24  C42 501 d   1      11.672 -13.841  21.810  0.00  0.00    -0.049 C 
ATOM     25  H20 501 d   1      10.945 -14.570  22.197  0.00  0.00     0.033 H 
ATOM     26  H21 501 d   1      12.684 -14.269  21.864  0.00  0.00     0.033 H 
ATOM     27  H22 501 d   1      11.430 -13.602  20.764  0.00  0.00     0.033 H 
ENDBRANCH  15  24
ENDBRANCH  12  14
ENDBRANCH   1  12
BRANCH   9  28
ATOM     28  N21 501 d   1      16.579 -15.655  23.744  0.00  0.00    -0.374 N 
ATOM     29  H7  501 d   1      15.607 -15.802  24.053  0.00  0.00     0.161 HD
BRANCH  28  30
ATOM     30  C22 501 d   1      17.769 -16.239  24.409  0.00  0.00    -0.006 C 
ATOM     31  H8  501 d   1      18.501 -16.550  23.649  0.00  0.00     0.064 H 
ATOM     32  H9  501 d   1      17.467 -17.112  25.006  0.00  0.00     0.064 H 
BRANCH  30  33
ATOM     33  C23 501 d   1      18.402 -15.174  25.332  0.00  0.00    -0.051 C 
ATOM     34  H10 501 d   1      17.835 -15.150  26.274  0.00  0.00     0.035 H 
ATOM     35  H11 501 d   1      18.328 -14.195  24.835  0.00  0.00     0.035 H 
BRANCH  33  36
ATOM     36  C26 501 d   1      19.884 -15.441  25.662  0.00  0.00    -0.067 C 
ATOM     37  H12 501 d   1      20.447 -15.529  24.721  0.00  0.00     0.032 H 
ATOM     38  H13 501 d   1      19.958 -16.384  26.223  0.00  0.00     0.032 H 
BRANCH  36  39
ATOM     39  C29 501 d   1      20.492 -14.327  26.494  0.00  0.00    -0.076 C 
ATOM     40  H14 501 d   1      21.546 -14.560  26.704  0.00  0.00     0.027 H 
ATOM     41  H15 501 d   1      19.941 -14.234  27.442  0.00  0.00     0.027 H 
ATOM     42  H16 501 d   1      20.430 -13.379  25.939  0.00  0.00     0.027 H 
ENDBRANCH  36  39
ENDBRANCH  33  36
ENDBRANCH  30  33
ENDBRANCH  28  30
ENDBRANCH   9  28
BRANCH   7  43
ATOM     43  C37 501 d   1      20.068 -14.367  20.179  0.00  0.00    -0.035 C 
ATOM     44  H17 501 d   1      20.619 -15.169  20.692  0.00  0.00     0.035 H 
ATOM     45  H18 501 d   1      20.642 -13.431  20.241  0.00  0.00     0.035 H 
ATOM     46  H19 501 d   1      19.923 -14.639  19.123  0.00  0.00     0.035 H 
ENDBRANCH   7  43
TORSDOF 9
