REMARK WARNING: 32 MAX_TORS EXCEEDED!!!
REMARK  52 active torsions:
REMARK  status: ('A' for Active; 'I' for Inactive)
REMARK    1  A    between atoms: N_1  and  CA_2 
REMARK    2  A    between atoms: CA_2  and  C_3 
REMARK    3  A    between atoms: CA_2  and  CB_5 
REMARK       I    between atoms: C_3  and  N_7 
REMARK    4  A    between atoms: CB_5  and  OG_6 
REMARK    5  A    between atoms: N_7  and  CA_8 
REMARK    6  A    between atoms: CA_8  and  C_9 
REMARK    7  A    between atoms: CA_8  and  CB_11 
REMARK       I    between atoms: C_9  and  N_17 
REMARK    8  A    between atoms: CB_11  and  CG_12 
REMARK    9  A    between atoms: CA_18  and  C_19 
REMARK       I    between atoms: C_19  and  N_24 
REMARK   10  A    between atoms: N_24  and  CA_25 
REMARK   11  A    between atoms: CA_25  and  C_26 
REMARK   12  A    between atoms: CA_25  and  CB_28 
REMARK       I    between atoms: C_26  and  N_31 
REMARK   13  A    between atoms: CB_28  and  OG1_29 
REMARK   14  A    between atoms: CB_28  and  CG2_30 
REMARK   15  A    between atoms: N_31  and  CA_32 
REMARK   16  A    between atoms: CA_32  and  C_33 
REMARK   17  A    between atoms: CA_32  and  CB_35 
REMARK       I    between atoms: C_33  and  N_39 
REMARK   18  A    between atoms: CB_35  and  CG1_36 
REMARK   19  A    between atoms: CB_35  and  CG2_37 
REMARK   20  A    between atoms: CG1_36  and  CD1_38 
REMARK   21  A    between atoms: N_39  and  CA_40 
REMARK   22  A    between atoms: CA_40  and  C_41 
REMARK   23  A    between atoms: CA_40  and  CB_43 
REMARK       I    between atoms: C_41  and  N_47 
REMARK   24  A    between atoms: CB_43  and  CG_44 
REMARK   25  A    between atoms: CG_44  and  CD1_45 
REMARK   26  A    between atoms: CG_44  and  CD2_46 
REMARK   27  A    between atoms: N_47  and  CA_48 
REMARK   28  A    between atoms: CA_48  and  C_49 
REMARK   29  A    between atoms: CA_48  and  CB_51 
REMARK       I    between atoms: C_49  and  N_59 
REMARK   30  A    between atoms: CB_51  and  CG_52 
REMARK   31  A    between atoms: CZ_57  and  OH_58 
REMARK   32  A    between atoms: N_59  and  CA_60 
REMARK   33  A    between atoms: CA_60  and  C_61 
REMARK   34  A    between atoms: CA_60  and  CB_63 
REMARK       I    between atoms: C_61  and  N_66 
REMARK   35  A    between atoms: CB_63  and  OG1_64 
REMARK   36  A    between atoms: CB_63  and  CG2_65 
REMARK   37  A    between atoms: N_66  and  CA_67 
REMARK   38  A    between atoms: CA_67  and  C_68 
REMARK   39  A    between atoms: CA_67  and  CB_70 
REMARK       I    between atoms: C_68  and  N_74 
REMARK   40  A    between atoms: CB_70  and  CG_71 
REMARK   41  A    between atoms: CG_71  and  CD1_72 
REMARK   42  A    between atoms: CG_71  and  CD2_73 
REMARK   43  A    between atoms: N_74  and  CA_75 
REMARK   44  A    between atoms: CA_75  and  C_76 
REMARK   45  A    between atoms: CA_75  and  CB_78 
REMARK       I    between atoms: C_76  and  N_82 
REMARK   46  A    between atoms: CB_78  and  CG_79 
REMARK   47  A    between atoms: CG_79  and  CD1_80 
REMARK   48  A    between atoms: CG_79  and  CD2_81 
REMARK   49  A    between atoms: N_82  and  CA_83 
REMARK   50  A    between atoms: CA_83  and  C_84 
REMARK   51  A    between atoms: CA_83  and  CB_86 
REMARK   52  A    between atoms: CB_86  and  OG_87 
ROOT
ATOM      1  CA  LEU d   1      92.669 -11.049  44.146  0.00  0.00     0.089 C 
ATOM      2  H41 LEU d   1      93.335 -10.917  45.011  0.00  0.00     0.087 H 
ENDROOT
BRANCH   1   3
ATOM      3  N   LEU d   1      93.426 -11.600  43.023  0.00  0.00    -0.346 N 
ATOM      4  C   ILE d   1      94.102 -12.744  43.107  0.00  0.00     0.241 C 
ATOM      5  O   ILE d   1      94.161 -13.416  44.136  0.00  0.00    -0.271 OA
ATOM      6  H40 LEU d   1      93.436 -11.098  42.158  0.00  0.00     0.163 HD
BRANCH   4   7
ATOM      7  CA  ILE d   1      94.835 -13.200  41.841  0.00  0.00     0.092 C 
ATOM      8  H30 ILE d   1      95.021 -14.280  41.936  0.00  0.00     0.088 H 
BRANCH   7   9
ATOM      9  N   ILE d   1      94.075 -13.008  40.599  0.00  0.00    -0.346 N 
ATOM     10  C   THR d   1      92.835 -13.478  40.466  0.00  0.00     0.243 C 
ATOM     11  O   THR d   1      92.263 -14.084  41.372  0.00  0.00    -0.271 OA
ATOM     12  H29 ILE d   1      94.496 -12.515  39.838  0.00  0.00     0.163 HD
BRANCH  10  13
ATOM     13  CA  THR d   1      92.116 -13.252  39.130  0.00  0.00     0.113 C 
ATOM     14  H23 THR d   1      91.242 -13.919  39.135  0.00  0.00     0.091 H 
BRANCH  13  15
ATOM     15  N   THR d   1      91.598 -11.912  38.883  0.00  0.00    -0.344 N 
ATOM     16  C   PRO d   1      90.683 -11.364  39.677  0.00  0.00     0.241 C 
ATOM     17  O   PRO d   1      90.254 -11.918  40.687  0.00  0.00    -0.271 OA
ATOM     18  H22 THR d   1      91.938 -11.393  38.099  0.00  0.00     0.163 HD
BRANCH  16  19
ATOM     19  CA  PRO d   1      90.198  -9.972  39.290  0.00  0.00     0.091 C 
ATOM     20  N   PRO d   1      88.920  -9.973  38.558  0.00  0.00    -0.337 N 
ATOM     21  C   HIS d   1      88.474 -10.876  37.664  0.00  0.00     0.243 C 
ATOM     22  CD  PRO d   1      88.010  -8.951  39.107  0.00  0.00    -0.001 C 
ATOM     23  O   HIS d   1      89.129 -11.874  37.353  0.00  0.00    -0.271 OA
ATOM     24  CG  PRO d   1      88.924  -8.125  39.959  0.00  0.00    -0.048 C 
ATOM     25  H20 PRO d   1      87.213  -9.411  39.710  0.00  0.00     0.064 H 
ATOM     26  H21 PRO d   1      87.561  -8.347  38.305  0.00  0.00     0.064 H 
ATOM     27  CB  PRO d   1      89.889  -9.115  40.511  0.00  0.00    -0.036 C 
ATOM     28  H18 PRO d   1      89.444  -7.367  39.355  0.00  0.00     0.035 H 
ATOM     29  H19 PRO d   1      88.365  -7.630  40.767  0.00  0.00     0.035 H 
ATOM     30  H16 PRO d   1      90.795  -8.620  40.892  0.00  0.00     0.036 H 
ATOM     31  H17 PRO d   1      89.433  -9.713  41.314  0.00  0.00     0.036 H 
ATOM     32  H15 PRO d   1      90.979  -9.496  38.679  0.00  0.00     0.087 H 
BRANCH  21  33
ATOM     33  CA  HIS d   1      87.092 -10.612  37.052  0.00  0.00     0.095 C 
ATOM     34  H9  HIS d   1      86.360 -10.488  37.864  0.00  0.00     0.088 H 
BRANCH  33  35
ATOM     35  N   HIS d   1      87.137  -9.382  36.261  0.00  0.00    -0.346 N 
ATOM     36  C   SER d   1      88.059  -9.174  35.323  0.00  0.00     0.251 C 
ATOM     37  O   SER d   1      88.923 -10.004  35.038  0.00  0.00    -0.271 OA
ATOM     38  H8  HIS d   1      86.452  -8.673  36.431  0.00  0.00     0.163 HD
BRANCH  36  39
ATOM     39  CA  SER d   1      87.990  -7.835  34.580  0.00  0.00     0.195 C 
ATOM     40  H4  SER d   1      88.960  -7.651  34.094  0.00  0.00     0.102 H 
BRANCH  39  41
ATOM     41  N   SER d   1      86.930  -7.874  33.535  0.00  0.00    -0.064 N 
ATOM     42  H1  SER d   1      86.897  -6.987  33.056  0.00  0.00     0.275 HD
ATOM     43  H2  SER d   1      86.038  -8.055  33.968  0.00  0.00     0.275 HD
ATOM     44  H3  SER d   1      87.137  -8.606  32.873  0.00  0.00     0.275 HD
ENDBRANCH  39  41
BRANCH  39  45
ATOM     45  CB  SER d   1      87.706  -6.693  35.567  0.00  0.00     0.051 C 
ATOM     46  H5  SER d   1      86.807  -6.942  36.151  0.00  0.00     0.077 H 
ATOM     47  H6  SER d   1      87.530  -5.767  34.999  0.00  0.00     0.077 H 
BRANCH  45  48
ATOM     48  OG  SER d   1      88.789  -6.486  36.458  0.00  0.00    -0.398 OA
ATOM     49  H7  SER d   1      88.578  -5.775  37.051  0.00  0.00     0.209 HD
ENDBRANCH  45  48
ENDBRANCH  39  45
ENDBRANCH  36  39
ENDBRANCH  33  35
BRANCH  33  50
ATOM     50  CB  HIS d   1      86.659 -11.794  36.175  0.00  0.00     0.004 C 
ATOM     51  H10 HIS d   1      87.538 -12.154  35.620  0.00  0.00     0.046 H 
ATOM     52  H11 HIS d   1      85.897 -11.439  35.466  0.00  0.00     0.046 H 
BRANCH  50  53
ATOM     53  CG  HIS d   1      86.086 -12.942  36.948  0.00  0.00     0.053 A 
ATOM     54  ND1 HIS d   1      84.991 -12.808  37.776  0.00  0.00    -0.247 NA
ATOM     55  CE1 HIS d   1      84.707 -13.977  38.321  0.00  0.00     0.064 A 
ATOM     56  NE2 HIS d   1      85.578 -14.866  37.876  0.00  0.00    -0.359 N 
ATOM     57  H13 HIS d   1      83.894 -14.175  39.018  0.00  0.00     0.143 H 
ATOM     58  CD2 HIS d   1      86.451 -14.243  37.015  0.00  0.00     0.002 A 
ATOM     59  H14 HIS d   1      85.600 -15.863  38.132  0.00  0.00     0.166 HD
ATOM     60  H12 HIS d   1      87.281 -14.710  36.486  0.00  0.00     0.114 H 
ENDBRANCH  50  53
ENDBRANCH  33  50
ENDBRANCH  21  33
ENDBRANCH  16  19
ENDBRANCH  13  15
BRANCH  13  61
ATOM     61  CB  THR d   1      93.033 -13.699  37.975  0.00  0.00     0.060 C 
ATOM     62  H24 THR d   1      92.431 -13.791  37.059  0.00  0.00     0.086 H 
BRANCH  61  63
ATOM     63  OG1 THR d   1      93.603 -14.976  38.288  0.00  0.00    -0.393 OA
ATOM     64  H25 THR d   1      94.168 -15.252  37.576  0.00  0.00     0.210 HD
ENDBRANCH  61  63
BRANCH  61  65
ATOM     65  CG2 THR d   1      94.134 -12.678  37.734  0.00  0.00    -0.050 C 
ATOM     66  H26 THR d   1      94.775 -13.018  36.907  0.00  0.00     0.031 H 
ATOM     67  H27 THR d   1      94.740 -12.569  38.646  0.00  0.00     0.031 H 
ATOM     68  H28 THR d   1      93.684 -11.708  37.475  0.00  0.00     0.031 H 
ENDBRANCH  61  65
ENDBRANCH  13  61
ENDBRANCH  10  13
ENDBRANCH   7   9
BRANCH   7  69
ATOM     69  CB  ILE d   1      96.198 -12.483  41.796  0.00  0.00    -0.030 C 
ATOM     70  H31 ILE d   1      96.035 -11.420  41.565  0.00  0.00     0.043 H 
BRANCH  69  71
ATOM     71  CG1 ILE d   1      97.078 -13.100  40.709  0.00  0.00    -0.063 C 
ATOM     72  H32 ILE d   1      98.033 -12.555  40.687  0.00  0.00     0.033 H 
ATOM     73  H33 ILE d   1      96.566 -12.983  39.742  0.00  0.00     0.033 H 
BRANCH  71  74
ATOM     74  CD1 ILE d   1      97.378 -14.585  40.916  0.00  0.00    -0.076 C 
ATOM     75  H37 ILE d   1      98.013 -14.949  40.095  0.00  0.00     0.027 H 
ATOM     76  H38 ILE d   1      96.435 -15.151  40.929  0.00  0.00     0.027 H 
ATOM     77  H39 ILE d   1      97.902 -14.723  41.873  0.00  0.00     0.027 H 
ENDBRANCH  71  74
ENDBRANCH  69  71
BRANCH  69  78
ATOM     78  CG2 ILE d   1      96.889 -12.595  43.140  0.00  0.00    -0.071 C 
ATOM     79  H34 ILE d   1      96.252 -12.150  43.918  0.00  0.00     0.028 H 
ATOM     80  H35 ILE d   1      97.850 -12.062  43.104  0.00  0.00     0.028 H 
ATOM     81  H36 ILE d   1      97.067 -13.655  43.374  0.00  0.00     0.028 H 
ENDBRANCH  69  78
ENDBRANCH   7  69
ENDBRANCH   4   7
ENDBRANCH   1   3
BRANCH   1  82
ATOM     82  C   LEU d   1      91.534 -12.010  44.509  0.00  0.00     0.241 C 
ATOM     83  O   LEU d   1      91.174 -12.167  45.681  0.00  0.00    -0.271 OA
ATOM     84  N   TYR d   1      90.967 -12.651  43.494  0.00  0.00    -0.346 N 
ATOM     85  H51 TYR d   1      91.295 -12.487  42.563  0.00  0.00     0.163 HD
BRANCH  84  86
ATOM     86  CA  TYR d   1      89.876 -13.588  43.715  0.00  0.00     0.093 C 
ATOM     87  H52 TYR d   1      89.100 -13.101  44.324  0.00  0.00     0.088 H 
BRANCH  86  88
ATOM     88  C   TYR d   1      90.400 -14.818  44.462  0.00  0.00     0.241 C 
ATOM     89  O   TYR d   1      89.780 -15.281  45.424  0.00  0.00    -0.271 OA
ATOM     90  N   THR d   1      91.542 -15.339  44.011  0.00  0.00    -0.344 N 
ATOM     91  H60 THR d   1      91.984 -14.910  43.223  0.00  0.00     0.163 HD
BRANCH  90  92
ATOM     92  CA  THR d   1      92.178 -16.513  44.619  0.00  0.00     0.113 C 
ATOM     93  H61 THR d   1      91.485 -17.365  44.559  0.00  0.00     0.091 H 
BRANCH  92  94
ATOM     94  C   THR d   1      92.501 -16.223  46.078  0.00  0.00     0.243 C 
ATOM     95  O   THR d   1      92.493 -17.115  46.926  0.00  0.00    -0.271 OA
ATOM     96  N   LEU d   1      92.789 -14.959  46.349  0.00  0.00    -0.346 N 
ATOM     97  H67 LEU d   1      92.773 -14.293  45.604  0.00  0.00     0.163 HD
BRANCH  96  98
ATOM     98  CA  LEU d   1      93.126 -14.503  47.683  0.00  0.00     0.089 C 
ATOM     99  H68 LEU d   1      93.734 -15.277  48.174  0.00  0.00     0.087 H 
BRANCH  98 100
ATOM    100  C   LEU d   1      91.878 -14.262  48.529  0.00  0.00     0.241 C 
ATOM    101  O   LEU d   1      91.888 -14.526  49.726  0.00  0.00    -0.271 OA
ATOM    102  N   LEU d   1      90.803 -13.781  47.906  0.00  0.00    -0.346 N 
ATOM    103  H78 LEU d   1      90.838 -13.622  46.919  0.00  0.00     0.163 HD
BRANCH 102 104
ATOM    104  CA  LEU d   1      89.574 -13.482  48.637  0.00  0.00     0.089 C 
ATOM    105  H79 LEU d   1      89.888 -13.136  49.633  0.00  0.00     0.087 H 
BRANCH 104 106
ATOM    106  C   LEU d   1      88.611 -14.631  48.865  0.00  0.00     0.241 C 
ATOM    107  O   LEU d   1      87.783 -14.577  49.780  0.00  0.00    -0.271 OA
ATOM    108  N   SER d   1      88.696 -15.660  48.032  0.00  0.00    -0.343 N 
ATOM    109  H89 SER d   1      89.367 -15.642  47.290  0.00  0.00     0.163 HD
BRANCH 108 110
ATOM    110  CA  SER d   1      87.823 -16.816  48.186  0.00  0.00     0.116 C 
ATOM    111  H90 SER d   1      86.879 -16.480  48.641  0.00  0.00     0.093 H 
BRANCH 110 112
ATOM    112  C   SER d   1      88.458 -17.864  49.097  0.00  0.00     0.198 C 
ATOM    113  O   SER d   1      87.790 -18.294  50.065  0.00  0.00    -0.646 OA
ATOM    114  OXT SER d   1      89.618 -18.245  48.824  0.00  0.00    -0.646 OA
ENDBRANCH 110 112
BRANCH 110 115
ATOM    115  CB  SER d   1      87.517 -17.444  46.830  0.00  0.00     0.045 C 
ATOM    116  H91 SER d   1      88.458 -17.612  46.285  0.00  0.00     0.077 H 
ATOM    117  H92 SER d   1      86.874 -16.765  46.251  0.00  0.00     0.077 H 
BRANCH 115 118
ATOM    118  OG  SER d   1      86.850 -18.685  47.010  0.00  0.00    -0.398 OA
ATOM    119  H93 SER d   1      86.663 -19.069  46.161  0.00  0.00     0.209 HD
ENDBRANCH 115 118
ENDBRANCH 110 115
ENDBRANCH 108 110
ENDBRANCH 104 106
BRANCH 104 120
ATOM    120  CB  LEU d   1      88.818 -12.339  47.964  0.00  0.00    -0.035 C 
ATOM    121  H80 LEU d   1      87.834 -12.252  48.447  0.00  0.00     0.037 H 
ATOM    122  H81 LEU d   1      88.684 -12.599  46.904  0.00  0.00     0.037 H 
BRANCH 120 123
ATOM    123  CG  LEU d   1      89.497 -10.974  48.032  0.00  0.00    -0.059 C 
ATOM    124  H82 LEU d   1      90.370 -10.966  47.362  0.00  0.00     0.038 H 
BRANCH 123 125
ATOM    125  CD1 LEU d   1      88.505  -9.917  47.577  0.00  0.00    -0.073 C 
ATOM    126  H83 LEU d   1      88.980  -8.926  47.620  0.00  0.00     0.028 H 
ATOM    127  H84 LEU d   1      87.625  -9.931  48.237  0.00  0.00     0.028 H 
ATOM    128  H85 LEU d   1      88.192 -10.129  46.544  0.00  0.00     0.028 H 
ENDBRANCH 123 125
BRANCH 123 129
ATOM    129  CD2 LEU d   1      89.962 -10.690  49.459  0.00  0.00    -0.073 C 
ATOM    130  H86 LEU d   1      90.679 -11.464  49.772  0.00  0.00     0.028 H 
ATOM    131  H87 LEU d   1      89.095 -10.698  50.136  0.00  0.00     0.028 H 
ATOM    132  H88 LEU d   1      90.448  -9.704  49.497  0.00  0.00     0.028 H 
ENDBRANCH 123 129
ENDBRANCH 120 123
ENDBRANCH 104 120
ENDBRANCH 102 104
ENDBRANCH  98 100
BRANCH  98 133
ATOM    133  CB  LEU d   1      93.952 -13.209  47.584  0.00  0.00    -0.035 C 
ATOM    134  H69 LEU d   1      93.429 -12.447  48.180  0.00  0.00     0.037 H 
ATOM    135  H70 LEU d   1      93.955 -12.909  46.526  0.00  0.00     0.037 H 
BRANCH 133 136
ATOM    136  CG  LEU d   1      95.412 -13.221  48.051  0.00  0.00    -0.059 C 
ATOM    137  H71 LEU d   1      95.436 -13.100  49.144  0.00  0.00     0.038 H 
BRANCH 136 138
ATOM    138  CD1 LEU d   1      96.079 -14.539  47.693  0.00  0.00    -0.073 C 
ATOM    139  H72 LEU d   1      97.124 -14.526  48.036  0.00  0.00     0.028 H 
ATOM    140  H73 LEU d   1      96.053 -14.679  46.602  0.00  0.00     0.028 H 
ATOM    141  H74 LEU d   1      95.543 -15.366  48.181  0.00  0.00     0.028 H 
ENDBRANCH 136 138
BRANCH 136 142
ATOM    142  CD2 LEU d   1      96.156 -12.065  47.412  0.00  0.00    -0.073 C 
ATOM    143  H75 LEU d   1      95.663 -11.119  47.679  0.00  0.00     0.028 H 
ATOM    144  H76 LEU d   1      96.151 -12.185  46.319  0.00  0.00     0.028 H 
ATOM    145  H77 LEU d   1      97.195 -12.052  47.774  0.00  0.00     0.028 H 
ENDBRANCH 136 142
ENDBRANCH 133 136
ENDBRANCH  98 133
ENDBRANCH  96  98
ENDBRANCH  92  94
BRANCH  92 146
ATOM    146  CB  THR d   1      93.505 -16.878  43.887  0.00  0.00     0.060 C 
ATOM    147  H62 THR d   1      94.098 -15.961  43.754  0.00  0.00     0.086 H 
BRANCH 146 148
ATOM    148  OG1 THR d   1      93.211 -17.435  42.601  0.00  0.00    -0.393 OA
ATOM    149  H63 THR d   1      94.023 -17.655  42.160  0.00  0.00     0.210 HD
ENDBRANCH 146 148
BRANCH 146 150
ATOM    150  CG2 THR d   1      94.325 -17.879  44.700  0.00  0.00    -0.050 C 
ATOM    151  H64 THR d   1      95.253 -18.117  44.160  0.00  0.00     0.031 H 
ATOM    152  H65 THR d   1      93.740 -18.799  44.847  0.00  0.00     0.031 H 
ATOM    153  H66 THR d   1      94.572 -17.442  45.679  0.00  0.00     0.031 H 
ENDBRANCH 146 150
ENDBRANCH  92 146
ENDBRANCH  90  92
ENDBRANCH  86  88
BRANCH  86 154
ATOM    154  CB  TYR d   1      89.270 -14.004  42.372  0.00  0.00    -0.014 C 
ATOM    155  H53 TYR d   1      89.973 -14.689  41.874  0.00  0.00     0.043 H 
ATOM    156  H54 TYR d   1      89.141 -13.101  41.758  0.00  0.00     0.043 H 
BRANCH 154 157
ATOM    157  CG  TYR d   1      87.937 -14.694  42.480  0.00  0.00    -0.056 A 
ATOM    158  CD1 TYR d   1      86.749 -13.976  42.375  0.00  0.00    -0.074 A 
ATOM    159  CE1 TYR d   1      85.512 -14.617  42.475  0.00  0.00    -0.051 A 
ATOM    160  H55 TYR d   1      86.784 -12.905  42.213  0.00  0.00     0.084 H 
ATOM    161  CZ  TYR d   1      85.464 -15.996  42.685  0.00  0.00     0.065 A 
ATOM    162  H57 TYR d   1      84.594 -14.046  42.390  0.00  0.00     0.087 H 
ATOM    163  CE2 TYR d   1      86.634 -16.728  42.796  0.00  0.00    -0.051 A 
ATOM    164  CD2 TYR d   1      87.861 -16.074  42.691  0.00  0.00    -0.074 A 
ATOM    165  H58 TYR d   1      86.597 -17.798  42.963  0.00  0.00     0.087 H 
ATOM    166  H56 TYR d   1      88.776 -16.648  42.775  0.00  0.00     0.084 H 
BRANCH 161 167
ATOM    167  OH  TYR d   1      84.252 -16.641  42.779  0.00  0.00    -0.361 OA
ATOM    168  H59 TYR d   1      83.550 -16.008  42.684  0.00  0.00     0.217 HD
ENDBRANCH 161 167
ENDBRANCH 154 157
ENDBRANCH  86 154
ENDBRANCH  84  86
ENDBRANCH   1  82
BRANCH   1 169
ATOM    169  CB  LEU d   1      92.071  -9.702  43.749  0.00  0.00    -0.035 C 
ATOM    170  H42 LEU d   1      91.067  -9.915  43.352  0.00  0.00     0.037 H 
ATOM    171  H43 LEU d   1      92.708  -9.307  42.943  0.00  0.00     0.037 H 
BRANCH 169 172
ATOM    172  CG  LEU d   1      91.901  -8.565  44.757  0.00  0.00    -0.059 C 
ATOM    173  H44 LEU d   1      92.730  -7.852  44.636  0.00  0.00     0.038 H 
BRANCH 172 174
ATOM    174  CD1 LEU d   1      90.585  -7.862  44.442  0.00  0.00    -0.073 C 
ATOM    175  H45 LEU d   1      90.432  -7.036  45.152  0.00  0.00     0.028 H 
ATOM    176  H46 LEU d   1      89.756  -8.579  44.530  0.00  0.00     0.028 H 
ATOM    177  H47 LEU d   1      90.618  -7.464  43.417  0.00  0.00     0.028 H 
ENDBRANCH 172 174
BRANCH 172 178
ATOM    178  CD2 LEU d   1      91.910  -9.071  46.183  0.00  0.00    -0.073 C 
ATOM    179  H48 LEU d   1      92.867  -9.574  46.388  0.00  0.00     0.028 H 
ATOM    180  H49 LEU d   1      91.084  -9.784  46.325  0.00  0.00     0.028 H 
ATOM    181  H50 LEU d   1      91.786  -8.224  46.873  0.00  0.00     0.028 H 
ENDBRANCH 172 178
ENDBRANCH 169 172
ENDBRANCH   1 169
TORSDOF 52
