REMARK WARNING: 32 MAX_TORS EXCEEDED!!!
REMARK  51 active torsions:
REMARK  status: ('A' for Active; 'I' for Inactive)
REMARK    1  A    between atoms: N_1  and  CA_2 
REMARK    2  A    between atoms: CA_2  and  C_3 
REMARK    3  A    between atoms: CA_2  and  CB_5 
REMARK       I    between atoms: C_3  and  N_9 
REMARK    4  A    between atoms: CB_5  and  CG_6 
REMARK    5  A    between atoms: CG_6  and  CD1_7 
REMARK    6  A    between atoms: CG_6  and  CD2_8 
REMARK    7  A    between atoms: CA_10  and  C_11 
REMARK       I    between atoms: C_11  and  N_16 
REMARK    8  A    between atoms: N_16  and  CA_17 
REMARK    9  A    between atoms: CA_17  and  C_18 
REMARK   10  A    between atoms: CA_17  and  CB_20 
REMARK       I    between atoms: C_18  and  N_25 
REMARK   11  A    between atoms: CB_20  and  CG_21 
REMARK   12  A    between atoms: CG_21  and  CD_22 
REMARK   13  A    between atoms: CA_26  and  C_27 
REMARK       I    between atoms: C_27  and  N_32 
REMARK   14  A    between atoms: N_32  and  CA_33 
REMARK   15  A    between atoms: CA_33  and  C_34 
REMARK   16  A    between atoms: CA_33  and  CB_36 
REMARK       I    between atoms: C_34  and  N_40 
REMARK   17  A    between atoms: CB_36  and  CG_37 
REMARK   18  A    between atoms: CG_37  and  CD1_38 
REMARK   19  A    between atoms: CG_37  and  CD2_39 
REMARK   20  A    between atoms: CA_41  and  C_42 
REMARK       I    between atoms: C_42  and  N_47 
REMARK   21  A    between atoms: N_47  and  CA_48 
REMARK   22  A    between atoms: CA_48  and  C_49 
REMARK   23  A    between atoms: CA_48  and  CB_51 
REMARK       I    between atoms: C_49  and  N_56 
REMARK   24  A    between atoms: CB_51  and  CG_52 
REMARK   25  A    between atoms: CG_52  and  CD_53 
REMARK       I    between atoms: CD_53  and  NE2_55 
REMARK   26  A    between atoms: N_56  and  CA_57 
REMARK   27  A    between atoms: CA_57  and  C_58 
REMARK       I    between atoms: C_58  and  N_60 
REMARK   28  A    between atoms: N_60  and  CA_61 
REMARK   29  A    between atoms: CA_61  and  C_62 
REMARK   30  A    between atoms: CA_61  and  CB_64 
REMARK       I    between atoms: C_62  and  N_69 
REMARK   31  A    between atoms: CB_64  and  CG_65 
REMARK   32  A    between atoms: CG_65  and  CD_66 
REMARK       I    between atoms: CD_66  and  NE2_68 
REMARK   33  A    between atoms: N_69  and  CA_70 
REMARK   34  A    between atoms: CA_70  and  C_71 
REMARK   35  A    between atoms: CA_70  and  CB_73 
REMARK       I    between atoms: C_71  and  N_77 
REMARK   36  A    between atoms: CB_73  and  CG_74 
REMARK   37  A    between atoms: CG_74  and  CD1_75 
REMARK   38  A    between atoms: CG_74  and  CD2_76 
REMARK   39  A    between atoms: N_77  and  CA_78 
REMARK   40  A    between atoms: CA_78  and  C_79 
REMARK   41  A    between atoms: CA_78  and  CB_81 
REMARK       I    between atoms: C_79  and  N_84 
REMARK   42  A    between atoms: CB_81  and  OG1_82 
REMARK   43  A    between atoms: CB_81  and  CG2_83 
REMARK   44  A    between atoms: N_84  and  CA_85 
REMARK   45  A    between atoms: CA_85  and  C_86 
REMARK   46  A    between atoms: CA_85  and  CB_88 
REMARK       I    between atoms: C_86  and  N_89 
REMARK   47  A    between atoms: N_89  and  CA_90 
REMARK   48  A    between atoms: CA_90  and  C_91 
REMARK   49  A    between atoms: CA_90  and  CB_93 
REMARK   50  A    between atoms: CB_93  and  CG_94 
REMARK   51  A    between atoms: CZ_99  and  OH_100 
ROOT
ATOM      1  CA  GLN d   1      27.545  16.210   8.278  0.00  0.00     0.090 C 
ATOM      2  H53 GLN d   1      26.663  15.670   7.904  0.00  0.00     0.087 H 
ENDROOT
BRANCH   1   3
ATOM      3  N   GLN d   1      27.278  16.666   9.635  0.00  0.00    -0.346 N 
ATOM      4  C   PRO d   1      26.913  15.806  10.578  0.00  0.00     0.241 C 
ATOM      5  O   PRO d   1      26.760  14.604  10.357  0.00  0.00    -0.271 OA
ATOM      6  H52 GLN d   1      27.370  17.636   9.859  0.00  0.00     0.163 HD
BRANCH   4   7
ATOM      7  CA  PRO d   1      26.661  16.373  11.976  0.00  0.00     0.091 C 
ATOM      8  N   PRO d   1      26.043  15.327  12.791  0.00  0.00    -0.337 N 
ATOM      9  C   LEU d   1      24.759  14.992  12.602  0.00  0.00     0.243 C 
ATOM     10  CD  PRO d   1      26.966  14.860  13.840  0.00  0.00    -0.001 C 
ATOM     11  O   LEU d   1      24.045  15.561  11.772  0.00  0.00    -0.271 OA
ATOM     12  CG  PRO d   1      28.306  15.363  13.336  0.00  0.00    -0.048 C 
ATOM     13  H50 PRO d   1      26.956  13.763  13.920  0.00  0.00     0.064 H 
ATOM     14  H51 PRO d   1      26.716  15.301  14.816  0.00  0.00     0.064 H 
ATOM     15  CB  PRO d   1      27.951  16.680  12.734  0.00  0.00    -0.036 C 
ATOM     16  H48 PRO d   1      29.022  15.484  14.163  0.00  0.00     0.035 H 
ATOM     17  H49 PRO d   1      28.728  14.682  12.582  0.00  0.00     0.035 H 
ATOM     18  H46 PRO d   1      27.781  17.438  13.513  0.00  0.00     0.036 H 
ATOM     19  H47 PRO d   1      28.739  17.027  12.050  0.00  0.00     0.036 H 
ATOM     20  H45 PRO d   1      26.025  17.268  11.907  0.00  0.00     0.087 H 
BRANCH   9  21
ATOM     21  CA  LEU d   1      24.198  13.889  13.481  0.00  0.00     0.090 C 
ATOM     22  H35 LEU d   1      24.689  13.908  14.465  0.00  0.00     0.087 H 
BRANCH  21  23
ATOM     23  N   LEU d   1      22.768  14.108  13.646  0.00  0.00    -0.346 N 
ATOM     24  C   PRO d   1      22.298  15.064  14.435  0.00  0.00     0.241 C 
ATOM     25  O   PRO d   1      23.023  15.824  15.076  0.00  0.00    -0.271 OA
ATOM     26  H34 LEU d   1      22.125  13.523  13.152  0.00  0.00     0.163 HD
BRANCH  24  27
ATOM     27  CA  PRO d   1      20.781  15.191  14.495  0.00  0.00     0.091 C 
ATOM     28  N   PRO d   1      20.333  15.784  15.760  0.00  0.00    -0.337 N 
ATOM     29  C   GLU d   1      20.505  15.193  16.951  0.00  0.00     0.243 C 
ATOM     30  CD  PRO d   1      19.577  17.023  15.510  0.00  0.00    -0.001 C 
ATOM     31  O   GLU d   1      21.057  14.102  17.070  0.00  0.00    -0.271 OA
ATOM     32  CG  PRO d   1      19.067  16.790  14.108  0.00  0.00    -0.048 C 
ATOM     33  H32 PRO d   1      20.229  17.908  15.558  0.00  0.00     0.064 H 
ATOM     34  H33 PRO d   1      18.749  17.139  16.224  0.00  0.00     0.064 H 
ATOM     35  CB  PRO d   1      20.268  16.179  13.446  0.00  0.00    -0.036 C 
ATOM     36  H30 PRO d   1      18.211  16.099  14.102  0.00  0.00     0.035 H 
ATOM     37  H31 PRO d   1      18.779  17.735  13.624  0.00  0.00     0.035 H 
ATOM     38  H28 PRO d   1      19.985  15.659  12.519  0.00  0.00     0.036 H 
ATOM     39  H29 PRO d   1      21.026  16.944  13.221  0.00  0.00     0.036 H 
ATOM     40  H27 PRO d   1      20.330  14.198  14.350  0.00  0.00     0.087 H 
BRANCH  29  41
ATOM     41  CA  GLU d   1      19.986  15.935  18.168  0.00  0.00     0.090 C 
ATOM     42  H22 GLU d   1      19.434  16.824  17.828  0.00  0.00     0.087 H 
BRANCH  41  43
ATOM     43  N   GLU d   1      19.074  15.101  18.936  0.00  0.00    -0.346 N 
ATOM     44  C   PRO d   1      17.942  14.664  18.403  0.00  0.00     0.241 C 
ATOM     45  O   PRO d   1      17.604  14.920  17.241  0.00  0.00    -0.271 OA
ATOM     46  H21 GLU d   1      19.304  14.855  19.877  0.00  0.00     0.163 HD
BRANCH  44  47
ATOM     47  CA  PRO d   1      17.048  13.813  19.301  0.00  0.00     0.091 C 
ATOM     48  N   PRO d   1      15.739  13.609  18.673  0.00  0.00    -0.337 N 
ATOM     49  C   LEU d   1      14.849  14.609  18.604  0.00  0.00     0.251 C 
ATOM     50  CD  PRO d   1      15.602  12.237  18.146  0.00  0.00    -0.001 C 
ATOM     51  O   LEU d   1      15.092  15.722  19.045  0.00  0.00    -0.271 OA
ATOM     52  CG  PRO d   1      17.024  11.702  18.250  0.00  0.00    -0.048 C 
ATOM     53  H19 PRO d   1      15.255  12.245  17.102  0.00  0.00     0.064 H 
ATOM     54  H20 PRO d   1      14.908  11.643  18.759  0.00  0.00     0.064 H 
ATOM     55  CB  PRO d   1      17.569  12.388  19.475  0.00  0.00    -0.036 C 
ATOM     56  H17 PRO d   1      17.025  10.610  18.378  0.00  0.00     0.035 H 
ATOM     57  H18 PRO d   1      17.610  11.967  17.358  0.00  0.00     0.035 H 
ATOM     58  H15 PRO d   1      17.179  11.930  20.396  0.00  0.00     0.036 H 
ATOM     59  H16 PRO d   1      18.669  12.364  19.490  0.00  0.00     0.036 H 
ATOM     60  H14 PRO d   1      16.945  14.308  20.278  0.00  0.00     0.087 H 
BRANCH  49  61
ATOM     61  CA  LEU d   1      13.511  14.319  17.935  0.00  0.00     0.176 C 
ATOM     62  H4  LEU d   1      13.433  13.242  17.726  0.00  0.00     0.099 H 
BRANCH  61  63
ATOM     63  N   LEU d   1      12.386  14.725  18.828  0.00  0.00    -0.066 N 
ATOM     64  H1  LEU d   1      11.508  14.528  18.373  0.00  0.00     0.275 HD
ATOM     65  H2  LEU d   1      12.450  15.712  19.021  0.00  0.00     0.275 HD
ATOM     66  H3  LEU d   1      12.440  14.209  19.692  0.00  0.00     0.275 HD
ENDBRANCH  61  63
BRANCH  61  67
ATOM     67  CB  LEU d   1      13.449  15.096  16.624  0.00  0.00    -0.028 C 
ATOM     68  H5  LEU d   1      13.584  16.163  16.853  0.00  0.00     0.037 H 
ATOM     69  H6  LEU d   1      12.454  14.939  16.181  0.00  0.00     0.037 H 
BRANCH  67  70
ATOM     70  CG  LEU d   1      14.496  14.698  15.588  0.00  0.00    -0.059 C 
ATOM     71  H7  LEU d   1      15.463  14.539  16.088  0.00  0.00     0.038 H 
BRANCH  70  72
ATOM     72  CD1 LEU d   1      14.062  13.400  14.917  0.00  0.00    -0.073 C 
ATOM     73  H8  LEU d   1      14.812  13.106  14.168  0.00  0.00     0.028 H 
ATOM     74  H9  LEU d   1      13.090  13.549  14.424  0.00  0.00     0.028 H 
ATOM     75  H10 LEU d   1      13.971  12.608  15.675  0.00  0.00     0.028 H 
ENDBRANCH  70  72
BRANCH  70  76
ATOM     76  CD2 LEU d   1      14.646  15.817  14.558  0.00  0.00    -0.073 C 
ATOM     77  H11 LEU d   1      14.959  16.742  15.064  0.00  0.00     0.028 H 
ATOM     78  H12 LEU d   1      13.682  15.983  14.054  0.00  0.00     0.028 H 
ATOM     79  H13 LEU d   1      15.404  15.531  13.814  0.00  0.00     0.028 H 
ENDBRANCH  70  76
ENDBRANCH  67  70
ENDBRANCH  61  67
ENDBRANCH  49  61
ENDBRANCH  44  47
ENDBRANCH  41  43
BRANCH  41  80
ATOM     80  CB  GLU d   1      21.174  16.396  19.018  0.00  0.00    -0.029 C 
ATOM     81  H23 GLU d   1      21.646  15.517  19.482  0.00  0.00     0.037 H 
ATOM     82  H24 GLU d   1      20.811  17.075  19.804  0.00  0.00     0.037 H 
BRANCH  80  83
ATOM     83  CG  GLU d   1      22.206  17.125  18.169  0.00  0.00     0.018 C 
ATOM     84  H25 GLU d   1      21.687  17.894  17.578  0.00  0.00     0.049 H 
ATOM     85  H26 GLU d   1      22.673  16.396  17.491  0.00  0.00     0.049 H 
BRANCH  83  86
ATOM     86  CD  GLU d   1      23.297  17.797  18.968  0.00  0.00     0.172 C 
ATOM     87  OE1 GLU d   1      23.583  17.348  20.096  0.00  0.00    -0.648 OA
ATOM     88  OE2 GLU d   1      23.886  18.777  18.446  0.00  0.00    -0.648 OA
ENDBRANCH  83  86
ENDBRANCH  80  83
ENDBRANCH  41  80
ENDBRANCH  29  41
ENDBRANCH  24  27
ENDBRANCH  21  23
BRANCH  21  89
ATOM     89  CB  LEU d   1      24.460  12.543  12.804  0.00  0.00    -0.035 C 
ATOM     90  H36 LEU d   1      25.549  12.436  12.689  0.00  0.00     0.037 H 
ATOM     91  H37 LEU d   1      23.988  12.574  11.811  0.00  0.00     0.037 H 
BRANCH  89  92
ATOM     92  CG  LEU d   1      23.947  11.293  13.519  0.00  0.00    -0.059 C 
ATOM     93  H38 LEU d   1      22.870  11.404  13.712  0.00  0.00     0.038 H 
BRANCH  92  94
ATOM     94  CD1 LEU d   1      24.167  10.073  12.620  0.00  0.00    -0.073 C 
ATOM     95  H39 LEU d   1      23.799   9.171  13.130  0.00  0.00     0.028 H 
ATOM     96  H40 LEU d   1      25.241   9.963  12.408  0.00  0.00     0.028 H 
ATOM     97  H41 LEU d   1      23.619  10.210  11.676  0.00  0.00     0.028 H 
ENDBRANCH  92  94
BRANCH  92  98
ATOM     98  CD2 LEU d   1      24.668  11.129  14.848  0.00  0.00    -0.073 C 
ATOM     99  H42 LEU d   1      24.493  12.018  15.472  0.00  0.00     0.028 H 
ATOM    100  H43 LEU d   1      25.747  11.014  14.668  0.00  0.00     0.028 H 
ATOM    101  H44 LEU d   1      24.285  10.237  15.365  0.00  0.00     0.028 H 
ENDBRANCH  92  98
ENDBRANCH  89  92
ENDBRANCH  21  89
ENDBRANCH   9  21
ENDBRANCH   4   7
ENDBRANCH   1   3
BRANCH   1 102
ATOM    102  C   GLN d   1      28.740  15.265   8.272  0.00  0.00     0.240 C 
ATOM    103  O   GLN d   1      28.755  14.262   7.553  0.00  0.00    -0.271 OA
ATOM    104  N   GLY d   1      29.734  15.580   9.091  0.00  0.00    -0.351 N 
ATOM    105  H60 GLY d   1      29.669  16.397   9.664  0.00  0.00     0.163 HD
BRANCH 104 106
ATOM    106  CA  GLY d   1      30.916  14.742   9.158  0.00  0.00     0.069 C 
ATOM    107  H61 GLY d   1      31.785  15.382   9.368  0.00  0.00     0.078 H 
ATOM    108  H62 GLY d   1      31.050  14.250   8.183  0.00  0.00     0.078 H 
BRANCH 106 109
ATOM    109  C   GLY d   1      30.837  13.671  10.230  0.00  0.00     0.236 C 
ATOM    110  O   GLY d   1      29.782  13.071  10.459  0.00  0.00    -0.272 OA
ATOM    111  N   GLN d   1      31.966  13.434  10.889  0.00  0.00    -0.346 N 
ATOM    112  H63 GLN d   1      32.782  13.961  10.652  0.00  0.00     0.163 HD
BRANCH 111 113
ATOM    113  CA  GLN d   1      32.058  12.433  11.944  0.00  0.00     0.090 C 
ATOM    114  H64 GLN d   1      31.436  11.567  11.675  0.00  0.00     0.087 H 
BRANCH 113 115
ATOM    115  C   GLN d   1      31.553  13.010  13.266  0.00  0.00     0.241 C 
ATOM    116  O   GLN d   1      31.880  14.141  13.623  0.00  0.00    -0.271 OA
ATOM    117  N   LEU d   1      30.727  12.239  13.971  0.00  0.00    -0.346 N 
ATOM    118  H71 LEU d   1      30.462  11.346  13.608  0.00  0.00     0.163 HD
BRANCH 117 119
ATOM    119  CA  LEU d   1      30.200  12.670  15.263  0.00  0.00     0.089 C 
ATOM    120  H72 LEU d   1      29.703  13.646  15.164  0.00  0.00     0.087 H 
BRANCH 119 121
ATOM    121  C   LEU d   1      31.397  12.778  16.201  0.00  0.00     0.241 C 
ATOM    122  O   LEU d   1      32.176  11.829  16.335  0.00  0.00    -0.271 OA
ATOM    123  N   THR d   1      31.546  13.929  16.851  0.00  0.00    -0.344 N 
ATOM    124  H82 THR d   1      30.872  14.657  16.727  0.00  0.00     0.163 HD
BRANCH 123 125
ATOM    125  CA  THR d   1      32.682  14.141  17.743  0.00  0.00     0.113 C 
ATOM    126  H83 THR d   1      33.579  13.777  17.220  0.00  0.00     0.091 H 
BRANCH 125 127
ATOM    127  C   THR d   1      32.577  13.401  19.062  0.00  0.00     0.243 C 
ATOM    128  O   THR d   1      31.626  13.581  19.818  0.00  0.00    -0.271 OA
ATOM    129  N   ALA d   1      33.570  12.568  19.341  0.00  0.00    -0.346 N 
ATOM    130  H89 ALA d   1      34.313  12.447  18.683  0.00  0.00     0.163 HD
BRANCH 129 131
ATOM    131  CA  ALA d   1      33.592  11.829  20.593  0.00  0.00     0.086 C 
ATOM    132  H90 ALA d   1      32.581  11.464  20.825  0.00  0.00     0.086 H 
BRANCH 131 133
ATOM    133  C   ALA d   1      34.062  12.770  21.705  0.00  0.00     0.240 C 
ATOM    134  O   ALA d   1      34.439  13.916  21.439  0.00  0.00    -0.271 OA
ATOM    135  N   TYR d   1      34.007  12.307  22.950  0.00  0.00    -0.344 N 
ATOM    136  H94 TYR d   1      33.639  11.392  23.117  0.00  0.00     0.163 HD
BRANCH 135 137
ATOM    137  CA  TYR d   1      34.472  13.107  24.077  0.00  0.00     0.100 C 
ATOM    138  H95 TYR d   1      34.138  14.149  23.964  0.00  0.00     0.090 H 
BRANCH 137 139
ATOM    139  C   TYR d   1      36.002  13.032  24.076  0.00  0.00     0.197 C 
ATOM    140  O   TYR d   1      36.530  12.155  23.360  0.00  0.00    -0.646 OA
ATOM    141  OXT TYR d   1      36.651  13.822  24.788  0.00  0.00    -0.646 OA
ENDBRANCH 137 139
BRANCH 137 142
ATOM    142  CB  TYR d   1      33.947  12.536  25.402  0.00  0.00    -0.013 C 
ATOM    143  H96 TYR d   1      34.515  13.004  26.220  0.00  0.00     0.043 H 
ATOM    144  H97 TYR d   1      34.133  11.452  25.399  0.00  0.00     0.043 H 
BRANCH 142 145
ATOM    145  CG  TYR d   1      32.470  12.754  25.678  0.00  0.00    -0.056 A 
ATOM    146  CD1 TYR d   1      31.496  12.336  24.772  0.00  0.00    -0.074 A 
ATOM    147  CE1 TYR d   1      30.126  12.509  25.046  0.00  0.00    -0.051 A 
ATOM    148  H98 TYR d   1      31.799  11.870  23.841  0.00  0.00     0.084 H 
ATOM    149  CZ  TYR d   1      29.736  13.107  26.232  0.00  0.00     0.065 A 
ATOM    150 0H10 TYR d   1      29.381  12.176  24.332  0.00  0.00     0.087 H 
ATOM    151  CE2 TYR d   1      30.685  13.534  27.147  0.00  0.00    -0.051 A 
ATOM    152  CD2 TYR d   1      32.050  13.354  26.865  0.00  0.00    -0.074 A 
ATOM    153 1H10 TYR d   1      30.377  14.004  28.074  0.00  0.00     0.087 H 
ATOM    154  H99 TYR d   1      32.790  13.688  27.583  0.00  0.00     0.084 H 
BRANCH 149 155
ATOM    155  OH  TYR d   1      28.399  13.268  26.509  0.00  0.00    -0.361 OA
ATOM    156 2H10 TYR d   1      28.210  14.192  26.625  0.00  0.00     0.217 HD
ENDBRANCH 149 155
ENDBRANCH 142 145
ENDBRANCH 137 142
ENDBRANCH 135 137
ENDBRANCH 131 133
BRANCH 131 157
ATOM    157  CB  ALA d   1      34.535  10.645  20.467  0.00  0.00    -0.049 C 
ATOM    158  H91 ALA d   1      34.551  10.087  21.415  0.00  0.00     0.030 H 
ATOM    159  H92 ALA d   1      35.548  11.006  20.237  0.00  0.00     0.030 H 
ATOM    160  H93 ALA d   1      34.189   9.985  19.658  0.00  0.00     0.030 H 
ENDBRANCH 131 157
ENDBRANCH 129 131
ENDBRANCH 125 127
BRANCH 125 161
ATOM    161  CB  THR d   1      32.875  15.634  18.063  0.00  0.00     0.060 C 
ATOM    162  H84 THR d   1      32.109  15.953  18.785  0.00  0.00     0.086 H 
BRANCH 161 163
ATOM    163  OG1 THR d   1      32.747  16.397  16.861  0.00  0.00    -0.393 OA
ATOM    164  H85 THR d   1      33.407  16.117  16.238  0.00  0.00     0.210 HD
ENDBRANCH 161 163
BRANCH 161 165
ATOM    165  CG2 THR d   1      34.258  15.871  18.656  0.00  0.00    -0.050 C 
ATOM    166  H86 THR d   1      34.383  16.941  18.880  0.00  0.00     0.031 H 
ATOM    167  H87 THR d   1      35.026  15.556  17.934  0.00  0.00     0.031 H 
ATOM    168  H88 THR d   1      34.365  15.288  19.582  0.00  0.00     0.031 H 
ENDBRANCH 161 165
ENDBRANCH 125 161
ENDBRANCH 123 125
ENDBRANCH 119 121
BRANCH 119 169
ATOM    169  CB  LEU d   1      29.204  11.642  15.803  0.00  0.00    -0.035 C 
ATOM    170  H73 LEU d   1      29.742  10.689  15.912  0.00  0.00     0.037 H 
ATOM    171  H74 LEU d   1      28.407  11.530  15.053  0.00  0.00     0.037 H 
BRANCH 169 172
ATOM    172  CG  LEU d   1      28.531  11.945  17.144  0.00  0.00    -0.059 C 
ATOM    173  H75 LEU d   1      29.304  12.087  17.913  0.00  0.00     0.038 H 
BRANCH 172 174
ATOM    174  CD1 LEU d   1      27.697  13.219  17.036  0.00  0.00    -0.073 C 
ATOM    175  H76 LEU d   1      27.218  13.427  18.004  0.00  0.00     0.028 H 
ATOM    176  H77 LEU d   1      26.923  13.086  16.265  0.00  0.00     0.028 H 
ATOM    177  H78 LEU d   1      28.348  14.062  16.761  0.00  0.00     0.028 H 
ENDBRANCH 172 174
BRANCH 172 178
ATOM    178  CD2 LEU d   1      27.644  10.768  17.535  0.00  0.00    -0.073 C 
ATOM    179  H79 LEU d   1      28.256   9.857  17.610  0.00  0.00     0.028 H 
ATOM    180  H80 LEU d   1      26.866  10.626  16.771  0.00  0.00     0.028 H 
ATOM    181  H81 LEU d   1      27.171  10.972  18.507  0.00  0.00     0.028 H 
ENDBRANCH 172 178
ENDBRANCH 169 172
ENDBRANCH 119 169
ENDBRANCH 117 119
ENDBRANCH 113 115
BRANCH 113 182
ATOM    182  CB  GLN d   1      33.517  11.981  12.074  0.00  0.00    -0.030 C 
ATOM    183  H65 GLN d   1      34.124  12.868  12.308  0.00  0.00     0.037 H 
ATOM    184  H66 GLN d   1      33.829  11.568  11.103  0.00  0.00     0.037 H 
BRANCH 182 185
ATOM    185  CG  GLN d   1      33.798  10.933  13.136  0.00  0.00     0.011 C 
ATOM    186  H67 GLN d   1      33.074  10.112  13.026  0.00  0.00     0.047 H 
ATOM    187  H68 GLN d   1      33.682  11.393  14.129  0.00  0.00     0.047 H 
BRANCH 185 188
ATOM    188  CD  GLN d   1      35.204  10.368  13.017  0.00  0.00     0.215 C 
ATOM    189  OE1 GLN d   1      35.524   9.654  12.061  0.00  0.00    -0.274 OA
ATOM    190  NE2 GLN d   1      36.055  10.694  13.981  0.00  0.00    -0.370 N 
ATOM    191  H69 GLN d   1      36.994  10.352  13.956  0.00  0.00     0.159 HD
ATOM    192  H70 GLN d   1      35.757  11.282  14.733  0.00  0.00     0.159 HD
ENDBRANCH 185 188
ENDBRANCH 182 185
ENDBRANCH 113 182
ENDBRANCH 111 113
ENDBRANCH 106 109
ENDBRANCH 104 106
ENDBRANCH   1 102
BRANCH   1 193
ATOM    193  CB  GLN d   1      27.815  17.408   7.364  0.00  0.00    -0.030 C 
ATOM    194  H54 GLN d   1      28.409  17.063   6.505  0.00  0.00     0.037 H 
ATOM    195  H55 GLN d   1      28.390  18.155   7.931  0.00  0.00     0.037 H 
BRANCH 193 196
ATOM    196  CG  GLN d   1      26.556  18.070   6.840  0.00  0.00     0.011 C 
ATOM    197  H56 GLN d   1      26.828  19.034   6.385  0.00  0.00     0.047 H 
ATOM    198  H57 GLN d   1      25.871  18.243   7.684  0.00  0.00     0.047 H 
BRANCH 196 199
ATOM    199  CD  GLN d   1      25.842  17.224   5.799  0.00  0.00     0.215 C 
ATOM    200  OE1 GLN d   1      25.478  16.071   6.050  0.00  0.00    -0.274 OA
ATOM    201  NE2 GLN d   1      25.638  17.798   4.620  0.00  0.00    -0.370 N 
ATOM    202  H58 GLN d   1      25.173  17.294   3.892  0.00  0.00     0.159 HD
ATOM    203  H59 GLN d   1      25.949  18.735   4.459  0.00  0.00     0.159 HD
ENDBRANCH 196 199
ENDBRANCH 193 196
ENDBRANCH   1 193
TORSDOF 51
