REMARK WARNING: 32 MAX_TORS EXCEEDED!!!
REMARK  51 active torsions:
REMARK  status: ('A' for Active; 'I' for Inactive)
REMARK    1  A    between atoms: N_1  and  CA_2 
REMARK    2  A    between atoms: CA_2  and  C_3 
REMARK    3  A    between atoms: CA_2  and  CB_5 
REMARK       I    between atoms: C_3  and  N_9 
REMARK    4  A    between atoms: CB_5  and  CG_6 
REMARK    5  A    between atoms: CG_6  and  CD1_7 
REMARK    6  A    between atoms: CG_6  and  CD2_8 
REMARK    7  A    between atoms: CA_10  and  C_11 
REMARK       I    between atoms: C_11  and  N_16 
REMARK    8  A    between atoms: N_16  and  CA_17 
REMARK    9  A    between atoms: CA_17  and  C_18 
REMARK   10  A    between atoms: CA_17  and  CB_20 
REMARK       I    between atoms: C_18  and  N_25 
REMARK   11  A    between atoms: CB_20  and  CG_21 
REMARK   12  A    between atoms: CG_21  and  CD_22 
REMARK   13  A    between atoms: CA_26  and  C_27 
REMARK       I    between atoms: C_27  and  N_32 
REMARK   14  A    between atoms: N_32  and  CA_33 
REMARK   15  A    between atoms: CA_33  and  C_34 
REMARK   16  A    between atoms: CA_33  and  CB_36 
REMARK       I    between atoms: C_34  and  N_40 
REMARK   17  A    between atoms: CB_36  and  CG_37 
REMARK   18  A    between atoms: CG_37  and  CD1_38 
REMARK   19  A    between atoms: CG_37  and  CD2_39 
REMARK   20  A    between atoms: CA_41  and  C_42 
REMARK       I    between atoms: C_42  and  N_47 
REMARK   21  A    between atoms: N_47  and  CA_48 
REMARK   22  A    between atoms: CA_48  and  C_49 
REMARK   23  A    between atoms: CA_48  and  CB_51 
REMARK       I    between atoms: C_49  and  N_56 
REMARK   24  A    between atoms: CB_51  and  CG_52 
REMARK   25  A    between atoms: CG_52  and  CD_53 
REMARK       I    between atoms: CD_53  and  NE2_55 
REMARK   26  A    between atoms: N_56  and  CA_57 
REMARK   27  A    between atoms: CA_57  and  C_58 
REMARK       I    between atoms: C_58  and  N_60 
REMARK   28  A    between atoms: N_60  and  CA_61 
REMARK   29  A    between atoms: CA_61  and  C_62 
REMARK   30  A    between atoms: CA_61  and  CB_64 
REMARK       I    between atoms: C_62  and  N_69 
REMARK   31  A    between atoms: CB_64  and  CG_65 
REMARK   32  A    between atoms: CG_65  and  CD_66 
REMARK       I    between atoms: CD_66  and  NE2_68 
REMARK   33  A    between atoms: N_69  and  CA_70 
REMARK   34  A    between atoms: CA_70  and  C_71 
REMARK   35  A    between atoms: CA_70  and  CB_73 
REMARK       I    between atoms: C_71  and  N_77 
REMARK   36  A    between atoms: CB_73  and  CG_74 
REMARK   37  A    between atoms: CG_74  and  CD1_75 
REMARK   38  A    between atoms: CG_74  and  CD2_76 
REMARK   39  A    between atoms: N_77  and  CA_78 
REMARK   40  A    between atoms: CA_78  and  C_79 
REMARK   41  A    between atoms: CA_78  and  CB_81 
REMARK       I    between atoms: C_79  and  N_84 
REMARK   42  A    between atoms: CB_81  and  OG1_82 
REMARK   43  A    between atoms: CB_81  and  CG2_83 
REMARK   44  A    between atoms: N_84  and  CA_85 
REMARK   45  A    between atoms: CA_85  and  C_86 
REMARK   46  A    between atoms: CA_85  and  CB_88 
REMARK       I    between atoms: C_86  and  N_89 
REMARK   47  A    between atoms: N_89  and  CA_90 
REMARK   48  A    between atoms: CA_90  and  C_91 
REMARK   49  A    between atoms: CA_90  and  CB_93 
REMARK   50  A    between atoms: CB_93  and  CG_94 
REMARK   51  A    between atoms: CZ_99  and  OH_100 
ROOT
ATOM      1  CA  GLN d   1      27.205  17.084   8.928  0.00  0.00     0.090 C 
ATOM      2  H53 GLN d   1      26.409  16.492   8.453  0.00  0.00     0.087 H 
ENDROOT
BRANCH   1   3
ATOM      3  N   GLN d   1      26.809  17.347  10.307  0.00  0.00    -0.346 N 
ATOM      4  C   PRO d   1      26.503  16.352  11.131  0.00  0.00     0.241 C 
ATOM      5  O   PRO d   1      26.539  15.172  10.789  0.00  0.00    -0.271 OA
ATOM      6  H52 GLN d   1      26.767  18.290  10.636  0.00  0.00     0.163 HD
BRANCH   4   7
ATOM      7  CA  PRO d   1      26.092  16.735  12.550  0.00  0.00     0.091 C 
ATOM      8  N   PRO d   1      25.580  15.568  13.271  0.00  0.00    -0.337 N 
ATOM      9  C   LEU d   1      24.375  15.072  12.965  0.00  0.00     0.243 C 
ATOM     10  CD  PRO d   1      26.504  15.161  14.344  0.00  0.00    -0.001 C 
ATOM     11  O   LEU d   1      23.655  15.591  12.109  0.00  0.00    -0.271 OA
ATOM     12  CG  PRO d   1      27.777  15.888  13.965  0.00  0.00    -0.048 C 
ATOM     13  H50 PRO d   1      26.654  14.071  14.349  0.00  0.00     0.064 H 
ATOM     14  H51 PRO d   1      26.138  15.485  15.329  0.00  0.00     0.064 H 
ATOM     15  CB  PRO d   1      27.270  17.179  13.414  0.00  0.00    -0.036 C 
ATOM     16  H48 PRO d   1      28.414  16.056  14.846  0.00  0.00     0.035 H 
ATOM     17  H49 PRO d   1      28.342  15.328  13.205  0.00  0.00     0.035 H 
ATOM     18  H46 PRO d   1      26.940  17.852  14.219  0.00  0.00     0.036 H 
ATOM     19  H47 PRO d   1      28.039  17.681  12.809  0.00  0.00     0.036 H 
ATOM     20  H45 PRO d   1      25.333  17.529  12.499  0.00  0.00     0.087 H 
BRANCH   9  21
ATOM     21  CA  LEU d   1      23.901  13.854  13.747  0.00  0.00     0.090 C 
ATOM     22  H35 LEU d   1      24.416  13.816  14.719  0.00  0.00     0.087 H 
BRANCH  21  23
ATOM     23  N   LEU d   1      22.470  13.982  13.959  0.00  0.00    -0.346 N 
ATOM     24  C   PRO d   1      21.980  14.900  14.783  0.00  0.00     0.241 C 
ATOM     25  O   PRO d   1      22.692  15.670  15.421  0.00  0.00    -0.271 OA
ATOM     26  H34 LEU d   1      21.844  13.369  13.477  0.00  0.00     0.163 HD
BRANCH  24  27
ATOM     27  CA  PRO d   1      20.462  14.957  14.908  0.00  0.00     0.091 C 
ATOM     28  N   PRO d   1      20.053  15.631  16.142  0.00  0.00    -0.337 N 
ATOM     29  C   GLU d   1      20.234  15.053  17.336  0.00  0.00     0.243 C 
ATOM     30  CD  PRO d   1      19.232  16.812  15.840  0.00  0.00    -0.001 C 
ATOM     31  O   GLU d   1      20.744  13.939  17.449  0.00  0.00    -0.271 OA
ATOM     32  CG  PRO d   1      18.662  16.450  14.495  0.00  0.00    -0.048 C 
ATOM     33  H32 PRO d   1      19.846  17.723  15.784  0.00  0.00     0.064 H 
ATOM     34  H33 PRO d   1      18.438  16.950  16.588  0.00  0.00     0.064 H 
ATOM     35  CB  PRO d   1      19.843  15.828  13.816  0.00  0.00    -0.036 C 
ATOM     36  H30 PRO d   1      17.833  15.734  14.592  0.00  0.00     0.035 H 
ATOM     37  H31 PRO d   1      18.314  17.343  13.955  0.00  0.00     0.035 H 
ATOM     38  H28 PRO d   1      19.527  15.217  12.958  0.00  0.00     0.036 H 
ATOM     39  H29 PRO d   1      20.552  16.597  13.477  0.00  0.00     0.036 H 
ATOM     40  H27 PRO d   1      20.058  13.935  14.868  0.00  0.00     0.087 H 
BRANCH  29  41
ATOM     41  CA  GLU d   1      19.780  15.830  18.562  0.00  0.00     0.090 C 
ATOM     42  H22 GLU d   1      19.270  16.751  18.243  0.00  0.00     0.087 H 
BRANCH  41  43
ATOM     43  N   GLU d   1      18.849  15.020  19.339  0.00  0.00    -0.346 N 
ATOM     44  C   PRO d   1      17.710  14.596  18.797  0.00  0.00     0.241 C 
ATOM     45  O   PRO d   1      17.376  14.866  17.641  0.00  0.00    -0.271 OA
ATOM     46  H21 GLU d   1      19.068  14.782  20.285  0.00  0.00     0.163 HD
BRANCH  44  47
ATOM     47  CA  PRO d   1      16.798  13.751  19.681  0.00  0.00     0.091 C 
ATOM     48  N   PRO d   1      15.495  13.559  19.034  0.00  0.00    -0.337 N 
ATOM     49  C   LEU d   1      14.584  14.542  18.986  0.00  0.00     0.251 C 
ATOM     50  CD  PRO d   1      15.334  12.169  18.568  0.00  0.00    -0.001 C 
ATOM     51  O   LEU d   1      14.787  15.643  19.485  0.00  0.00    -0.271 OA
ATOM     52  CG  PRO d   1      16.752  11.637  18.623  0.00  0.00    -0.048 C 
ATOM     53  H19 PRO d   1      14.937  12.137  17.543  0.00  0.00     0.064 H 
ATOM     54  H20 PRO d   1      14.670  11.600  19.236  0.00  0.00     0.064 H 
ATOM     55  CB  PRO d   1      17.309  12.324  19.847  0.00  0.00    -0.036 C 
ATOM     56  H17 PRO d   1      16.762  10.543  18.741  0.00  0.00     0.035 H 
ATOM     57  H18 PRO d   1      17.316  11.914  17.720  0.00  0.00     0.035 H 
ATOM     58  H15 PRO d   1      16.923  11.868  20.770  0.00  0.00     0.036 H 
ATOM     59  H16 PRO d   1      18.409  12.293  19.855  0.00  0.00     0.036 H 
ATOM     60  H14 PRO d   1      16.687  14.241  20.660  0.00  0.00     0.087 H 
BRANCH  49  61
ATOM     61  CA  LEU d   1      13.264  14.246  18.288  0.00  0.00     0.176 C 
ATOM     62  H4  LEU d   1      13.187  13.168  18.084  0.00  0.00     0.099 H 
BRANCH  61  63
ATOM     63  N   LEU d   1      12.140  14.663  19.171  0.00  0.00    -0.066 N 
ATOM     64  H1  LEU d   1      11.263  14.469  18.713  0.00  0.00     0.275 HD
ATOM     65  H2  LEU d   1      12.209  15.651  19.359  0.00  0.00     0.275 HD
ATOM     66  H3  LEU d   1      12.187  14.152  20.038  0.00  0.00     0.275 HD
ENDBRANCH  61  63
BRANCH  61  67
ATOM     67  CB  LEU d   1      13.219  15.019  16.967  0.00  0.00    -0.028 C 
ATOM     68  H5  LEU d   1      13.368  16.085  17.194  0.00  0.00     0.037 H 
ATOM     69  H6  LEU d   1      12.223  14.874  16.524  0.00  0.00     0.037 H 
BRANCH  67  70
ATOM     70  CG  LEU d   1      14.262  14.609  15.923  0.00  0.00    -0.059 C 
ATOM     71  H7  LEU d   1      15.220  14.413  16.426  0.00  0.00     0.038 H 
BRANCH  70  72
ATOM     72  CD1 LEU d   1      13.805  13.342  15.212  0.00  0.00    -0.073 C 
ATOM     73  H8  LEU d   1      14.556  13.050  14.463  0.00  0.00     0.028 H 
ATOM     74  H9  LEU d   1      12.843  13.528  14.713  0.00  0.00     0.028 H 
ATOM     75  H10 LEU d   1      13.686  12.532  15.947  0.00  0.00     0.028 H 
ENDBRANCH  70  72
BRANCH  70  76
ATOM     76  CD2 LEU d   1      14.448  15.736  14.921  0.00  0.00    -0.073 C 
ATOM     77  H11 LEU d   1      14.778  16.644  15.447  0.00  0.00     0.028 H 
ATOM     78  H12 LEU d   1      13.494  15.934  14.411  0.00  0.00     0.028 H 
ATOM     79  H13 LEU d   1      15.207  15.446  14.180  0.00  0.00     0.028 H 
ENDBRANCH  70  76
ENDBRANCH  67  70
ENDBRANCH  61  67
ENDBRANCH  49  61
ENDBRANCH  44  47
ENDBRANCH  41  43
BRANCH  41  80
ATOM     80  CB  GLU d   1      21.014  16.201  19.388  0.00  0.00    -0.029 C 
ATOM     81  H23 GLU d   1      21.618  15.296  19.545  0.00  0.00     0.037 H 
ATOM     82  H24 GLU d   1      20.682  16.594  20.360  0.00  0.00     0.037 H 
BRANCH  80  83
ATOM     83  CG  GLU d   1      21.884  17.259  18.702  0.00  0.00     0.018 C 
ATOM     84  H25 GLU d   1      21.452  18.250  18.905  0.00  0.00     0.049 H 
ATOM     85  H26 GLU d   1      21.873  17.069  17.619  0.00  0.00     0.049 H 
BRANCH  83  86
ATOM     86  CD  GLU d   1      23.324  17.258  19.174  0.00  0.00     0.172 C 
ATOM     87  OE1 GLU d   1      23.607  16.714  20.261  0.00  0.00    -0.648 OA
ATOM     88  OE2 GLU d   1      24.180  17.815  18.452  0.00  0.00    -0.648 OA
ENDBRANCH  83  86
ENDBRANCH  80  83
ENDBRANCH  41  80
ENDBRANCH  29  41
ENDBRANCH  24  27
ENDBRANCH  21  23
BRANCH  21  89
ATOM     89  CB  LEU d   1      24.208  12.576  12.965  0.00  0.00    -0.035 C 
ATOM     90  H36 LEU d   1      25.295  12.534  12.800  0.00  0.00     0.037 H 
ATOM     91  H37 LEU d   1      23.692  12.641  11.996  0.00  0.00     0.037 H 
BRANCH  89  92
ATOM     92  CG  LEU d   1      23.784  11.266  13.637  0.00  0.00    -0.059 C 
ATOM     93  H38 LEU d   1      22.713  11.321  13.881  0.00  0.00     0.038 H 
BRANCH  92  94
ATOM     94  CD1 LEU d   1      24.008  10.103  12.683  0.00  0.00    -0.073 C 
ATOM     95  H39 LEU d   1      23.702   9.165  13.170  0.00  0.00     0.028 H 
ATOM     96  H40 LEU d   1      25.074  10.047  12.417  0.00  0.00     0.028 H 
ATOM     97  H41 LEU d   1      23.410  10.255  11.772  0.00  0.00     0.028 H 
ENDBRANCH  92  94
BRANCH  92  98
ATOM     98  CD2 LEU d   1      24.569  11.069  14.927  0.00  0.00    -0.073 C 
ATOM     99  H42 LEU d   1      24.390  11.922  15.599  0.00  0.00     0.028 H 
ATOM    100  H43 LEU d   1      25.642  11.002  14.697  0.00  0.00     0.028 H 
ATOM    101  H44 LEU d   1      24.241  10.141  15.418  0.00  0.00     0.028 H 
ENDBRANCH  92  98
ENDBRANCH  89  92
ENDBRANCH  21  89
ENDBRANCH   9  21
ENDBRANCH   4   7
ENDBRANCH   1   3
BRANCH   1 102
ATOM    102  C   GLN d   1      28.500  16.286   8.846  0.00  0.00     0.240 C 
ATOM    103  O   GLN d   1      28.631  15.382   8.019  0.00  0.00    -0.271 OA
ATOM    104  N   GLY d   1      29.453  16.623   9.707  0.00  0.00    -0.351 N 
ATOM    105  H60 GLY d   1      29.292  17.366  10.357  0.00  0.00     0.163 HD
BRANCH 104 106
ATOM    106  CA  GLY d   1      30.725  15.925   9.715  0.00  0.00     0.069 C 
ATOM    107  H61 GLY d   1      31.509  16.624  10.041  0.00  0.00     0.078 H 
ATOM    108  H62 GLY d   1      30.944  15.579   8.694  0.00  0.00     0.078 H 
BRANCH 106 109
ATOM    109  C   GLY d   1      30.725  14.727  10.644  0.00  0.00     0.236 C 
ATOM    110  O   GLY d   1      29.769  13.955  10.680  0.00  0.00    -0.272 OA
ATOM    111  N   GLN d   1      31.804  14.572  11.402  0.00  0.00    -0.346 N 
ATOM    112  H63 GLN d   1      32.548  15.236  11.334  0.00  0.00     0.163 HD
BRANCH 111 113
ATOM    113  CA  GLN d   1      31.928  13.456  12.331  0.00  0.00     0.090 C 
ATOM    114  H64 GLN d   1      31.361  12.599  11.940  0.00  0.00     0.087 H 
BRANCH 113 115
ATOM    115  C   GLN d   1      31.374  13.837  13.699  0.00  0.00     0.241 C 
ATOM    116  O   GLN d   1      31.674  14.914  14.209  0.00  0.00    -0.271 OA
ATOM    117  N   LEU d   1      30.557  12.964  14.284  0.00  0.00    -0.346 N 
ATOM    118  H71 LEU d   1      30.315  12.117  13.810  0.00  0.00     0.163 HD
BRANCH 117 119
ATOM    119  CA  LEU d   1      30.010  13.232  15.615  0.00  0.00     0.089 C 
ATOM    120  H72 LEU d   1      29.459  14.184  15.617  0.00  0.00     0.087 H 
BRANCH 119 121
ATOM    121  C   LEU d   1      31.213  13.309  16.550  0.00  0.00     0.241 C 
ATOM    122  O   LEU d   1      32.008  12.370  16.625  0.00  0.00    -0.271 OA
ATOM    123  N   THR d   1      31.351  14.422  17.261  0.00  0.00    -0.344 N 
ATOM    124  H82 THR d   1      30.664  15.145  17.184  0.00  0.00     0.163 HD
BRANCH 123 125
ATOM    125  CA  THR d   1      32.491  14.604  18.153  0.00  0.00     0.113 C 
ATOM    126  H83 THR d   1      33.382  14.227  17.629  0.00  0.00     0.091 H 
BRANCH 125 127
ATOM    127  C   THR d   1      32.365  13.848  19.470  0.00  0.00     0.243 C 
ATOM    128  O   THR d   1      31.425  14.059  20.233  0.00  0.00    -0.271 OA
ATOM    129  N   ALA d   1      33.322  12.965  19.731  0.00  0.00    -0.346 N 
ATOM    130  H89 ALA d   1      34.056  12.823  19.067  0.00  0.00     0.163 HD
BRANCH 129 131
ATOM    131  CA  ALA d   1      33.319  12.200  20.970  0.00  0.00     0.086 C 
ATOM    132  H90 ALA d   1      32.291  11.880  21.196  0.00  0.00     0.086 H 
BRANCH 131 133
ATOM    133  C   ALA d   1      33.831  13.079  22.101  0.00  0.00     0.240 C 
ATOM    134  O   ALA d   1      34.282  14.202  21.872  0.00  0.00    -0.271 OA
ATOM    135  N   TYR d   1      33.749  12.576  23.327  0.00  0.00    -0.344 N 
ATOM    136  H94 TYR d   1      33.343  11.672  23.464  0.00  0.00     0.163 HD
BRANCH 135 137
ATOM    137  CA  TYR d   1      34.244  13.325  24.477  0.00  0.00     0.100 C 
ATOM    138  H95 TYR d   1      33.876  14.360  24.428  0.00  0.00     0.090 H 
BRANCH 137 139
ATOM    139  C   TYR d   1      35.773  13.316  24.439  0.00  0.00     0.197 C 
ATOM    140  O   TYR d   1      36.332  12.533  23.642  0.00  0.00    -0.646 OA
ATOM    141  OXT TYR d   1      36.394  14.075  25.208  0.00  0.00    -0.646 OA
ENDBRANCH 137 139
BRANCH 137 142
ATOM    142  CB  TYR d   1      33.772  12.677  25.781  0.00  0.00    -0.013 C 
ATOM    143  H96 TYR d   1      34.365  13.101  26.605  0.00  0.00     0.043 H 
ATOM    144  H97 TYR d   1      33.961  11.596  25.711  0.00  0.00     0.043 H 
BRANCH 142 145
ATOM    145  CG  TYR d   1      32.308  12.875  26.108  0.00  0.00    -0.056 A 
ATOM    146  CD1 TYR d   1      31.315  12.625  25.161  0.00  0.00    -0.074 A 
ATOM    147  CE1 TYR d   1      29.966  12.754  25.481  0.00  0.00    -0.051 A 
ATOM    148  H98 TYR d   1      31.598  12.325  24.159  0.00  0.00     0.084 H 
ATOM    149  CZ  TYR d   1      29.603  13.138  26.765  0.00  0.00     0.065 A 
ATOM    150 0H10 TYR d   1      29.206  12.556  24.734  0.00  0.00     0.087 H 
ATOM    151  CE2 TYR d   1      30.568  13.396  27.717  0.00  0.00    -0.051 A 
ATOM    152  CD2 TYR d   1      31.914  13.264  27.387  0.00  0.00    -0.074 A 
ATOM    153 1H10 TYR d   1      30.279  13.700  28.717  0.00  0.00     0.087 H 
ATOM    154  H99 TYR d   1      32.669  13.467  28.138  0.00  0.00     0.084 H 
BRANCH 149 155
ATOM    155  OH  TYR d   1      28.271  13.247  27.097  0.00  0.00    -0.361 OA
ATOM    156 2H10 TYR d   1      28.088  14.135  27.380  0.00  0.00     0.217 HD
ENDBRANCH 149 155
ENDBRANCH 142 145
ENDBRANCH 137 142
ENDBRANCH 135 137
ENDBRANCH 131 133
BRANCH 131 157
ATOM    157  CB  ALA d   1      34.206  10.964  20.828  0.00  0.00    -0.049 C 
ATOM    158  H91 ALA d   1      34.196  10.395  21.769  0.00  0.00     0.030 H 
ATOM    159  H92 ALA d   1      35.236  11.276  20.600  0.00  0.00     0.030 H 
ATOM    160  H93 ALA d   1      33.825  10.331  20.013  0.00  0.00     0.030 H 
ENDBRANCH 131 157
ENDBRANCH 129 131
ENDBRANCH 125 127
BRANCH 125 161
ATOM    161  CB  THR d   1      32.709  16.091  18.478  0.00  0.00     0.060 C 
ATOM    162  H84 THR d   1      31.955  16.416  19.210  0.00  0.00     0.086 H 
BRANCH 161 163
ATOM    163  OG1 THR d   1      32.578  16.866  17.281  0.00  0.00    -0.393 OA
ATOM    164  H85 THR d   1      33.227  16.581  16.648  0.00  0.00     0.210 HD
ENDBRANCH 161 163
BRANCH 161 165
ATOM    165  CG2 THR d   1      34.100  16.308  19.058  0.00  0.00    -0.050 C 
ATOM    166  H86 THR d   1      34.240  17.375  19.285  0.00  0.00     0.031 H 
ATOM    167  H87 THR d   1      34.856  15.986  18.327  0.00  0.00     0.031 H 
ATOM    168  H88 THR d   1      34.208  15.720  19.981  0.00  0.00     0.031 H 
ENDBRANCH 161 165
ENDBRANCH 125 161
ENDBRANCH 123 125
ENDBRANCH 119 121
BRANCH 119 169
ATOM    169  CB  LEU d   1      29.076  12.101  16.055  0.00  0.00    -0.035 C 
ATOM    170  H73 LEU d   1      29.639  11.158  15.996  0.00  0.00     0.037 H 
ATOM    171  H74 LEU d   1      28.232  12.069  15.351  0.00  0.00     0.037 H 
BRANCH 169 172
ATOM    172  CG  LEU d   1      28.501  12.217  17.472  0.00  0.00    -0.059 C 
ATOM    173  H75 LEU d   1      29.329  12.219  18.196  0.00  0.00     0.038 H 
BRANCH 172 174
ATOM    174  CD1 LEU d   1      27.725  13.521  17.608  0.00  0.00    -0.073 C 
ATOM    175  H76 LEU d   1      27.315  13.599  18.626  0.00  0.00     0.028 H 
ATOM    176  H77 LEU d   1      26.902  13.536  16.879  0.00  0.00     0.028 H 
ATOM    177  H78 LEU d   1      28.398  14.370  17.418  0.00  0.00     0.028 H 
ENDBRANCH 172 174
BRANCH 172 178
ATOM    178  CD2 LEU d   1      27.599  11.027  17.760  0.00  0.00    -0.073 C 
ATOM    179  H79 LEU d   1      28.176  10.096  17.657  0.00  0.00     0.028 H 
ATOM    180  H80 LEU d   1      26.762  11.020  17.047  0.00  0.00     0.028 H 
ATOM    181  H81 LEU d   1      27.207  11.104  18.785  0.00  0.00     0.028 H 
ENDBRANCH 172 178
ENDBRANCH 169 172
ENDBRANCH 119 169
ENDBRANCH 117 119
ENDBRANCH 113 115
BRANCH 113 182
ATOM    182  CB  GLN d   1      33.402  13.065  12.471  0.00  0.00    -0.030 C 
ATOM    183  H65 GLN d   1      33.941  13.916  12.911  0.00  0.00     0.037 H 
ATOM    184  H66 GLN d   1      33.799  12.860  11.466  0.00  0.00     0.037 H 
BRANCH 182 185
ATOM    185  CG  GLN d   1      33.658  11.844  13.338  0.00  0.00     0.011 C 
ATOM    186  H67 GLN d   1      33.145  11.981  14.301  0.00  0.00     0.047 H 
ATOM    187  H68 GLN d   1      34.741  11.753  13.509  0.00  0.00     0.047 H 
BRANCH 185 188
ATOM    188  CD  GLN d   1      33.158  10.564  12.699  0.00  0.00     0.215 C 
ATOM    189  OE1 GLN d   1      31.961  10.400  12.463  0.00  0.00    -0.274 OA
ATOM    190  NE2 GLN d   1      34.077   9.648  12.413  0.00  0.00    -0.370 N 
ATOM    191  H69 GLN d   1      33.806   8.783  11.990  0.00  0.00     0.159 HD
ATOM    192  H70 GLN d   1      35.039   9.823  12.620  0.00  0.00     0.159 HD
ENDBRANCH 185 188
ENDBRANCH 182 185
ENDBRANCH 113 182
ENDBRANCH 111 113
ENDBRANCH 106 109
ENDBRANCH 104 106
ENDBRANCH   1 102
BRANCH   1 193
ATOM    193  CB  GLN d   1      27.356  18.398   8.159  0.00  0.00    -0.030 C 
ATOM    194  H54 GLN d   1      27.741  18.169   7.154  0.00  0.00     0.037 H 
ATOM    195  H55 GLN d   1      28.079  19.031   8.694  0.00  0.00     0.037 H 
BRANCH 193 196
ATOM    196  CG  GLN d   1      26.058  19.175   8.009  0.00  0.00     0.011 C 
ATOM    197  H56 GLN d   1      26.261  20.093   7.438  0.00  0.00     0.047 H 
ATOM    198  H57 GLN d   1      25.689  19.440   9.011  0.00  0.00     0.047 H 
BRANCH 196 199
ATOM    199  CD  GLN d   1      24.981  18.382   7.288  0.00  0.00     0.215 C 
ATOM    200  OE1 GLN d   1      24.559  17.320   7.748  0.00  0.00    -0.274 OA
ATOM    201  NE2 GLN d   1      24.534  18.895   6.147  0.00  0.00    -0.370 N 
ATOM    202  H58 GLN d   1      23.825  18.418   5.628  0.00  0.00     0.159 HD
ATOM    203  H59 GLN d   1      24.906  19.759   5.807  0.00  0.00     0.159 HD
ENDBRANCH 196 199
ENDBRANCH 193 196
ENDBRANCH   1 193
TORSDOF 51
