REMARK WARNING: 32 MAX_TORS EXCEEDED!!!
REMARK  43 active torsions:
REMARK  status: ('A' for Active; 'I' for Inactive)
REMARK    1  A    between atoms: CA_89  and  N_88 
REMARK    2  A    between atoms: CA_89  and  CB_92 
REMARK    3  A    between atoms: C_90  and  CA_89 
REMARK       I    between atoms: N_93  and  C_90 
REMARK    4  A    between atoms: CA_94  and  N_93 
REMARK    5  A    between atoms: CA_94  and  CB_97 
REMARK    6  A    between atoms: C_95  and  CA_94 
REMARK       I    between atoms: N_104  and  C_95 
REMARK    7  A    between atoms: CB_97  and  CG_98 
REMARK    8  A    between atoms: CG_98  and  CD_99 
REMARK    9  A    between atoms: CD_99  and  NE_100 
REMARK       I    between atoms: NE_100  and  CZ_101 
REMARK       I    between atoms: CZ_101  and  NH1_102 
REMARK   10  A    between atoms: CA_105  and  N_104 
REMARK   11  A    between atoms: CA_105  and  CB_108 
REMARK   12  A    between atoms: C_106  and  CA_105 
REMARK       I    between atoms: N_114  and  C_106 
REMARK   13  A    between atoms: CB_108  and  CG_109 
REMARK   14  A    between atoms: CA_115  and  N_114 
REMARK   15  A    between atoms: CA_115  and  CB_118 
REMARK   16  A    between atoms: C_116  and  CA_115 
REMARK       I    between atoms: N_125  and  C_116 
REMARK   17  A    between atoms: CB_118  and  CG_119 
REMARK   18  A    between atoms: CG_119  and  CD_120 
REMARK   19  A    between atoms: CD_120  and  NE_121 
REMARK       I    between atoms: NE_121  and  CZ_122 
REMARK       I    between atoms: CZ_122  and  NH1_123 
REMARK   20  A    between atoms: CA_126  and  N_125 
REMARK   21  A    between atoms: CA_126  and  CB_129 
REMARK   22  A    between atoms: C_127  and  CA_126 
REMARK       I    between atoms: N_134  and  C_127 
REMARK   23  A    between atoms: CB_129  and  CG_130 
REMARK   24  A    between atoms: CG_130  and  CD_131 
REMARK   25  A    between atoms: CD_131  and  CE_132 
REMARK   26  A    between atoms: CE_132  and  NZ_133 
REMARK   27  A    between atoms: CA_135  and  N_134 
REMARK   28  A    between atoms: CA_135  and  CB_138 
REMARK   29  A    between atoms: C_136  and  CA_135 
REMARK       I    between atoms: N_141  and  C_136 
REMARK   30  A    between atoms: CB_138  and  CG2_140 
REMARK   31  A    between atoms: CB_138  and  CG1_139 
REMARK   32  A    between atoms: CA_142  and  N_141 
REMARK   33  A    between atoms: CA_142  and  CB_145 
REMARK   34  A    between atoms: C_143  and  CA_142 
REMARK       I    between atoms: C_143  and  N_149 
REMARK   35  A    between atoms: CB_145  and  CG_146 
REMARK   36  A    between atoms: CG_146  and  CD1_147 
REMARK   37  A    between atoms: CG_146  and  CD2_148 
REMARK   38  A    between atoms: N_149  and  CA_150 
REMARK   39  A    between atoms: CA_150  and  CB_153 
REMARK   40  A    between atoms: CA_150  and  C_151 
REMARK   41  A    between atoms: CB_153  and  CG_154 
REMARK   42  A    between atoms: CG_154  and  CD_155 
REMARK   43  A    between atoms: CD_155  and  NE_156 
REMARK       I    between atoms: NE_156  and  CZ_157 
REMARK       I    between atoms: CZ_157  and  NH1_158 
ROOT
ATOM      1  H42 LYS d   1       0.780   1.986  -8.703  0.00  0.00     0.087 H 
ATOM      2  CA  LYS d   1       1.536   2.775  -8.575  0.00  0.00     0.089 C 
ENDROOT
BRANCH   2   3
ATOM      3  N   LYS d   1       0.903   4.059  -8.337  0.00  0.00    -0.346 N 
ATOM      4  H41 LYS d   1       1.481   4.874  -8.300  0.00  0.00     0.163 HD
ATOM      5  C   ARG d   1      -0.408   4.205  -8.165  0.00  0.00     0.241 C 
ATOM      6  O   ARG d   1      -1.241   3.365  -8.525  0.00  0.00    -0.271 OA
BRANCH   5   7
ATOM      7  CA  ARG d   1      -0.834   5.492  -7.484  0.00  0.00     0.089 C 
ATOM      8  H29 ARG d   1      -0.393   6.345  -8.020  0.00  0.00     0.087 H 
BRANCH   7   9
ATOM      9  N   ARG d   1      -2.287   5.623  -7.510  0.00  0.00    -0.346 N 
ATOM     10  H28 ARG d   1      -2.841   4.941  -7.033  0.00  0.00     0.163 HD
ATOM     11  C   HIS d   1      -2.901   6.619  -8.147  0.00  0.00     0.241 C 
ATOM     12  O   HIS d   1      -2.295   7.549  -8.701  0.00  0.00    -0.271 OA
BRANCH  11  13
ATOM     13  CA  HIS d   1      -4.424   6.572  -8.155  0.00  0.00     0.094 C 
ATOM     14  H22 HIS d   1      -4.790   6.502  -7.120  0.00  0.00     0.088 H 
BRANCH  13  15
ATOM     15  N   HIS d   1      -4.933   7.811  -8.753  0.00  0.00    -0.346 N 
ATOM     16  H21 HIS d   1      -4.872   7.933  -9.744  0.00  0.00     0.163 HD
ATOM     17  C   ARG d   1      -5.474   8.778  -8.013  0.00  0.00     0.241 C 
ATOM     18  O   ARG d   1      -5.705   8.655  -6.796  0.00  0.00    -0.271 OA
BRANCH  17  19
ATOM     19  CA  ARG d   1      -5.764  10.086  -8.724  0.00  0.00     0.089 C 
ATOM     20  H9  ARG d   1      -5.875   9.897  -9.802  0.00  0.00     0.087 H 
BRANCH  19  21
ATOM     21  N   ARG d   1      -6.990  10.702  -8.223  0.00  0.00    -0.346 N 
ATOM     22  H8  ARG d   1      -6.968  11.154  -7.331  0.00  0.00     0.163 HD
ATOM     23  C   LYS d   1      -8.135  10.688  -8.901  0.00  0.00     0.248 C 
ATOM     24  O   LYS d   1      -8.270  10.128  -9.987  0.00  0.00    -0.271 OA
BRANCH  23  25
ATOM     25  CA  LYS d   1      -9.307  11.426  -8.252  0.00  0.00     0.172 C 
ATOM     26  H4  LYS d   1     -10.200  10.788  -8.324  0.00  0.00     0.098 H 
BRANCH  25  27
ATOM     27  N   LYS d   1      -9.033  11.690  -6.812  0.00  0.00    -0.067 N 
ATOM     28  H1  LYS d   1      -9.816  12.176  -6.404  0.00  0.00     0.275 HD
ATOM     29  H2  LYS d   1      -8.204  12.257  -6.726  0.00  0.00     0.275 HD
ATOM     30  H3  LYS d   1      -8.893  10.815  -6.331  0.00  0.00     0.275 HD
ENDBRANCH  25  27
BRANCH  25  31
ATOM     31  CB  LYS d   1      -9.588  12.728  -8.983  0.00  0.00    -0.042 C 
ATOM     32  H5  LYS d   1      -9.788  12.517 -10.044  0.00  0.00     0.030 H 
ATOM     33  H6  LYS d   1      -8.714  13.391  -8.900  0.00  0.00     0.030 H 
ATOM     34  H7  LYS d   1     -10.465  13.218  -8.535  0.00  0.00     0.030 H 
ENDBRANCH  25  31
ENDBRANCH  23  25
ENDBRANCH  19  21
BRANCH  19  35
ATOM     35  CB  ARG d   1      -4.583  11.016  -8.487  0.00  0.00    -0.036 C 
ATOM     36  H10 ARG d   1      -3.666  10.485  -8.781  0.00  0.00     0.036 H 
ATOM     37  H11 ARG d   1      -4.543  11.249  -7.413  0.00  0.00     0.036 H 
BRANCH  35  38
ATOM     38  CG  ARG d   1      -4.633  12.332  -9.254  0.00  0.00    -0.048 C 
ATOM     39  H12 ARG d   1      -5.612  12.807  -9.090  0.00  0.00     0.035 H 
ATOM     40  H13 ARG d   1      -4.499  12.128 -10.327  0.00  0.00     0.035 H 
BRANCH  38  41
ATOM     41  CD  ARG d   1      -3.539  13.277  -8.788  0.00  0.00     0.009 C 
ATOM     42  H14 ARG d   1      -3.779  13.628  -7.773  0.00  0.00     0.064 H 
ATOM     43  H15 ARG d   1      -3.495  14.137  -9.472  0.00  0.00     0.064 H 
BRANCH  41  44
ATOM     44  NE  ARG d   1      -2.234  12.620  -8.767  0.00  0.00    -0.227 N 
ATOM     45  H16 ARG d   1      -1.911  12.238  -7.867  0.00  0.00     0.177 HD
ATOM     46  CZ  ARG d   1      -1.429  12.475  -9.815  0.00  0.00     0.665 C 
ATOM     47  NH2 ARG d   1      -0.276  11.840  -9.658  0.00  0.00    -0.235 N 
ATOM     48  NH1 ARG d   1      -1.764  12.953 -11.015  0.00  0.00    -0.235 N 
ATOM     49  H19 ARG d   1      -0.014  11.470  -8.733  0.00  0.00     0.174 HD
ATOM     50  H20 ARG d   1       0.358  11.717 -10.461  0.00  0.00     0.174 HD
ATOM     51  H17 ARG d   1      -1.126  12.830 -11.815  0.00  0.00     0.174 HD
ATOM     52  H18 ARG d   1      -2.660  13.445 -11.142  0.00  0.00     0.174 HD
ENDBRANCH  41  44
ENDBRANCH  38  41
ENDBRANCH  35  38
ENDBRANCH  19  35
ENDBRANCH  17  19
ENDBRANCH  13  15
BRANCH  13  53
ATOM     53  CB  HIS d   1      -4.895   5.328  -8.928  0.00  0.00     0.004 C 
ATOM     54  H23 HIS d   1      -5.987   5.382  -9.045  0.00  0.00     0.046 H 
ATOM     55  H24 HIS d   1      -4.633   4.434  -8.344  0.00  0.00     0.046 H 
BRANCH  53  56
ATOM     56  CG  HIS d   1      -4.278   5.206 -10.285  0.00  0.00     0.053 A 
ATOM     57  ND1 HIS d   1      -3.038   4.637 -10.491  0.00  0.00    -0.247 NA
ATOM     58  CE1 HIS d   1      -2.735   4.708 -11.778  0.00  0.00     0.064 A 
ATOM     59  H26 HIS d   1      -1.818   4.344 -12.238  0.00  0.00     0.143 H 
ATOM     60  NE2 HIS d   1      -3.737   5.297 -12.409  0.00  0.00    -0.359 N 
ATOM     61  H27 HIS d   1      -3.781   5.479 -13.422  0.00  0.00     0.166 HD
ATOM     62  CD2 HIS d   1      -4.708   5.626 -11.498  0.00  0.00     0.002 A 
ATOM     63  H25 HIS d   1      -5.649   6.131 -11.711  0.00  0.00     0.114 H 
ENDBRANCH  53  56
ENDBRANCH  13  53
ENDBRANCH  11  13
ENDBRANCH   7   9
BRANCH   7  64
ATOM     64  CB  ARG d   1      -0.316   5.488  -6.037  0.00  0.00    -0.036 C 
ATOM     65  H30 ARG d   1       0.726   5.136  -6.043  0.00  0.00     0.036 H 
ATOM     66  H31 ARG d   1      -0.935   4.794  -5.449  0.00  0.00     0.036 H 
BRANCH  64  67
ATOM     67  CG  ARG d   1      -0.357   6.848  -5.369  0.00  0.00    -0.048 C 
ATOM     68  H32 ARG d   1      -1.338   7.310  -5.553  0.00  0.00     0.035 H 
ATOM     69  H33 ARG d   1       0.433   7.483  -5.796  0.00  0.00     0.035 H 
BRANCH  67  70
ATOM     70  CD  ARG d   1      -0.138   6.723  -3.864  0.00  0.00     0.009 C 
ATOM     71  H34 ARG d   1       0.900   6.412  -3.673  0.00  0.00     0.064 H 
ATOM     72  H35 ARG d   1      -0.828   5.968  -3.458  0.00  0.00     0.064 H 
BRANCH  70  73
ATOM     73  NE  ARG d   1      -0.387   8.009  -3.205  0.00  0.00    -0.227 N 
ATOM     74  H36 ARG d   1      -0.052   8.860  -3.678  0.00  0.00     0.177 HD
ATOM     75  CZ  ARG d   1      -1.015   8.157  -2.039  0.00  0.00     0.665 C 
ATOM     76  NH2 ARG d   1      -1.182   9.373  -1.535  0.00  0.00    -0.235 N 
ATOM     77  NH1 ARG d   1      -1.476   7.102  -1.376  0.00  0.00    -0.235 N 
ATOM     78  H39 ARG d   1      -0.827  10.195  -2.044  0.00  0.00     0.174 HD
ATOM     79  H40 ARG d   1      -1.667   9.495  -0.634  0.00  0.00     0.174 HD
ATOM     80  H37 ARG d   1      -1.960   7.231  -0.476  0.00  0.00     0.174 HD
ATOM     81  H38 ARG d   1      -1.350   6.156  -1.762  0.00  0.00     0.174 HD
ENDBRANCH  70  73
ENDBRANCH  67  70
ENDBRANCH  64  67
ENDBRANCH   7  64
ENDBRANCH   5   7
ENDBRANCH   2   3
BRANCH   2  82
ATOM     82  CB  LYS d   1       2.409   2.833  -9.830  0.00  0.00    -0.038 C 
ATOM     83  H43 LYS d   1       2.914   1.863  -9.949  0.00  0.00     0.036 H 
ATOM     84  H44 LYS d   1       3.161   3.624  -9.696  0.00  0.00     0.036 H 
BRANCH  82  85
ATOM     85  CG  LYS d   1       1.616   3.128 -11.107  0.00  0.00    -0.061 C 
ATOM     86  H45 LYS d   1       0.921   3.957 -10.909  0.00  0.00     0.033 H 
ATOM     87  H46 LYS d   1       1.045   2.230 -11.385  0.00  0.00     0.033 H 
BRANCH  85  88
ATOM     88  CD  LYS d   1       2.528   3.517 -12.281  0.00  0.00    -0.043 C 
ATOM     89  H47 LYS d   1       3.180   2.669 -12.538  0.00  0.00     0.035 H 
ATOM     90  H48 LYS d   1       3.146   4.382 -11.997  0.00  0.00     0.035 H 
BRANCH  88  91
ATOM     91  CE  LYS d   1       1.671   3.877 -13.475  0.00  0.00     0.080 C 
ATOM     92  H49 LYS d   1       1.035   4.734 -13.210  0.00  0.00     0.075 H 
ATOM     93  H50 LYS d   1       1.037   3.015 -13.730  0.00  0.00     0.075 H 
BRANCH  91  94
ATOM     94  NZ  LYS d   1       2.494   4.238 -14.666  0.00  0.00    -0.079 N 
ATOM     95  H51 LYS d   1       1.887   4.470 -15.436  0.00  0.00     0.274 HD
ATOM     96  H52 LYS d   1       3.077   3.456 -14.921  0.00  0.00     0.274 HD
ATOM     97  H53 LYS d   1       3.075   5.032 -14.445  0.00  0.00     0.274 HD
ENDBRANCH  91  94
ENDBRANCH  88  91
ENDBRANCH  85  88
ENDBRANCH  82  85
ENDBRANCH   2  82
BRANCH   2  98
ATOM     98  C   LYS d   1       2.353   2.527  -7.295  0.00  0.00     0.241 C 
ATOM     99  O   LYS d   1       2.994   3.460  -6.773  0.00  0.00    -0.271 OA
ATOM    100  N   VAL d   1       2.281   1.311  -6.757  0.00  0.00    -0.346 N 
ATOM    101  H54 VAL d   1       1.867   0.573  -7.290  0.00  0.00     0.163 HD
BRANCH 100 102
ATOM    102  CA  VAL d   1       2.792   1.010  -5.397  0.00  0.00     0.092 C 
ATOM    103  H55 VAL d   1       3.513   1.783  -5.094  0.00  0.00     0.088 H 
BRANCH 102 104
ATOM    104  CB  VAL d   1       1.608   0.946  -4.359  0.00  0.00    -0.033 C 
ATOM    105  H56 VAL d   1       0.844   0.272  -4.774  0.00  0.00     0.042 H 
BRANCH 104 106
ATOM    106  CG2 VAL d   1       0.969   2.304  -4.171  0.00  0.00    -0.071 C 
ATOM    107  H60 VAL d   1       0.659   2.702  -5.149  0.00  0.00     0.028 H 
ATOM    108  H61 VAL d   1       1.695   2.990  -3.710  0.00  0.00     0.028 H 
ATOM    109  H62 VAL d   1       0.089   2.208  -3.518  0.00  0.00     0.028 H 
ENDBRANCH 104 106
BRANCH 104 110
ATOM    110  CG1 VAL d   1       2.053   0.363  -3.008  0.00  0.00    -0.071 C 
ATOM    111  H57 VAL d   1       1.196   0.339  -2.319  0.00  0.00     0.028 H 
ATOM    112  H58 VAL d   1       2.848   0.992  -2.581  0.00  0.00     0.028 H 
ATOM    113  H59 VAL d   1       2.433  -0.658  -3.157  0.00  0.00     0.028 H 
ENDBRANCH 104 110
ENDBRANCH 102 104
BRANCH 102 114
ATOM    114  C   VAL d   1       3.459  -0.352  -5.415  0.00  0.00     0.241 C 
ATOM    115  O   VAL d   1       2.827  -1.327  -5.805  0.00  0.00    -0.271 OA
ATOM    116  N   LEU d   1       4.727  -0.441  -5.010  0.00  0.00    -0.346 N 
ATOM    117  H63 LEU d   1       5.228   0.384  -4.748  0.00  0.00     0.163 HD
BRANCH 116 118
ATOM    118  CA  LEU d   1       5.384  -1.749  -4.949  0.00  0.00     0.089 C 
ATOM    119  H64 LEU d   1       5.148  -2.297  -5.873  0.00  0.00     0.087 H 
BRANCH 118 120
ATOM    120  CB  LEU d   1       6.909  -1.597  -4.852  0.00  0.00    -0.035 C 
ATOM    121  H65 LEU d   1       7.137  -1.163  -3.868  0.00  0.00     0.037 H 
ATOM    122  H66 LEU d   1       7.224  -0.900  -5.642  0.00  0.00     0.037 H 
BRANCH 120 123
ATOM    123  CG  LEU d   1       7.746  -2.872  -5.000  0.00  0.00    -0.059 C 
ATOM    124  H67 LEU d   1       7.456  -3.574  -4.204  0.00  0.00     0.038 H 
BRANCH 123 125
ATOM    125  CD1 LEU d   1       7.484  -3.531  -6.351  0.00  0.00    -0.073 C 
ATOM    126  H68 LEU d   1       8.093  -4.443  -6.438  0.00  0.00     0.028 H 
ATOM    127  H69 LEU d   1       7.752  -2.833  -7.158  0.00  0.00     0.028 H 
ATOM    128  H70 LEU d   1       6.418  -3.792  -6.431  0.00  0.00     0.028 H 
ENDBRANCH 123 125
BRANCH 123 129
ATOM    129  CD2 LEU d   1       9.217  -2.562  -4.858  0.00  0.00    -0.073 C 
ATOM    130  H71 LEU d   1       9.399  -2.087  -3.882  0.00  0.00     0.028 H 
ATOM    131  H72 LEU d   1       9.527  -1.878  -5.662  0.00  0.00     0.028 H 
ATOM    132  H73 LEU d   1       9.796  -3.494  -4.926  0.00  0.00     0.028 H 
ENDBRANCH 123 129
ENDBRANCH 120 123
ENDBRANCH 118 120
BRANCH 118 133
ATOM    133  C   LEU d   1       4.862  -2.552  -3.764  0.00  0.00     0.241 C 
ATOM    134  O   LEU d   1       4.813  -2.028  -2.665  0.00  0.00    -0.271 OA
ATOM    135  N   ARG d   1       4.496  -3.815  -4.009  0.00  0.00    -0.345 N 
ATOM    136  H74 ARG d   1       4.602  -4.172  -4.937  0.00  0.00     0.163 HD
BRANCH 135 137
ATOM    137  CA  ARG d   1       3.946  -4.700  -2.975  0.00  0.00     0.096 C 
ATOM    138  H75 ARG d   1       3.990  -4.177  -2.009  0.00  0.00     0.089 H 
BRANCH 137 139
ATOM    139  CB  ARG d   1       2.478  -5.057  -3.272  0.00  0.00    -0.035 C 
ATOM    140  H76 ARG d   1       2.136  -5.761  -2.499  0.00  0.00     0.036 H 
ATOM    141  H77 ARG d   1       2.439  -5.546  -4.257  0.00  0.00     0.036 H 
BRANCH 139 142
ATOM    142  CG  ARG d   1       1.507  -3.870  -3.294  0.00  0.00    -0.047 C 
ATOM    143  H78 ARG d   1       1.803  -3.173  -4.092  0.00  0.00     0.035 H 
ATOM    144  H79 ARG d   1       1.542  -3.353  -2.324  0.00  0.00     0.035 H 
BRANCH 142 145
ATOM    145  CD  ARG d   1       0.090  -4.358  -3.553  0.00  0.00     0.009 C 
ATOM    146  H80 ARG d   1       0.113  -5.133  -4.334  0.00  0.00     0.064 H 
ATOM    147  H81 ARG d   1      -0.526  -3.513  -3.893  0.00  0.00     0.064 H 
BRANCH 145 148
ATOM    148  NE  ARG d   1      -0.497  -4.920  -2.337  0.00  0.00    -0.227 N 
ATOM    149  H82 ARG d   1      -0.181  -5.854  -2.038  0.00  0.00     0.177 HD
ATOM    150  CZ  ARG d   1      -1.412  -4.306  -1.591  0.00  0.00     0.665 C 
ATOM    151  NH2 ARG d   1      -1.869  -4.905  -0.495  0.00  0.00    -0.235 N 
ATOM    152  NH1 ARG d   1      -1.903  -3.120  -1.942  0.00  0.00    -0.235 N 
ATOM    153  H85 ARG d   1      -1.495  -5.823  -0.216  0.00  0.00     0.174 HD
ATOM    154  H86 ARG d   1      -2.597  -4.451   0.074  0.00  0.00     0.174 HD
ATOM    155  H83 ARG d   1      -2.611  -2.660  -1.351  0.00  0.00     0.174 HD
ATOM    156  H84 ARG d   1      -1.575  -2.662  -2.804  0.00  0.00     0.174 HD
ENDBRANCH 145 148
ENDBRANCH 142 145
ENDBRANCH 139 142
ENDBRANCH 137 139
BRANCH 137 157
ATOM    157  C   ARG d   1       4.781  -5.976  -2.881  0.00  0.00     0.196 C 
ATOM    158  O1  ARG d   1       5.886  -6.039  -3.484  0.00  0.00    -0.646 OA
ATOM    159  O   ARG d   1       4.390  -6.950  -2.222  0.00  0.00    -0.646 OA
ENDBRANCH 137 157
ENDBRANCH 135 137
ENDBRANCH 118 133
ENDBRANCH 116 118
ENDBRANCH 102 114
ENDBRANCH 100 102
ENDBRANCH   2  98
TORSDOF 43
