REMARK  5 active torsions:
REMARK  status: ('A' for Active; 'I' for Inactive)
REMARK    1  A    between atoms: N3_6  and  C11_13 
REMARK    2  A    between atoms: N1_8  and  C10_12 
REMARK    3  A    between atoms: C11_13  and  C12_14 
REMARK    4  A    between atoms: C12_14  and  C13_15 
REMARK    5  A    between atoms: C12_14  and  C14_16 
ROOT
ATOM      1  N9  IBM d   1      20.937  -3.819  29.481  0.00  0.00    -0.224 NA
ATOM      2  C8  IBM d   1      20.800  -2.897  30.491  0.00  0.00     0.067 A 
ATOM      3  N7  IBM d   1      21.203  -3.333  31.660  0.00  0.00    -0.343 N 
ATOM      4  C5  IBM d   1      21.631  -4.627  31.400  0.00  0.00     0.149 A 
ATOM      5  C4  IBM d   1      21.473  -4.942  30.067  0.00  0.00     0.167 A 
ATOM      6  N3  IBM d   1      21.785  -6.105  29.455  0.00  0.00    -0.281 N 
ATOM      7  C2  IBM d   1      22.313  -7.060  30.283  0.00  0.00     0.333 A 
ATOM      8  N1  IBM d   1      22.507  -6.828  31.648  0.00  0.00    -0.269 N 
ATOM      9  C6  IBM d   1      22.169  -5.620  32.206  0.00  0.00     0.281 A 
ATOM     10  O6  IBM d   1      22.343  -5.416  33.398  0.00  0.00    -0.265 OA
ATOM     11  O2  IBM d   1      22.633  -8.146  29.814  0.00  0.00    -0.246 OA
ATOM     12  H1  IBM d   1      20.395  -1.898  30.335  0.00  0.00     0.143 H 
ATOM     13  H2  IBM d   1      21.202  -2.832  32.560  0.00  0.00     0.167 HD
ENDROOT
BRANCH   6  14
ATOM     14  C11 IBM d   1      21.603  -6.310  28.020  0.00  0.00     0.009 C 
ATOM     15  H6  IBM d   1      22.373  -7.005  27.653  0.00  0.00     0.065 H 
ATOM     16  H7  IBM d   1      21.702  -5.345  27.501  0.00  0.00     0.065 H 
BRANCH  14  17
ATOM     17  C12 IBM d   1      20.213  -6.898  27.735  0.00  0.00    -0.045 C 
ATOM     18  H8  IBM d   1      20.118  -6.885  26.639  0.00  0.00     0.041 H 
BRANCH  17  19
ATOM     19  C13 IBM d   1      20.074  -8.363  28.136  0.00  0.00    -0.072 C 
ATOM     20  H9  IBM d   1      19.057  -8.712  27.903  0.00  0.00     0.028 H 
ATOM     21  H10 IBM d   1      20.259  -8.467  29.215  0.00  0.00     0.028 H 
ATOM     22  H11 IBM d   1      20.806  -8.967  27.579  0.00  0.00     0.028 H 
ENDBRANCH  17  19
BRANCH  17  23
ATOM     23  C14 IBM d   1      19.059  -6.047  28.248  0.00  0.00    -0.072 C 
ATOM     24  H12 IBM d   1      19.205  -5.003  27.934  0.00  0.00     0.028 H 
ATOM     25  H13 IBM d   1      19.026  -6.098  29.346  0.00  0.00     0.028 H 
ATOM     26  H14 IBM d   1      18.112  -6.425  27.834  0.00  0.00     0.028 H 
ENDBRANCH  17  23
ENDBRANCH  14  17
ENDBRANCH   6  14
BRANCH   8  27
ATOM     27  C10 IBM d   1      23.074  -7.874  32.485  0.00  0.00    -0.007 C 
ATOM     28  H3  IBM d   1      23.281  -8.763  31.871  0.00  0.00     0.057 H 
ATOM     29  H4  IBM d   1      22.360  -8.135  33.280  0.00  0.00     0.057 H 
ATOM     30  H5  IBM d   1      24.010  -7.515  32.937  0.00  0.00     0.057 H 
ENDBRANCH   8  27
TORSDOF 5
