REMARK  7 active torsions:
REMARK  status: ('A' for Active; 'I' for Inactive)
REMARK    1  A    between atoms: CAN_1  and  CAK_2 
REMARK    2  A    between atoms: CAO_4  and  CAR_5 
REMARK    3  A    between atoms: CAP_7  and  CAS_8 
REMARK    4  A    between atoms: CAL_9  and  CAT_10 
REMARK    5  A    between atoms: CAT_10  and  OAU_11 
REMARK    6  A    between atoms: CAI_14  and  CAD_15 
REMARK    7  A    between atoms: CAA_18  and  OAG_19 
ROOT
ATOM      1  CAK 689 d   1     -25.950   3.733  -4.963  0.00  0.00    -0.036 C 
ATOM      2  CAJ 689 d   1     -24.531   3.386  -5.442  0.00  0.00     0.000 C 
ATOM      3  CAO 689 d   1     -24.769   2.587  -6.658  0.00  0.00    -0.080 C 
ATOM      4  CAQ 689 d   1     -25.634   3.166  -7.561  0.00  0.00    -0.096 C 
ATOM      5  CAP 689 d   1     -26.361   4.499  -7.266  0.00  0.00    -0.029 C 
ATOM      6  CAL 689 d   1     -26.377   4.916  -5.800  0.00  0.00     0.013 C 
ATOM      7  CAM 689 d   1     -25.412   6.080  -5.594  0.00  0.00     0.030 C 
ATOM      8  OAH 689 d   1     -24.083   5.731  -5.264  0.00  0.00    -0.380 OA
ATOM      9  CAI 689 d   1     -23.811   4.627  -6.040  0.00  0.00     0.071 C 
ATOM     10  H4  689 d   1     -26.613   2.883  -5.183  0.00  0.00     0.042 H 
ATOM     11  H5  689 d   1     -23.938   2.878  -4.667  0.00  0.00     0.051 H 
ATOM     12  H9  689 d   1     -25.811   2.669  -8.514  0.00  0.00     0.077 H 
ATOM     13  H10 689 d   1     -25.881   5.296  -7.853  0.00  0.00     0.047 H 
ATOM     14  H17 689 d   1     -25.808   6.705  -4.780  0.00  0.00     0.075 H 
ATOM     15  H18 689 d   1     -25.385   6.664  -6.526  0.00  0.00     0.075 H 
ATOM     16  H19 689 d   1     -24.330   4.830  -6.988  0.00  0.00     0.092 H 
ENDROOT
BRANCH   9  17
ATOM     17  CAD 689 d   1     -22.359   4.369  -6.481  0.00  0.00    -0.029 A 
ATOM     18  CAC 689 d   1     -22.042   4.272  -7.833  0.00  0.00    -0.072 A 
ATOM     19  CAB 689 d   1     -20.742   4.030  -8.225  0.00  0.00    -0.050 A 
ATOM     20  H20 689 d   1     -22.819   4.387  -8.580  0.00  0.00     0.084 H 
ATOM     21  CAA 689 d   1     -19.749   3.870  -7.273  0.00  0.00     0.065 A 
ATOM     22  H21 689 d   1     -20.497   3.965  -9.279  0.00  0.00     0.087 H 
ATOM     23  CAF 689 d   1     -20.062   3.972  -5.933  0.00  0.00    -0.050 A 
ATOM     24  CAE 689 d   1     -21.357   4.211  -5.541  0.00  0.00    -0.072 A 
ATOM     25  H23 689 d   1     -19.283   3.863  -5.187  0.00  0.00     0.087 H 
ATOM     26  H24 689 d   1     -21.595   4.276  -4.486  0.00  0.00     0.084 H 
BRANCH  21  27
ATOM     27  OAG 689 d   1     -18.482   3.628  -7.636  0.00  0.00    -0.361 OA
ATOM     28  H22 689 d   1     -18.445   2.820  -8.134  0.00  0.00     0.217 HD
ENDBRANCH  21  27
ENDBRANCH   9  17
BRANCH   1  29
ATOM     29  CAN 689 d   1     -26.047   4.007  -3.467  0.00  0.00    -0.071 C 
ATOM     30  H1  689 d   1     -25.725   3.115  -2.909  0.00  0.00     0.028 H 
ATOM     31  H2  689 d   1     -27.088   4.247  -3.205  0.00  0.00     0.028 H 
ATOM     32  H3  689 d   1     -25.398   4.856  -3.207  0.00  0.00     0.028 H 
ENDBRANCH   1  29
BRANCH   3  33
ATOM     33  CAR 689 d   1     -24.025   1.296  -6.898  0.00  0.00    -0.054 C 
ATOM     34  H6  689 d   1     -24.347   0.860  -7.855  0.00  0.00     0.033 H 
ATOM     35  H7  689 d   1     -24.242   0.591  -6.082  0.00  0.00     0.033 H 
ATOM     36  H8  689 d   1     -22.944   1.497  -6.932  0.00  0.00     0.033 H 
ENDBRANCH   3  33
BRANCH   6  37
ATOM     37  CAT 689 d   1     -27.762   5.420  -5.432  0.00  0.00     0.027 C 
ATOM     38  H14 689 d   1     -28.406   4.559  -5.198  0.00  0.00     0.075 H 
ATOM     39  H15 689 d   1     -28.181   5.970  -6.287  0.00  0.00     0.075 H 
BRANCH  37  40
ATOM     40  OAU 689 d   1     -27.717   6.280  -4.308  0.00  0.00    -0.400 OA
ATOM     41  H16 689 d   1     -28.596   6.578  -4.103  0.00  0.00     0.209 HD
ENDBRANCH  37  40
ENDBRANCH   6  37
BRANCH   5  42
ATOM     42  CAS 689 d   1     -27.794   4.337  -7.685  0.00  0.00    -0.069 C 
ATOM     43  H11 689 d   1     -27.835   4.035  -8.742  0.00  0.00     0.028 H 
ATOM     44  H12 689 d   1     -28.324   5.292  -7.556  0.00  0.00     0.028 H 
ATOM     45  H13 689 d   1     -28.273   3.565  -7.064  0.00  0.00     0.028 H 
ENDBRANCH   5  42
TORSDOF 7
