REMARK  24 active torsions:
REMARK  status: ('A' for Active; 'I' for Inactive)
REMARK    1  A    between atoms: N_1  and  CA_2 
REMARK    2  A    between atoms: CA_2  and  C_3 
REMARK    3  A    between atoms: CA_2  and  CB_5 
REMARK       I    between atoms: C_3  and  N_9 
REMARK    4  A    between atoms: CB_5  and  CG_6 
REMARK    5  A    between atoms: CG_6  and  CD1_7 
REMARK    6  A    between atoms: CG_6  and  CD2_8 
REMARK    7  A    between atoms: N_9  and  CA_10 
REMARK    8  A    between atoms: CA_10  and  C_11 
REMARK    9  A    between atoms: CA_10  and  CB_13 
REMARK       I    between atoms: C_11  and  N_14 
REMARK   10  A    between atoms: N_14  and  CA_15 
REMARK   11  A    between atoms: CA_15  and  C_16 
REMARK   12  A    between atoms: CA_15  and  CB_18 
REMARK       I    between atoms: C_16  and  N_22 
REMARK   13  A    between atoms: CB_18  and  CG1_19 
REMARK   14  A    between atoms: CB_18  and  CG2_20 
REMARK   15  A    between atoms: CG1_19  and  CD1_21 
REMARK   16  A    between atoms: N_22  and  CA_23 
REMARK   17  A    between atoms: CA_23  and  C_24 
REMARK   18  A    between atoms: CA_23  and  CB_26 
REMARK       I    between atoms: C_24  and  N_34 
REMARK   19  A    between atoms: CB_26  and  CG_27 
REMARK   20  A    between atoms: CZ_32  and  OH_33 
REMARK   21  A    between atoms: N_34  and  CA_35 
REMARK   22  A    between atoms: CA_35  and  C_36 
REMARK   23  A    between atoms: CA_35  and  CB_38 
REMARK   24  A    between atoms: CB_38  and  OG_39 
ROOT
ATOM      1  CA  ILE d   1      33.635  32.319  -6.035  0.00  0.00     0.092 C 
ATOM      2  H20 ILE d   1      34.591  31.866  -6.335  0.00  0.00     0.088 H 
ENDROOT
BRANCH   1   3
ATOM      3  N   ILE d   1      32.680  31.869  -7.101  0.00  0.00    -0.346 N 
ATOM      4  C   ALA d   1      32.029  30.696  -7.481  0.00  0.00     0.240 C 
ATOM      5  O   ALA d   1      32.014  29.638  -6.854  0.00  0.00    -0.271 OA
ATOM      6  H19 ILE d   1      32.443  32.624  -7.712  0.00  0.00     0.163 HD
BRANCH   4   7
ATOM      7  CA  ALA d   1      31.277  30.901  -8.852  0.00  0.00     0.086 C 
ATOM      8  H15 ALA d   1      32.060  31.186  -9.570  0.00  0.00     0.086 H 
BRANCH   7   9
ATOM      9  N   ALA d   1      30.517  29.794  -9.511  0.00  0.00    -0.346 N 
ATOM     10  C   LEU d   1      30.269  29.871 -10.850  0.00  0.00     0.248 C 
ATOM     11  O   LEU d   1      30.694  30.805 -11.521  0.00  0.00    -0.271 OA
ATOM     12  H14 ALA d   1      30.196  29.011  -8.979  0.00  0.00     0.163 HD
BRANCH  10  13
ATOM     13  CA  LEU d   1      29.440  28.761 -11.500  0.00  0.00     0.176 C 
ATOM     14  H4  LEU d   1      29.505  28.880 -12.592  0.00  0.00     0.099 H 
BRANCH  13  15
ATOM     15  N   LEU d   1      29.945  27.424 -11.158  0.00  0.00    -0.066 N 
ATOM     16  H1  LEU d   1      29.373  26.724 -11.605  0.00  0.00     0.275 HD
ATOM     17  H2  LEU d   1      29.911  27.298 -10.159  0.00  0.00     0.275 HD
ATOM     18  H3  LEU d   1      30.897  27.333 -11.476  0.00  0.00     0.275 HD
ENDBRANCH  13  15
BRANCH  13  19
ATOM     19  CB  LEU d   1      27.957  28.904 -11.079  0.00  0.00    -0.028 C 
ATOM     20  H5  LEU d   1      27.942  29.078  -9.993  0.00  0.00     0.037 H 
ATOM     21  H6  LEU d   1      27.461  27.948 -11.304  0.00  0.00     0.037 H 
BRANCH  19  22
ATOM     22  CG  LEU d   1      27.118  30.017 -11.730  0.00  0.00    -0.059 C 
ATOM     23  H7  LEU d   1      27.698  30.448 -12.559  0.00  0.00     0.038 H 
BRANCH  22  24
ATOM     24  CD1 LEU d   1      25.829  29.451 -12.300  0.00  0.00    -0.073 C 
ATOM     25  H8  LEU d   1      25.245  30.261 -12.760  0.00  0.00     0.028 H 
ATOM     26  H9  LEU d   1      25.242  28.989 -11.492  0.00  0.00     0.028 H 
ATOM     27  H10 LEU d   1      26.066  28.693 -13.061  0.00  0.00     0.028 H 
ENDBRANCH  22  24
BRANCH  22  28
ATOM     28  CD2 LEU d   1      26.839  31.124 -10.716  0.00  0.00    -0.073 C 
ATOM     29  H11 LEU d   1      27.791  31.511 -10.324  0.00  0.00     0.028 H 
ATOM     30  H12 LEU d   1      26.239  30.720  -9.888  0.00  0.00     0.028 H 
ATOM     31  H13 LEU d   1      26.286  31.939 -11.206  0.00  0.00     0.028 H 
ENDBRANCH  22  28
ENDBRANCH  19  22
ENDBRANCH  13  19
ENDBRANCH  10  13
ENDBRANCH   7   9
BRANCH   7  32
ATOM     32  CB  ALA d   1      30.317  32.074  -8.706  0.00  0.00    -0.049 C 
ATOM     33  H16 ALA d   1      30.837  32.915  -8.223  0.00  0.00     0.030 H 
ATOM     34  H17 ALA d   1      29.459  31.771  -8.089  0.00  0.00     0.030 H 
ATOM     35  H18 ALA d   1      29.963  32.384  -9.700  0.00  0.00     0.030 H 
ENDBRANCH   7  32
ENDBRANCH   4   7
ENDBRANCH   1   3
BRANCH   1  36
ATOM     36  C   ILE d   1      33.548  32.090  -4.536  0.00  0.00     0.241 C 
ATOM     37  O   ILE d   1      32.606  32.515  -3.847  0.00  0.00    -0.271 OA
ATOM     38  N   TYR d   1      34.598  31.388  -4.073  0.00  0.00    -0.346 N 
ATOM     39  H30 TYR d   1      35.234  30.967  -4.719  0.00  0.00     0.163 HD
BRANCH  38  40
ATOM     40  CA  TYR d   1      34.820  31.234  -2.640  0.00  0.00     0.093 C 
ATOM     41  H31 TYR d   1      33.861  31.133  -2.110  0.00  0.00     0.088 H 
BRANCH  40  42
ATOM     42  C   TYR d   1      35.493  32.516  -2.297  0.00  0.00     0.241 C 
ATOM     43  O   TYR d   1      34.943  33.585  -2.524  0.00  0.00    -0.271 OA
ATOM     44  N   SER d   1      36.656  32.421  -1.770  0.00  0.00    -0.343 N 
ATOM     45  H39 SER d   1      37.072  31.529  -1.591  0.00  0.00     0.163 HD
BRANCH  44  46
ATOM     46  CA  SER d   1      37.328  33.616  -1.451  0.00  0.00     0.116 C 
ATOM     47  H40 SER d   1      36.603  34.443  -1.485  0.00  0.00     0.093 H 
BRANCH  46  48
ATOM     48  C   SER d   1      38.433  33.924  -2.454  0.00  0.00     0.198 C 
ATOM     49  O   SER d   1      38.176  34.381  -3.572  0.00  0.00    -0.646 OA
ATOM     50  OXT SER d   1      39.593  33.667  -2.125  0.00  0.00    -0.646 OA
ENDBRANCH  46  48
BRANCH  46  51
ATOM     51  CB  SER d   1      37.864  33.505  -0.033  0.00  0.00     0.045 C 
ATOM     52  H41 SER d   1      38.471  32.592   0.051  0.00  0.00     0.077 H 
ATOM     53  H42 SER d   1      37.017  33.448   0.667  0.00  0.00     0.077 H 
BRANCH  51  54
ATOM     54  OG  SER d   1      38.667  34.627   0.302  0.00  0.00    -0.398 OA
ATOM     55  H43 SER d   1      39.402  34.679  -0.297  0.00  0.00     0.209 HD
ENDBRANCH  51  54
ENDBRANCH  46  51
ENDBRANCH  44  46
ENDBRANCH  40  42
BRANCH  40  56
ATOM     56  CB  TYR d   1      35.715  30.047  -2.275  0.00  0.00    -0.014 C 
ATOM     57  H32 TYR d   1      35.407  29.634  -1.303  0.00  0.00     0.043 H 
ATOM     58  H33 TYR d   1      36.763  30.375  -2.218  0.00  0.00     0.043 H 
BRANCH  56  59
ATOM     59  CG  TYR d   1      35.571  29.017  -3.324  0.00  0.00    -0.056 A 
ATOM     60  CD1 TYR d   1      35.985  29.343  -4.595  0.00  0.00    -0.074 A 
ATOM     61  CE1 TYR d   1      35.826  28.459  -5.623  0.00  0.00    -0.051 A 
ATOM     62  H34 TYR d   1      36.441  30.309  -4.781  0.00  0.00     0.084 H 
ATOM     63  CZ  TYR d   1      35.232  27.243  -5.377  0.00  0.00     0.065 A 
ATOM     64  H36 TYR d   1      36.164  28.712  -6.621  0.00  0.00     0.087 H 
ATOM     65  CE2 TYR d   1      34.822  26.902  -4.098  0.00  0.00    -0.051 A 
ATOM     66  CD2 TYR d   1      35.001  27.779  -3.054  0.00  0.00    -0.074 A 
ATOM     67  H37 TYR d   1      34.358  25.939  -3.920  0.00  0.00     0.087 H 
ATOM     68  H35 TYR d   1      34.705  27.511  -2.046  0.00  0.00     0.084 H 
BRANCH  63  69
ATOM     69  OH  TYR d   1      35.034  26.353  -6.403  0.00  0.00    -0.361 OA
ATOM     70  H38 TYR d   1      35.364  26.726  -7.212  0.00  0.00     0.217 HD
ENDBRANCH  63  69
ENDBRANCH  56  59
ENDBRANCH  40  56
ENDBRANCH  38  40
ENDBRANCH   1  36
BRANCH   1  71
ATOM     71  CB  ILE d   1      33.764  33.869  -6.106  0.00  0.00    -0.030 C 
ATOM     72  H21 ILE d   1      32.884  34.315  -5.619  0.00  0.00     0.043 H 
BRANCH  71  73
ATOM     73  CG1 ILE d   1      33.805  34.333  -7.548  0.00  0.00    -0.063 C 
ATOM     74  H22 ILE d   1      34.492  33.678  -8.105  0.00  0.00     0.033 H 
ATOM     75  H23 ILE d   1      34.184  35.366  -7.571  0.00  0.00     0.033 H 
BRANCH  73  76
ATOM     76  CD1 ILE d   1      32.462  34.303  -8.228  0.00  0.00    -0.076 C 
ATOM     77  H27 ILE d   1      32.569  34.651  -9.266  0.00  0.00     0.027 H 
ATOM     78  H28 ILE d   1      31.764  34.962  -7.690  0.00  0.00     0.027 H 
ATOM     79  H29 ILE d   1      32.072  33.274  -8.225  0.00  0.00     0.027 H 
ENDBRANCH  73  76
ENDBRANCH  71  73
BRANCH  71  80
ATOM     80  CG2 ILE d   1      35.014  34.336  -5.371  0.00  0.00    -0.071 C 
ATOM     81  H24 ILE d   1      34.974  33.994  -4.326  0.00  0.00     0.028 H 
ATOM     82  H25 ILE d   1      35.065  35.434  -5.396  0.00  0.00     0.028 H 
ATOM     83  H26 ILE d   1      35.905  33.916  -5.860  0.00  0.00     0.028 H 
ENDBRANCH  71  80
ENDBRANCH   1  71
TORSDOF 24
