REMARK  10 active torsions:
REMARK  status: ('A' for Active; 'I' for Inactive)
REMARK    1  A    between atoms: PA_1  and  O3A_4 
REMARK    2  A    between atoms: PA_1  and  O5_13 
REMARK    3  A    between atoms: O3A_4  and  PB_5 
REMARK    4  A    between atoms: PB_5  and  O3B_8 
REMARK    5  A    between atoms: O3B_8  and  PG_9 
REMARK    6  A    between atoms: O5_13  and  C5_14 
REMARK    7  A    between atoms: C5_14  and  C4_15 
REMARK    8  A    between atoms: C3_17  and  O3_18 
REMARK    9  A    between atoms: C1_20  and  N1_21 
REMARK   10  A    between atoms: C5_27  and  C5M_28 
ROOT
ATOM      1  C4  TTP d   1      36.995  16.160   8.944  0.00  0.00     0.087 C 
ATOM      2  O4  TTP d   1      36.427  14.886   9.277  0.00  0.00    -0.356 OA
ATOM      3  C3  TTP d   1      36.104  16.728   8.018  0.00  0.00     0.066 C 
ATOM      4  C2  TTP d   1      34.836  16.118   8.282  0.00  0.00     0.002 C 
ATOM      5  C1  TTP d   1      35.131  14.792   8.686  0.00  0.00     0.116 C 
ATOM      6  H3  TTP d   1      37.979  16.020   8.473  0.00  0.00     0.090 H 
ATOM      7  H4  TTP d   1      36.035  17.819   8.142  0.00  0.00     0.087 H 
ATOM      8  H6  TTP d   1      34.215  16.114   7.374  0.00  0.00     0.043 H 
ATOM      9  H7  TTP d   1      34.310  16.656   9.084  0.00  0.00     0.043 H 
ATOM     10  H8  TTP d   1      35.173  14.161   7.786  0.00  0.00     0.118 H 
ENDROOT
BRANCH   1  11
ATOM     11  C5  TTP d   1      37.160  16.960  10.097  0.00  0.00     0.058 C 
ATOM     12  H1  TTP d   1      37.182  16.291  10.970  0.00  0.00     0.079 H 
ATOM     13  H2  TTP d   1      38.125  17.480  10.009  0.00  0.00     0.079 H 
BRANCH  11  14
ATOM     14  O5  TTP d   1      36.156  17.942  10.328  0.00  0.00    -0.287 OA
BRANCH  14  15
ATOM     15  PA  TTP d   1      36.004  18.475  11.832  0.00  0.00     0.417 P 
ATOM     16  O1A TTP d   1      35.732  17.392  12.786  0.00  0.00    -0.624 OA
ATOM     17  O2A TTP d   1      34.997  19.555  11.780  0.00  0.00    -0.624 OA
BRANCH  15  18
ATOM     18  O3A TTP d   1      37.424  19.092  12.217  0.00  0.00    -0.180 OA
BRANCH  18  19
ATOM     19  PB  TTP d   1      38.117  20.399  11.554  0.00  0.00     0.428 P 
ATOM     20  O1B TTP d   1      39.472  20.322  12.124  0.00  0.00    -0.624 OA
ATOM     21  O2B TTP d   1      37.948  20.385  10.086  0.00  0.00    -0.624 OA
BRANCH  19  22
ATOM     22  O3B TTP d   1      37.298  21.603  12.238  0.00  0.00    -0.173 OA
BRANCH  22  23
ATOM     23  PG  TTP d   1      37.848  23.132  12.507  0.00  0.00     0.431 P 
ATOM     24  O1G TTP d   1      38.345  23.698  11.253  0.00  0.00    -0.616 OA
ATOM     25  O2G TTP d   1      36.619  23.801  13.019  0.00  0.00    -0.616 OA
ATOM     26  O3G TTP d   1      38.897  23.056  13.529  0.00  0.00    -0.616 OA
ENDBRANCH  22  23
ENDBRANCH  19  22
ENDBRANCH  18  19
ENDBRANCH  15  18
ENDBRANCH  14  15
ENDBRANCH  11  14
ENDBRANCH   1  11
BRANCH   3  27
ATOM     27  O3  TTP d   1      36.607  16.413   6.710  0.00  0.00    -0.393 OA
ATOM     28  H5  TTP d   1      37.477  16.780   6.610  0.00  0.00     0.210 HD
ENDBRANCH   3  27
BRANCH   5  29
ATOM     29  N1  TTP d   1      34.267  14.178   9.578  0.00  0.00    -0.282 N 
ATOM     30  C2  TTP d   1      33.435  13.155   9.181  0.00  0.00     0.331 A 
ATOM     31  O2  TTP d   1      33.421  12.773   8.013  0.00  0.00    -0.246 OA
ATOM     32  N3  TTP d   1      32.612  12.511  10.110  0.00  0.00    -0.275 N 
ATOM     33  C4  TTP d   1      32.584  12.909  11.442  0.00  0.00     0.256 A 
ATOM     34  H9  TTP d   1      32.034  11.752   9.812  0.00  0.00     0.173 HD
ATOM     35  O4  TTP d   1      31.998  12.191  12.279  0.00  0.00    -0.267 OA
ATOM     36  C5  TTP d   1      33.409  13.971  11.856  0.00  0.00     0.022 A 
ATOM     37  C6  TTP d   1      34.243  14.569  10.909  0.00  0.00    -0.002 A 
ATOM     38  H13 TTP d   1      34.902  15.375  11.228  0.00  0.00     0.113 H 
BRANCH  36  39
ATOM     39  C5M TTP d   1      33.412  14.455  13.319  0.00  0.00    -0.045 C 
ATOM     40  H10 TTP d   1      34.122  15.288  13.428  0.00  0.00     0.033 H 
ATOM     41  H11 TTP d   1      33.713  13.628  13.978  0.00  0.00     0.033 H 
ATOM     42  H12 TTP d   1      32.403  14.795  13.595  0.00  0.00     0.033 H 
ENDBRANCH  36  39
ENDBRANCH   5  29
TORSDOF 10
