REMARK  22 active torsions:
REMARK  status: ('A' for Active; 'I' for Inactive)
REMARK    1  A    between atoms: CY_2  and  CX_1 
REMARK    2  A    between atoms: CX_1  and  CZ_3 
REMARK    3  A    between atoms: CX_1  and  OX_4 
REMARK    4  A    between atoms: N1_5  and  CY_2 
REMARK    5  A    between atoms: CY_2  and  C2_6 
REMARK       I    between atoms: C15_19  and  N1_5 
REMARK    6  A    between atoms: C2_6  and  C3_7 
REMARK    7  A    between atoms: C3_7  and  C4_8 
REMARK    8  A    between atoms: C4_8  and  N5_9 
REMARK       I    between atoms: N5_9  and  C6_10 
REMARK       I    between atoms: C6_10  and  N7_11 
REMARK       I    between atoms: C6_10  and  N8_12 
REMARK    9  A    between atoms: N13_17  and  C14_18 
REMARK       I    between atoms: C22_26  and  N13_17 
REMARK   10  A    between atoms: C14_18  and  C15_19 
REMARK   11  A    between atoms: C14_18  and  C17_21 
REMARK   12  A    between atoms: C17_21  and  C18_22 
REMARK   13  A    between atoms: C17_21  and  C19_23 
REMARK   14  A    between atoms: C21_25  and  N20_24 
REMARK       I    between atoms: N20_24  and  C31_35 
REMARK   15  A    between atoms: C21_25  and  C22_26 
REMARK   16  A    between atoms: C21_25  and  C24_28 
REMARK   17  A    between atoms: C24_28  and  C25_29 
REMARK   18  A    between atoms: C25_29  and  C26_30 
REMARK   19  A    between atoms: C26_30  and  N27_31 
REMARK       I    between atoms: N27_31  and  C28_32 
REMARK       I    between atoms: C31_35  and  N33_37 
REMARK   20  A    between atoms: N33_37  and  C34_38 
REMARK   21  A    between atoms: C34_38  and  C35_39 
REMARK   22  A    between atoms: C34_38  and  C42_46 
ROOT
ATOM      1  C14 339 d   1      15.469  52.754  23.010  0.00  0.00     0.092 C 
ATOM      2  H19 339 d   1      15.886  51.738  23.070  0.00  0.00     0.088 H 
ENDROOT
BRANCH   1   3
ATOM      3  N13 339 d   1      15.855  53.384  21.696  0.00  0.00    -0.346 N 
ATOM      4  C22 339 d   1      15.577  52.906  20.440  0.00  0.00     0.241 C 
ATOM      5  O23 339 d   1      14.959  51.858  20.242  0.00  0.00    -0.271 OA
ATOM      6  H18 339 d   1      16.368  54.241  21.745  0.00  0.00     0.163 HD
BRANCH   4   7
ATOM      7  C21 339 d   1      16.038  53.700  19.206  0.00  0.00     0.091 C 
ATOM      8  H28 339 d   1      15.262  53.616  18.430  0.00  0.00     0.087 H 
BRANCH   7   9
ATOM      9  N20 339 d   1      16.220  55.114  19.534  0.00  0.00    -0.330 N 
ATOM     10  C31 339 d   1      15.237  56.020  19.457  0.00  0.00     0.317 C 
ATOM     11  O32 339 d   1      14.076  55.682  19.086  0.00  0.00    -0.247 OA
ATOM     12  N33 339 d   1      15.548  57.306  19.810  0.00  0.00    -0.335 N 
ATOM     13  H38 339 d   1      16.496  57.484  20.074  0.00  0.00     0.165 HD
ATOM     14  H27 339 d   1      17.125  55.420  19.831  0.00  0.00     0.165 HD
BRANCH  12  15
ATOM     15  C34 339 d   1      14.603  58.480  19.840  0.00  0.00     0.036 C 
ATOM     16  H39 339 d   1      14.162  58.615  18.841  0.00  0.00     0.079 H 
BRANCH  15  17
ATOM     17  C35 339 d   1      13.453  58.214  20.884  0.00  0.00    -0.036 A 
ATOM     18  C36 339 d   1      12.238  59.016  20.833  0.00  0.00    -0.074 A 
ATOM     19  C37 339 d   1      11.163  58.781  21.779  0.00  0.00    -0.066 A 
ATOM     20  H40 339 d   1      12.136  59.793  20.084  0.00  0.00     0.084 H 
ATOM     21  C38 339 d   1      11.283  57.739  22.798  0.00  0.00     0.011 A 
ATOM     22  H41 339 d   1      10.263  59.383  21.730  0.00  0.00     0.085 H 
ATOM     23  C39 339 d   1      12.472  56.943  22.864  0.00  0.00    -0.066 A 
ATOM     24 BR41 339 d   1       9.905  57.407  24.035  0.00  0.00    -0.051 Br
ATOM     25  C40 339 d   1      13.541  57.162  21.939  0.00  0.00    -0.074 A 
ATOM     26  H42 339 d   1      12.562  56.170  23.619  0.00  0.00     0.085 H 
ATOM     27  H43 339 d   1      14.434  56.551  22.006  0.00  0.00     0.084 H 
ENDBRANCH  15  17
BRANCH  15  28
ATOM     28  C42 339 d   1      15.368  59.754  20.232  0.00  0.00    -0.053 C 
ATOM     29  H44 339 d   1      14.674  60.607  20.252  0.00  0.00     0.030 H 
ATOM     30  H45 339 d   1      16.163  59.946  19.496  0.00  0.00     0.030 H 
ATOM     31  H46 339 d   1      15.815  59.621  21.228  0.00  0.00     0.030 H 
ENDBRANCH  15  28
ENDBRANCH  12  15
ENDBRANCH   7   9
BRANCH   7  32
ATOM     32  C24 339 d   1      17.344  53.137  18.653  0.00  0.00    -0.036 C 
ATOM     33  H29 339 d   1      17.289  52.038  18.651  0.00  0.00     0.036 H 
ATOM     34  H30 339 d   1      18.175  53.462  19.296  0.00  0.00     0.036 H 
BRANCH  32  35
ATOM     35  C25 339 d   1      17.595  53.624  17.232  0.00  0.00    -0.048 C 
ATOM     36  H31 339 d   1      17.654  54.722  17.233  0.00  0.00     0.035 H 
ATOM     37  H32 339 d   1      16.763  53.302  16.588  0.00  0.00     0.035 H 
BRANCH  35  38
ATOM     38  C26 339 d   1      18.882  53.062  16.692  0.00  0.00    -0.004 C 
ATOM     39  H33 339 d   1      18.997  52.016  17.012  0.00  0.00     0.064 H 
ATOM     40  H34 339 d   1      19.732  53.654  17.062  0.00  0.00     0.064 H 
BRANCH  38  41
ATOM     41  N27 339 d   1      18.826  53.131  15.232  0.00  0.00    -0.355 N 
ATOM     42  C28 339 d   1      19.827  52.996  14.346  0.00  0.00     0.245 C 
ATOM     43  N29 339 d   1      19.600  52.729  13.062  0.00  0.00    -0.364 N 
ATOM     44  O30 339 d   1      21.061  53.142  14.767  0.00  0.00    -0.152 OA
ATOM     45  H36 339 d   1      20.367  52.635  12.428  0.00  0.00     0.159 HD
ATOM     46  H37 339 d   1      18.662  52.623  12.732  0.00  0.00     0.159 HD
ATOM     47  H35 339 d   1      17.922  53.301  14.841  0.00  0.00     0.163 HD
ENDBRANCH  38  41
ENDBRANCH  35  38
ENDBRANCH  32  35
ENDBRANCH   7  32
ENDBRANCH   4   7
ENDBRANCH   1   3
BRANCH   1  48
ATOM     48  C15 339 d   1      13.911  52.698  23.046  0.00  0.00     0.241 C 
ATOM     49  N1  339 d   1      13.339  51.557  23.459  0.00  0.00    -0.352 N 
ATOM     50  H4  339 d   1      13.974  50.830  23.722  0.00  0.00     0.163 HD
ATOM     51  O16 339 d   1      13.245  53.674  22.695  0.00  0.00    -0.271 OA
BRANCH  49  52
ATOM     52  CY  339 d   1      11.880  51.214  23.583  0.00  0.00     0.043 C 
ATOM     53  H2  339 d   1      11.265  51.981  23.089  0.00  0.00     0.077 H 
BRANCH  52  54
ATOM     54  CX  339 d   1      11.517  51.160  25.099  0.00  0.00     0.103 C 
ATOM     55  H1  339 d   1      12.135  50.411  25.615  0.00  0.00     0.097 H 
BRANCH  54  56
ATOM     56  CZ  339 d   1      11.728  52.561  25.752  0.00  0.00     0.105 A 
ATOM     57  N9  339 d   1      12.747  52.844  26.510  0.00  0.00    -0.255 NA
ATOM     58  C10 339 d   1      12.653  54.178  26.932  0.00  0.00     0.009 A 
ATOM     59  C11 339 d   1      11.519  54.817  26.431  0.00  0.00    -0.026 A 
ATOM     60  H16 339 d   1      13.384  54.661  27.579  0.00  0.00     0.115 H 
ATOM     61  S12 339 d   1      10.585  53.800  25.460  0.00  0.00    -0.083 SA
ATOM     62  H17 339 d   1      11.265  55.855  26.642  0.00  0.00     0.097 H 
ENDBRANCH  54  56
BRANCH  54  63
ATOM     63  OX  339 d   1      10.137  50.807  25.171  0.00  0.00    -0.387 OA
ATOM     64  H3  339 d   1      10.008  49.954  24.773  0.00  0.00     0.210 HD
ENDBRANCH  54  63
ENDBRANCH  52  54
BRANCH  52  65
ATOM     65  C2  339 d   1      11.668  49.861  22.888  0.00  0.00    -0.042 C 
ATOM     66  H5  339 d   1      10.613  49.568  22.998  0.00  0.00     0.036 H 
ATOM     67  H6  339 d   1      12.309  49.110  23.372  0.00  0.00     0.036 H 
BRANCH  65  68
ATOM     68  C3  339 d   1      12.011  49.914  21.400  0.00  0.00    -0.048 C 
ATOM     69  H7  339 d   1      13.064  50.211  21.285  0.00  0.00     0.035 H 
ATOM     70  H8  339 d   1      11.365  50.656  20.909  0.00  0.00     0.035 H 
BRANCH  68  71
ATOM     71  C4  339 d   1      11.804  48.569  20.743  0.00  0.00     0.009 C 
ATOM     72  H9  339 d   1      10.858  48.122  21.084  0.00  0.00     0.064 H 
ATOM     73  H10 339 d   1      12.637  47.895  20.989  0.00  0.00     0.064 H 
BRANCH  71  74
ATOM     74  N5  339 d   1      11.758  48.807  19.305  0.00  0.00    -0.227 N 
ATOM     75  C6  339 d   1      11.339  47.980  18.342  0.00  0.00     0.665 C 
ATOM     76  N7  339 d   1      11.152  46.663  18.559  0.00  0.00    -0.235 N 
ATOM     77  N8  339 d   1      11.112  48.507  17.143  0.00  0.00    -0.235 N 
ATOM     78  H12 339 d   1      10.828  46.056  17.793  0.00  0.00     0.174 HD
ATOM     79  H13 339 d   1      11.333  46.264  19.491  0.00  0.00     0.174 HD
ATOM     80  H14 339 d   1      11.258  49.515  16.987  0.00  0.00     0.174 HD
ATOM     81  H15 339 d   1      10.790  47.908  16.370  0.00  0.00     0.174 HD
ATOM     82  H11 339 d   1      12.091  49.730  18.991  0.00  0.00     0.177 HD
ENDBRANCH  71  74
ENDBRANCH  68  71
ENDBRANCH  65  68
ENDBRANCH  52  65
ENDBRANCH  49  52
ENDBRANCH   1  48
BRANCH   1  83
ATOM     83  C17 339 d   1      15.986  53.598  24.234  0.00  0.00    -0.033 C 
ATOM     84  H20 339 d   1      15.175  53.687  24.972  0.00  0.00     0.042 H 
BRANCH  83  85
ATOM     85  C18 339 d   1      17.179  52.867  24.842  0.00  0.00    -0.071 C 
ATOM     86  H21 339 d   1      17.560  53.438  25.702  0.00  0.00     0.028 H 
ATOM     87  H22 339 d   1      17.973  52.769  24.087  0.00  0.00     0.028 H 
ATOM     88  H23 339 d   1      16.865  51.867  25.176  0.00  0.00     0.028 H 
ENDBRANCH  83  85
BRANCH  83  89
ATOM     89  C19 339 d   1      16.490  55.023  23.856  0.00  0.00    -0.071 C 
ATOM     90  H24 339 d   1      15.665  55.597  23.410  0.00  0.00     0.028 H 
ATOM     91  H25 339 d   1      17.313  54.941  23.131  0.00  0.00     0.028 H 
ATOM     92  H26 339 d   1      16.848  55.537  24.760  0.00  0.00     0.028 H 
ENDBRANCH  83  89
ENDBRANCH   1  83
TORSDOF 22
