REMARK  7 active torsions:
REMARK  status: ('A' for Active; 'I' for Inactive)
REMARK    1  A    between atoms: C3_3  and  O1_15 
REMARK    2  A    between atoms: C6_6  and  C7_7 
REMARK    3  A    between atoms: O1_15  and  C14_16 
REMARK    4  A    between atoms: C14_16  and  C15_17 
REMARK    5  A    between atoms: C15_17  and  N2_18 
REMARK    6  A    between atoms: N2_18  and  C16_19 
REMARK       I    between atoms: N2_18  and  C17_20 
REMARK       I    between atoms: C17_20  and  N3_22 
REMARK    7  A    between atoms: N3_22  and  O3_23 
ROOT
ATOM      1  C7  2NI d   1      -1.391  21.541   6.754  0.00  0.00    -0.026 A 
ATOM      2  C8  2NI d   1      -0.369  20.528   6.606  0.00  0.00    -0.071 A 
ATOM      3  C9  2NI d   1       0.018  20.060   5.309  0.00  0.00    -0.062 A 
ATOM      4  C10 2NI d   1      -0.610  20.598   4.137  0.00  0.00     0.044 A 
ATOM      5  C11 2NI d   1      -1.618  21.604   4.260  0.00  0.00    -0.062 A 
ATOM      6  C12 2NI d   1      -2.007  22.072   5.552  0.00  0.00    -0.071 A 
ATOM      7  C13 2NI d   1      -0.216  20.106   2.814  0.00  0.00     0.099 C 
ATOM      8  N1  2NI d   1       0.074  19.696   1.779  0.00  0.00    -0.191 NA
ATOM      9  H5  2NI d   1       0.110  20.118   7.488  0.00  0.00     0.084 H 
ATOM     10  H6  2NI d   1       0.785  19.300   5.213  0.00  0.00     0.085 H 
ATOM     11  H7  2NI d   1      -2.087  22.012   3.372  0.00  0.00     0.085 H 
ATOM     12  H8  2NI d   1      -2.773  22.834   5.636  0.00  0.00     0.084 H 
ENDROOT
BRANCH   1  13
ATOM     13  C6  2NI d   1      -1.814  22.022   8.129  0.00  0.00    -0.026 A 
ATOM     14  C1  2NI d   1      -2.974  22.854   8.295  0.00  0.00    -0.070 A 
ATOM     15  C2  2NI d   1      -3.391  23.299   9.587  0.00  0.00    -0.050 A 
ATOM     16  H1  2NI d   1      -3.544  23.150   7.422  0.00  0.00     0.085 H 
ATOM     17  C3  2NI d   1      -2.653  22.926  10.768  0.00  0.00     0.068 A 
ATOM     18  H2  2NI d   1      -4.272  23.924   9.680  0.00  0.00     0.087 H 
ATOM     19  C4  2NI d   1      -1.487  22.097  10.606  0.00  0.00    -0.050 A 
ATOM     20  C5  2NI d   1      -1.071  21.649   9.309  0.00  0.00    -0.070 A 
ATOM     21  H3  2NI d   1      -0.914  21.807  11.479  0.00  0.00     0.087 H 
ATOM     22  H4  2NI d   1      -0.190  21.024   9.214  0.00  0.00     0.085 H 
BRANCH  17  23
ATOM     23  O1  2NI d   1      -3.086  23.368  12.086  0.00  0.00    -0.350 OA
BRANCH  23  24
ATOM     24  C14 2NI d   1      -3.756  24.657  12.115  0.00  0.00     0.037 C 
ATOM     25  H9  2NI d   1      -4.620  24.581  12.791  0.00  0.00     0.076 H 
ATOM     26  H10 2NI d   1      -4.105  24.887  11.098  0.00  0.00     0.076 H 
BRANCH  24  27
ATOM     27  C15 2NI d   1      -2.875  25.814  12.592  0.00  0.00     0.007 C 
ATOM     28  H11 2NI d   1      -1.867  25.698  12.167  0.00  0.00     0.059 H 
ATOM     29  H12 2NI d   1      -2.815  25.792  13.690  0.00  0.00     0.059 H 
BRANCH  27  30
ATOM     30  N2  2NI d   1      -3.462  27.178  12.143  0.00  0.00    -0.235 NA
ATOM     31  C17 2NI d   1      -2.334  27.909  11.526  0.00  0.00     0.319 C 
ATOM     32  O2  2NI d   1      -2.471  29.140  11.399  0.00  0.00    -0.252 OA
ATOM     33  N3  2NI d   1      -1.137  27.253  11.078  0.00  0.00    -0.224 N 
ATOM     34  H16 2NI d   1      -0.262  27.528  11.476  0.00  0.00     0.198 HD
BRANCH  30  35
ATOM     35  C16 2NI d   1      -3.989  27.821  13.390  0.00  0.00    -0.025 C 
ATOM     36  H13 2NI d   1      -4.423  28.801  13.142  0.00  0.00     0.049 H 
ATOM     37  H14 2NI d   1      -3.167  27.956  14.109  0.00  0.00     0.049 H 
ATOM     38  H15 2NI d   1      -4.763  27.179  13.835  0.00  0.00     0.049 H 
ENDBRANCH  30  35
BRANCH  33  39
ATOM     39  O3  2NI d   1      -1.147  26.193  10.058  0.00  0.00    -0.286 OA
ATOM     40  H17 2NI d   1      -0.258  25.893   9.905  0.00  0.00     0.244 HD
ENDBRANCH  33  39
ENDBRANCH  27  30
ENDBRANCH  24  27
ENDBRANCH  23  24
ENDBRANCH  17  23
ENDBRANCH   1  13
TORSDOF 7
