REMARK  18 active torsions:
REMARK  status: ('A' for Active; 'I' for Inactive)
REMARK    1  A    between atoms: CX_1  and  CY_2 
REMARK    2  A    between atoms: CX_1  and  CZ_3 
REMARK    3  A    between atoms: CX_1  and  OX_4 
REMARK    4  A    between atoms: CY_2  and  C6_9 
REMARK    5  A    between atoms: CY_2  and  N2_11 
REMARK    6  A    between atoms: C6_9  and  C7_10 
REMARK    7  A    between atoms: C7_10  and  C19_26 
REMARK       I    between atoms: N2_11  and  C8_12 
REMARK    8  A    between atoms: C8_12  and  C9_13 
REMARK    9  A    between atoms: C9_13  and  C10_14 
REMARK   10  A    between atoms: C9_13  and  N3_17 
REMARK   11  A    between atoms: C10_14  and  C11_15 
REMARK   12  A    between atoms: C10_14  and  C12_16 
REMARK       I    between atoms: N3_17  and  C13_18 
REMARK   13  A    between atoms: C13_18  and  C14_19 
REMARK   14  A    between atoms: C14_19  and  C15_20 
REMARK   15  A    between atoms: C15_20  and  C16_21 
REMARK   16  A    between atoms: C16_21  and  C17_22 
REMARK   17  A    between atoms: C16_21  and  C18_23 
REMARK   18  A    between atoms: C19_26  and  N4_27 
REMARK       I    between atoms: N4_27  and  C20_28 
REMARK       I    between atoms: C20_28  and  N5_29 
ROOT
ATOM      1  N2  995 d   1      13.057  51.343  23.673  0.00  0.00    -0.352 N 
ATOM      2  C8  995 d   1      13.623  52.429  23.164  0.00  0.00     0.241 C 
ATOM      3  O3  995 d   1      12.978  53.409  22.777  0.00  0.00    -0.271 OA
ATOM      4  H10 995 d   1      13.663  50.600  23.958  0.00  0.00     0.163 HD
ENDROOT
BRANCH   2   5
ATOM      5  C9  995 d   1      15.148  52.387  23.088  0.00  0.00     0.092 C 
ATOM      6  H11 995 d   1      15.452  51.333  23.009  0.00  0.00     0.088 H 
BRANCH   5   7
ATOM      7  C10 995 d   1      15.806  52.970  24.363  0.00  0.00    -0.033 C 
ATOM      8  H12 995 d   1      15.335  52.481  25.229  0.00  0.00     0.042 H 
BRANCH   7   9
ATOM      9  C11 995 d   1      15.624  54.493  24.537  0.00  0.00    -0.071 C 
ATOM     10  H13 995 d   1      16.120  54.818  25.463  0.00  0.00     0.028 H 
ATOM     11  H14 995 d   1      14.551  54.730  24.593  0.00  0.00     0.028 H 
ATOM     12  H15 995 d   1      16.070  55.016  23.678  0.00  0.00     0.028 H 
ENDBRANCH   7   9
BRANCH   7  13
ATOM     13  C12 995 d   1      17.301  52.632  24.370  0.00  0.00    -0.071 C 
ATOM     14  H16 995 d   1      17.432  51.547  24.246  0.00  0.00     0.028 H 
ATOM     15  H17 995 d   1      17.744  52.948  25.326  0.00  0.00     0.028 H 
ATOM     16  H18 995 d   1      17.800  53.158  23.543  0.00  0.00     0.028 H 
ENDBRANCH   7  13
ENDBRANCH   5   7
BRANCH   5  17
ATOM     17  N3  995 d   1      15.619  53.087  21.879  0.00  0.00    -0.347 N 
ATOM     18  C13 995 d   1      15.309  52.706  20.621  0.00  0.00     0.218 C 
ATOM     19  O2  995 d   1      14.586  51.726  20.369  0.00  0.00    -0.274 OA
ATOM     20  H19 995 d   1      16.202  53.891  21.997  0.00  0.00     0.163 HD
BRANCH  18  21
ATOM     21  C14 995 d   1      15.904  53.539  19.479  0.00  0.00     0.009 C 
ATOM     22  H20 995 d   1      16.456  54.392  19.900  0.00  0.00     0.047 H 
ATOM     23  H21 995 d   1      15.091  53.909  18.837  0.00  0.00     0.047 H 
BRANCH  21  24
ATOM     24  C15 995 d   1      16.867  52.672  18.637  0.00  0.00    -0.054 C 
ATOM     25  H22 995 d   1      16.353  51.731  18.392  0.00  0.00     0.034 H 
ATOM     26  H23 995 d   1      17.756  52.457  19.248  0.00  0.00     0.034 H 
BRANCH  24  27
ATOM     27  C16 995 d   1      17.341  53.320  17.311  0.00  0.00    -0.061 C 
ATOM     28  H24 995 d   1      16.464  53.533  16.682  0.00  0.00     0.038 H 
BRANCH  27  29
ATOM     29  C17 995 d   1      18.267  52.330  16.600  0.00  0.00    -0.073 C 
ATOM     30  H25 995 d   1      18.617  52.769  15.654  0.00  0.00     0.028 H 
ATOM     31  H26 995 d   1      17.718  51.400  16.391  0.00  0.00     0.028 H 
ATOM     32  H27 995 d   1      19.131  52.109  17.243  0.00  0.00     0.028 H 
ENDBRANCH  27  29
BRANCH  27  33
ATOM     33  C18 995 d   1      18.127  54.624  17.538  0.00  0.00    -0.073 C 
ATOM     34  H28 995 d   1      17.484  55.356  18.049  0.00  0.00     0.028 H 
ATOM     35  H29 995 d   1      18.448  55.032  16.568  0.00  0.00     0.028 H 
ATOM     36  H30 995 d   1      19.011  54.416  18.159  0.00  0.00     0.028 H 
ENDBRANCH  27  33
ENDBRANCH  24  27
ENDBRANCH  21  24
ENDBRANCH  18  21
ENDBRANCH   5  17
ENDBRANCH   2   5
BRANCH   1  37
ATOM     37  CY  995 d   1      11.640  51.145  23.849  0.00  0.00     0.043 C 
ATOM     38  H2  995 d   1      11.085  51.979  23.395  0.00  0.00     0.077 H 
BRANCH  37  39
ATOM     39  CX  995 d   1      11.302  51.077  25.353  0.00  0.00     0.103 C 
ATOM     40  H1  995 d   1      11.851  50.237  25.804  0.00  0.00     0.097 H 
BRANCH  39  41
ATOM     41  CZ  995 d   1      11.644  52.367  26.120  0.00  0.00     0.105 A 
ATOM     42  S1  995 d   1      10.488  53.604  26.447  0.00  0.00    -0.083 SA
ATOM     43  C2  995 d   1      11.744  54.451  27.237  0.00  0.00    -0.026 A 
ATOM     44  C3  995 d   1      12.947  53.760  27.205  0.00  0.00     0.009 A 
ATOM     45  H4  995 d   1      11.615  55.423  27.712  0.00  0.00     0.097 H 
ATOM     46  N1  995 d   1      12.848  52.545  26.542  0.00  0.00    -0.255 NA
ATOM     47  H5  995 d   1      13.868  54.131  27.652  0.00  0.00     0.115 H 
ENDBRANCH  39  41
BRANCH  39  48
ATOM     48  OX  995 d   1       9.906  50.866  25.472  0.00  0.00    -0.387 OA
ATOM     49  H3  995 d   1       9.666  50.074  25.006  0.00  0.00     0.210 HD
ENDBRANCH  39  48
ENDBRANCH  37  39
BRANCH  37  50
ATOM     50  C6  995 d   1      11.284  49.831  23.124  0.00  0.00    -0.042 C 
ATOM     51  H6  995 d   1      10.314  49.467  23.493  0.00  0.00     0.036 H 
ATOM     52  H7  995 d   1      12.061  49.081  23.334  0.00  0.00     0.036 H 
BRANCH  50  53
ATOM     53  C7  995 d   1      11.195  50.054  21.605  0.00  0.00    -0.048 C 
ATOM     54  H8  995 d   1      11.962  50.783  21.305  0.00  0.00     0.035 H 
ATOM     55  H9  995 d   1      10.198  50.448  21.359  0.00  0.00     0.035 H 
BRANCH  53  56
ATOM     56  C19 995 d   1      11.419  48.753  20.838  0.00  0.00     0.009 C 
ATOM     57  H31 995 d   1      10.657  48.014  21.128  0.00  0.00     0.064 H 
ATOM     58  H32 995 d   1      12.420  48.356  21.064  0.00  0.00     0.064 H 
BRANCH  56  59
ATOM     59  N4  995 d   1      11.311  49.040  19.404  0.00  0.00    -0.227 N 
ATOM     60  C20 995 d   1      11.038  48.154  18.429  0.00  0.00     0.665 C 
ATOM     61  N5  995 d   1      10.833  46.860  18.720  0.00  0.00    -0.235 N 
ATOM     62  N6  995 d   1      10.971  48.579  17.161  0.00  0.00    -0.235 N 
ATOM     63  H34 995 d   1      10.625  46.189  17.966  0.00  0.00     0.174 HD
ATOM     64  H35 995 d   1      10.884  46.538  19.697  0.00  0.00     0.174 HD
ATOM     65  H36 995 d   1      11.129  49.573  16.942  0.00  0.00     0.174 HD
ATOM     66  H37 995 d   1      10.761  47.912  16.405  0.00  0.00     0.174 HD
ATOM     67  H33 995 d   1      11.459  50.017  19.114  0.00  0.00     0.177 HD
ENDBRANCH  56  59
ENDBRANCH  53  56
ENDBRANCH  50  53
ENDBRANCH  37  50
ENDBRANCH   1  37
TORSDOF 18
