REMARK  16 active torsions:
REMARK  status: ('A' for Active; 'I' for Inactive)
REMARK    1  A    between atoms: CY_2  and  CX_1 
REMARK    2  A    between atoms: CX_1  and  CZ_3 
REMARK    3  A    between atoms: CX_1  and  OX_4 
REMARK    4  A    between atoms: N2_5  and  CY_2 
REMARK    5  A    between atoms: CY_2  and  C3_6 
REMARK       I    between atoms: C16_19  and  N2_5 
REMARK    6  A    between atoms: C3_6  and  C4_7 
REMARK    7  A    between atoms: C4_7  and  C5_8 
REMARK    8  A    between atoms: C5_8  and  N6_9 
REMARK       I    between atoms: N6_9  and  C7_10 
REMARK       I    between atoms: C7_10  and  N8_11 
REMARK    9  A    between atoms: C15_18  and  N14_17 
REMARK       I    between atoms: N14_17  and  C21_24 
REMARK   10  A    between atoms: C15_18  and  C16_19 
REMARK   11  A    between atoms: C15_18  and  C18_21 
REMARK   12  A    between atoms: C18_21  and  C19_22 
REMARK   13  A    between atoms: C18_21  and  C20_23 
REMARK   14  A    between atoms: C21_24  and  C22_25 
REMARK   15  A    between atoms: C22_25  and  O24_27 
REMARK   16  A    between atoms: C22_25  and  C25_28 
ROOT
ATOM      1  N2  716 d   1      13.174  51.328  23.473  0.00  0.00    -0.352 N 
ATOM      2  C16 716 d   1      13.796  52.447  23.068  0.00  0.00     0.241 C 
ATOM      3  O17 716 d   1      13.173  53.463  22.709  0.00  0.00    -0.271 OA
ATOM      4  H4  716 d   1      13.754  50.559  23.742  0.00  0.00     0.163 HD
ENDROOT
BRANCH   1   5
ATOM      5  CY  716 d   1      11.704  51.125  23.559  0.00  0.00     0.043 C 
ATOM      6  H2  716 d   1      11.143  51.946  23.088  0.00  0.00     0.077 H 
BRANCH   5   7
ATOM      7  CX  716 d   1      11.373  51.063  25.088  0.00  0.00     0.103 C 
ATOM      8  H1  716 d   1      11.985  50.282  25.564  0.00  0.00     0.097 H 
BRANCH   7   9
ATOM      9  CZ  716 d   1      11.582  52.313  25.802  0.00  0.00     0.105 A 
ATOM     10  N10 716 d   1      12.630  52.562  26.495  0.00  0.00    -0.255 NA
ATOM     11  C11 716 d   1      12.568  53.822  27.068  0.00  0.00     0.009 A 
ATOM     12  C12 716 d   1      11.413  54.491  26.757  0.00  0.00    -0.026 A 
ATOM     13  H16 716 d   1      13.353  54.237  27.698  0.00  0.00     0.115 H 
ATOM     14  S13 716 d   1      10.406  53.565  25.759  0.00  0.00    -0.083 SA
ATOM     15  H17 716 d   1      11.173  55.493  27.108  0.00  0.00     0.097 H 
ENDBRANCH   7   9
BRANCH   7  16
ATOM     16  OX  716 d   1       9.992  50.717  25.140  0.00  0.00    -0.387 OA
ATOM     17  H3  716 d   1       9.853  49.901  24.674  0.00  0.00     0.210 HD
ENDBRANCH   7  16
ENDBRANCH   5   7
BRANCH   5  18
ATOM     18  C3  716 d   1      11.470  49.808  22.789  0.00  0.00    -0.042 C 
ATOM     19  H5  716 d   1      10.385  49.674  22.669  0.00  0.00     0.036 H 
ATOM     20  H6  716 d   1      11.876  48.985  23.395  0.00  0.00     0.036 H 
BRANCH  18  21
ATOM     21  C4  716 d   1      12.105  49.733  21.414  0.00  0.00    -0.048 C 
ATOM     22  H7  716 d   1      13.188  49.571  21.520  0.00  0.00     0.035 H 
ATOM     23  H8  716 d   1      11.926  50.677  20.878  0.00  0.00     0.035 H 
BRANCH  21  24
ATOM     24  C5  716 d   1      11.508  48.602  20.640  0.00  0.00     0.009 C 
ATOM     25  H9  716 d   1      10.473  48.423  20.968  0.00  0.00     0.064 H 
ATOM     26  H10 716 d   1      12.102  47.688  20.786  0.00  0.00     0.064 H 
BRANCH  24  27
ATOM     27  N6  716 d   1      11.529  48.998  19.230  0.00  0.00    -0.227 N 
ATOM     28  C7  716 d   1      11.319  48.175  18.184  0.00  0.00     0.665 C 
ATOM     29  N8  716 d   1      11.064  46.867  18.378  0.00  0.00    -0.235 N 
ATOM     30  N9  716 d   1      11.371  48.682  16.945  0.00  0.00    -0.235 N 
ATOM     31  H12 716 d   1      10.905  46.248  17.570  0.00  0.00     0.174 HD
ATOM     32  H13 716 d   1      11.028  46.486  19.334  0.00  0.00     0.174 HD
ATOM     33  H14 716 d   1      11.567  49.684  16.806  0.00  0.00     0.174 HD
ATOM     34  H15 716 d   1      11.215  48.070  16.131  0.00  0.00     0.174 HD
ATOM     35  H11 716 d   1      11.720  49.988  19.021  0.00  0.00     0.177 HD
ENDBRANCH  24  27
ENDBRANCH  21  24
ENDBRANCH  18  21
ENDBRANCH   5  18
ENDBRANCH   1   5
BRANCH   2  36
ATOM     36  C15 716 d   1      15.347  52.403  23.055  0.00  0.00     0.092 C 
ATOM     37  H19 716 d   1      15.695  51.360  23.014  0.00  0.00     0.088 H 
BRANCH  36  38
ATOM     38  N14 716 d   1      15.755  53.118  21.833  0.00  0.00    -0.345 N 
ATOM     39  C21 716 d   1      15.452  52.776  20.548  0.00  0.00     0.251 C 
ATOM     40  O23 716 d   1      14.782  51.774  20.245  0.00  0.00    -0.270 OA
ATOM     41  H18 716 d   1      16.312  53.939  21.959  0.00  0.00     0.163 HD
BRANCH  39  42
ATOM     42  C22 716 d   1      16.000  53.744  19.461  0.00  0.00     0.137 C 
ATOM     43  H27 716 d   1      16.223  54.714  19.930  0.00  0.00     0.105 H 
BRANCH  42  44
ATOM     44  O24 716 d   1      14.989  53.926  18.478  0.00  0.00    -0.381 OA
ATOM     45  H28 716 d   1      14.772  53.087  18.089  0.00  0.00     0.211 HD
ENDBRANCH  42  44
BRANCH  42  46
ATOM     46  C25 716 d   1      17.306  53.204  18.811  0.00  0.00    -0.019 A 
ATOM     47  C26 716 d   1      18.471  52.949  19.660  0.00  0.00    -0.074 A 
ATOM     48  C27 716 d   1      19.699  52.447  19.090  0.00  0.00    -0.081 A 
ATOM     49  H29 716 d   1      18.411  53.139  20.726  0.00  0.00     0.084 H 
ATOM     50  C28 716 d   1      19.814  52.184  17.683  0.00  0.00    -0.062 A 
ATOM     51  H30 716 d   1      20.550  52.265  19.736  0.00  0.00     0.083 H 
ATOM     52  C29 716 d   1      18.698  52.417  16.802  0.00  0.00     0.034 A 
ATOM     53  H31 716 d   1      20.747  51.807  17.281  0.00  0.00     0.086 H 
ATOM     54  C30 716 d   1      17.438  52.928  17.360  0.00  0.00    -0.053 A 
ATOM     55 CL31 716 d   1      18.887  52.082  15.135  0.00  0.00    -0.084 Cl
ATOM     56  H32 716 d   1      16.595  53.105  16.703  0.00  0.00     0.087 H 
ENDBRANCH  42  46
ENDBRANCH  39  42
ENDBRANCH  36  38
BRANCH  36  57
ATOM     57  C18 716 d   1      15.935  53.089  24.348  0.00  0.00    -0.033 C 
ATOM     58  H20 716 d   1      15.556  52.544  25.225  0.00  0.00     0.042 H 
BRANCH  57  59
ATOM     59  C19 716 d   1      17.455  53.023  24.319  0.00  0.00    -0.071 C 
ATOM     60  H21 716 d   1      17.860  53.502  25.222  0.00  0.00     0.028 H 
ATOM     61  H22 716 d   1      17.828  53.548  23.427  0.00  0.00     0.028 H 
ATOM     62  H23 716 d   1      17.776  51.971  24.287  0.00  0.00     0.028 H 
ENDBRANCH  57  59
BRANCH  57  63
ATOM     63  C20 716 d   1      15.574  54.592  24.498  0.00  0.00    -0.071 C 
ATOM     64  H24 716 d   1      14.480  54.705  24.525  0.00  0.00     0.028 H 
ATOM     65  H25 716 d   1      15.980  55.154  23.644  0.00  0.00     0.028 H 
ATOM     66  H26 716 d   1      16.006  54.982  25.431  0.00  0.00     0.028 H 
ENDBRANCH  57  63
ENDBRANCH  36  57
ENDBRANCH   2  36
TORSDOF 16
