REMARK  8 active torsions:
REMARK  status: ('A' for Active; 'I' for Inactive)
REMARK    1  A    between atoms: CBD_1  and  NBC_2 
REMARK    2  A    between atoms: NBC_2  and  CBE_3 
REMARK    3  A    between atoms: NBC_2  and  CBB_4 
REMARK    4  A    between atoms: CBB_4  and  CBA_5 
REMARK    5  A    between atoms: CBA_5  and  CAY_6 
REMARK    6  A    between atoms: CAY_6  and  NAH_7 
REMARK    7  A    between atoms: CAG_15  and  CAI_16 
REMARK    8  A    between atoms: CAJ_22  and  CAK_23 
ROOT
ATOM      1  NAH BI1 d   1      -8.515  22.061  18.345  0.00  0.00    -0.355 N 
ATOM      2  CAW BI1 d   1      -8.069  20.840  18.780  0.00  0.00    -0.008 A 
ATOM      3  CAE BI1 d   1      -8.585  22.096  16.993  0.00  0.00     0.045 A 
ATOM      4  CAF BI1 d   1      -8.972  23.104  16.053  0.00  0.00    -0.056 A 
ATOM      5  CAA BI1 d   1      -8.944  22.845  14.669  0.00  0.00    -0.081 A 
ATOM      6  CAB BI1 d   1      -8.530  21.566  14.179  0.00  0.00    -0.082 A 
ATOM      7  CAC BI1 d   1      -8.139  20.541  15.095  0.00  0.00    -0.070 A 
ATOM      8  CAD BI1 d   1      -8.170  20.821  16.500  0.00  0.00     0.003 A 
ATOM      9  CAG BI1 d   1      -7.858  20.074  17.641  0.00  0.00     0.009 A 
ATOM     10  H14 BI1 d   1      -7.912  20.532  19.813  0.00  0.00     0.113 H 
ATOM     11  H15 BI1 d   1      -9.290  24.077  16.410  0.00  0.00     0.087 H 
ATOM     12  H16 BI1 d   1      -9.238  23.620  13.970  0.00  0.00     0.083 H 
ATOM     13  H17 BI1 d   1      -8.513  21.374  13.112  0.00  0.00     0.083 H 
ATOM     14  H18 BI1 d   1      -7.824  19.569  14.733  0.00  0.00     0.084 H 
ENDROOT
BRANCH   9  15
ATOM     15  CAI BI1 d   1      -7.351  18.630  17.767  0.00  0.00     0.061 A 
ATOM     16  CAT BI1 d   1      -6.298  18.007  16.925  0.00  0.00     0.260 A 
ATOM     17  OAZ BI1 d   1      -5.688  18.616  15.981  0.00  0.00    -0.267 OA
ATOM     18  NAU BI1 d   1      -6.013  16.728  17.225  0.00  0.00    -0.289 N 
ATOM     19  CAV BI1 d   1      -6.805  16.408  18.233  0.00  0.00     0.260 A 
ATOM     20  H19 BI1 d   1      -5.340  16.140  16.777  0.00  0.00     0.172 HD
ATOM     21  OAX BI1 d   1      -6.746  15.242  18.735  0.00  0.00    -0.267 OA
ATOM     22  CAJ BI1 d   1      -7.711  17.511  18.685  0.00  0.00     0.061 A 
BRANCH  22  23
ATOM     23  CAK BI1 d   1      -8.716  17.424  19.829  0.00  0.00     0.009 A 
ATOM     24  CAM BI1 d   1     -10.004  18.040  19.965  0.00  0.00     0.003 A 
ATOM     25  CAP BI1 d   1     -10.812  18.905  19.148  0.00  0.00    -0.070 A 
ATOM     26  CAN BI1 d   1     -10.436  17.602  21.240  0.00  0.00     0.043 A 
ATOM     27  CAQ BI1 d   1     -12.073  19.340  19.620  0.00  0.00    -0.082 A 
ATOM     28  H20 BI1 d   1     -10.456  19.222  18.174  0.00  0.00     0.084 H 
ATOM     29  CAR BI1 d   1     -12.510  18.908  20.896  0.00  0.00    -0.081 A 
ATOM     30  H21 BI1 d   1     -12.693  19.992  19.016  0.00  0.00     0.083 H 
ATOM     31  CAS BI1 d   1     -11.721  18.044  21.722  0.00  0.00    -0.056 A 
ATOM     32  H22 BI1 d   1     -13.475  19.243  21.260  0.00  0.00     0.083 H 
ATOM     33  H23 BI1 d   1     -12.084  17.728  22.693  0.00  0.00     0.086 H 
ATOM     34  NAO BI1 d   1      -9.466  16.793  21.784  0.00  0.00    -0.364 N 
ATOM     35  CAL BI1 d   1      -8.402  16.660  20.959  0.00  0.00    -0.011 A 
ATOM     36  H24 BI1 d   1      -9.540  16.343  22.707  0.00  0.00     0.165 HD
ATOM     37  H25 BI1 d   1      -7.496  16.082  21.136  0.00  0.00     0.112 H 
ENDBRANCH  22  23
ENDBRANCH   9  15
BRANCH   1  38
ATOM     38  CAY BI1 d   1      -8.869  23.163  19.251  0.00  0.00     0.001 C 
ATOM     39  H12 BI1 d   1      -8.085  23.277  20.014  0.00  0.00     0.065 H 
ATOM     40  H13 BI1 d   1      -8.960  24.096  18.676  0.00  0.00     0.065 H 
BRANCH  38  41
ATOM     41  CBA BI1 d   1     -10.197  22.853  19.929  0.00  0.00    -0.027 C 
ATOM     42  H10 BI1 d   1     -10.984  22.714  19.173  0.00  0.00     0.037 H 
ATOM     43  H11 BI1 d   1     -10.107  21.940  20.536  0.00  0.00     0.037 H 
BRANCH  41  44
ATOM     44  CBB BI1 d   1     -10.532  24.046  20.822  0.00  0.00     0.084 C 
ATOM     45  H8  BI1 d   1      -9.653  24.706  20.864  0.00  0.00     0.076 H 
ATOM     46  H9  BI1 d   1     -11.377  24.589  20.374  0.00  0.00     0.076 H 
BRANCH  44  47
ATOM     47  NBC BI1 d   1     -10.900  23.667  22.209  0.00  0.00    -0.079 N 
ATOM     48  H4  BI1 d   1      -9.931  23.724  22.480  0.00  0.00     0.278 HD
BRANCH  47  49
ATOM     49  CBD BI1 d   1     -11.245  24.787  23.067  0.00  0.00     0.066 C 
ATOM     50  H1  BI1 d   1     -11.502  24.415  24.070  0.00  0.00     0.068 H 
ATOM     51  H2  BI1 d   1     -12.107  25.323  22.642  0.00  0.00     0.068 H 
ATOM     52  H3  BI1 d   1     -10.387  25.472  23.139  0.00  0.00     0.068 H 
ENDBRANCH  47  49
BRANCH  47  53
ATOM     53  CBE BI1 d   1     -10.947  22.311  22.758  0.00  0.00     0.066 C 
ATOM     54  H5  BI1 d   1     -10.659  21.590  21.979  0.00  0.00     0.068 H 
ATOM     55  H6  BI1 d   1     -11.968  22.090  23.102  0.00  0.00     0.068 H 
ATOM     56  H7  BI1 d   1     -10.250  22.234  23.605  0.00  0.00     0.068 H 
ENDBRANCH  47  53
ENDBRANCH  44  47
ENDBRANCH  41  44
ENDBRANCH  38  41
ENDBRANCH   1  38
TORSDOF 8
