REMARK  4 active torsions:
REMARK  status: ('A' for Active; 'I' for Inactive)
REMARK    1  A    between atoms: C1_1  and  S1_12 
REMARK    2  A    between atoms: C2_2  and  N4_8 
REMARK       I    between atoms: N4_8  and  C3_3 
REMARK    3  A    between atoms: C3_3  and  C4_4 
REMARK    4  A    between atoms: S1_12  and  N1_5 
ROOT
ATOM      1  C1  AZM d   1      -5.134   2.199  15.960  0.00  0.00     0.237 A 
ATOM      2  C2  AZM d   1      -4.781   4.318  14.545  0.00  0.00     0.197 A 
ATOM      3  N2  AZM d   1      -3.731   3.461  14.854  0.00  0.00    -0.122 NA
ATOM      4  N3  AZM d   1      -3.810   2.300  15.623  0.00  0.00    -0.126 NA
ATOM      5  S2  AZM d   1      -6.058   3.461  15.237  0.00  0.00    -0.015 SA
ENDROOT
BRANCH   2   6
ATOM      6  N4  AZM d   1      -4.953   5.504  13.844  0.00  0.00    -0.305 N 
ATOM      7  C3  AZM d   1      -6.081   5.969  13.298  0.00  0.00     0.219 C 
ATOM      8  O3  AZM d   1      -7.215   5.613  13.665  0.00  0.00    -0.274 OA
ATOM      9  H6  AZM d   1      -4.140   6.076  13.735  0.00  0.00     0.171 HD
BRANCH   7  10
ATOM     10  C4  AZM d   1      -6.092   7.007  12.124  0.00  0.00    -0.002 C 
ATOM     11  H1  AZM d   1      -7.132   7.236  11.847  0.00  0.00     0.040 H 
ATOM     12  H2  AZM d   1      -5.566   6.584  11.256  0.00  0.00     0.040 H 
ATOM     13  H3  AZM d   1      -5.587   7.930  12.446  0.00  0.00     0.040 H 
ENDBRANCH   7  10
ENDBRANCH   2   6
BRANCH   1  14
ATOM     14  S1  AZM d   1      -5.961   0.949  16.991  0.00  0.00     0.282 S 
ATOM     15  O1  AZM d   1      -5.546   1.127  18.374  0.00  0.00    -0.199 OA
ATOM     16  O2  AZM d   1      -7.398   1.165  16.825  0.00  0.00    -0.199 OA
BRANCH  14  17
ATOM     17  N1  AZM d   1      -5.367  -0.446  16.546  0.00  0.00    -0.323 N 
ATOM     18  H4  AZM d   1      -5.682  -1.287  16.986  0.00  0.00     0.169 HD
ATOM     19  H5  AZM d   1      -4.676  -0.488  15.825  0.00  0.00     0.169 HD
ENDBRANCH  14  17
ENDBRANCH   1  14
TORSDOF 4
