REMARK  25 active torsions:
REMARK  status: ('A' for Active; 'I' for Inactive)
REMARK    1  A    between atoms: C_2  and  O2_3 
REMARK       I    between atoms: C_2  and  N_8 
REMARK    2  A    between atoms: O2_3  and  CT_4 
REMARK    3  A    between atoms: CT_4  and  C1_5 
REMARK    4  A    between atoms: CT_4  and  C2_6 
REMARK    5  A    between atoms: CT_4  and  C3_7 
REMARK    6  A    between atoms: N_8  and  CA_9 
REMARK    7  A    between atoms: CA_9  and  C_10 
REMARK    8  A    between atoms: CA_9  and  CB_12 
REMARK    9  A    between atoms: C_10  and  OS_11 
REMARK   10  A    between atoms: C_10  and  CM_19 
REMARK   11  A    between atoms: CB_12  and  CG_13 
REMARK   12  A    between atoms: CM_19  and  N_20 
REMARK   13  A    between atoms: N_20  and  CA_21 
REMARK   14  A    between atoms: CA_21  and  C_22 
REMARK   15  A    between atoms: CA_21  and  CB_24 
REMARK       I    between atoms: C_22  and  N_31 
REMARK   16  A    between atoms: CB_24  and  CG_25 
REMARK   17  A    between atoms: N_31  and  CA_32 
REMARK   18  A    between atoms: CA_32  and  C_33 
REMARK   19  A    between atoms: CA_32  and  CB_35 
REMARK       I    between atoms: C_33  and  N_40 
REMARK   20  A    between atoms: CB_35  and  CG_36 
REMARK   21  A    between atoms: CG_36  and  CD_37 
REMARK   22  A    between atoms: N_40  and  CA_41 
REMARK   23  A    between atoms: CA_41  and  C_42 
REMARK   24  A    between atoms: CA_41  and  CB_44 
REMARK       I    between atoms: C_42  and  N_51 
REMARK   25  A    between atoms: CB_44  and  CG_45 
ROOT
ATOM      1  CA  0ZT d   1      -7.924  17.954  26.682  0.00  0.00     0.181 C 
ATOM      2  H25 0ZT d   1      -7.663  18.947  26.286  0.00  0.00     0.100 H 
ENDROOT
BRANCH   1   3
ATOM      3  N   0ZT d   1      -9.302  18.007  27.187  0.00  0.00    -0.060 N 
ATOM      4  H23 0ZT d   1      -9.380  18.791  27.815  0.00  0.00     0.278 HD
ATOM      5  H24 0ZT d   1      -9.922  18.141  26.404  0.00  0.00     0.278 HD
BRANCH   3   6
ATOM      6  CM  0ZT d   1      -9.715  16.804  27.900  0.00  0.00     0.108 C 
ATOM      7  H21 0ZT d   1      -9.167  15.944  27.488  0.00  0.00     0.079 H 
ATOM      8  H22 0ZT d   1      -9.466  16.922  28.965  0.00  0.00     0.079 H 
BRANCH   6   9
ATOM      9  C   0ZT d   1     -11.226  16.535  27.772  0.00  0.00     0.078 C 
ATOM     10  H12 0ZT d   1     -11.461  16.294  26.725  0.00  0.00     0.088 H 
BRANCH   9  11
ATOM     11  CA  0ZT d   1     -11.619  15.329  28.669  0.00  0.00     0.044 C 
ATOM     12  H11 0ZT d   1     -11.053  14.454  28.318  0.00  0.00     0.077 H 
BRANCH  11  13
ATOM     13  N   0ZT d   1     -11.279  15.545  30.078  0.00  0.00    -0.329 N 
ATOM     14  C   0ZT d   1     -10.174  14.964  30.674  0.00  0.00     0.361 C 
ATOM     15  O1  0ZT d   1      -9.325  14.299  30.100  0.00  0.00    -0.238 OA
ATOM     16  H10 0ZT d   1     -11.868  16.135  30.630  0.00  0.00     0.165 HD
BRANCH  14  17
ATOM     17  O2  0ZT d   1     -10.178  15.296  32.008  0.00  0.00    -0.294 OA
BRANCH  17  18
ATOM     18  CT  0ZT d   1      -8.951  15.379  32.853  0.00  0.00     0.061 C 
BRANCH  18  19
ATOM     19  C1  0ZT d   1      -9.419  15.835  34.220  0.00  0.00    -0.048 C 
ATOM     20  H1  0ZT d   1      -8.554  15.916  34.895  0.00  0.00     0.031 H 
ATOM     21  H2  0ZT d   1     -10.133  15.104  34.626  0.00  0.00     0.031 H 
ATOM     22  H3  0ZT d   1      -9.909  16.816  34.132  0.00  0.00     0.031 H 
ENDBRANCH  18  19
BRANCH  18  23
ATOM     23  C2  0ZT d   1      -7.981  16.391  32.242  0.00  0.00    -0.048 C 
ATOM     24  H4  0ZT d   1      -7.076  16.453  32.864  0.00  0.00     0.031 H 
ATOM     25  H5  0ZT d   1      -8.463  17.379  32.196  0.00  0.00     0.031 H 
ATOM     26  H6  0ZT d   1      -7.707  16.069  31.227  0.00  0.00     0.031 H 
ENDBRANCH  18  23
BRANCH  18  27
ATOM     27  C3  0ZT d   1      -8.316  13.991  32.941  0.00  0.00    -0.048 C 
ATOM     28  H7  0ZT d   1      -7.410  14.041  33.562  0.00  0.00     0.031 H 
ATOM     29  H8  0ZT d   1      -8.050  13.645  31.931  0.00  0.00     0.031 H 
ATOM     30  H9  0ZT d   1      -9.032  13.288  33.393  0.00  0.00     0.031 H 
ENDBRANCH  18  27
ENDBRANCH  17  18
ENDBRANCH  14  17
ENDBRANCH  11  13
BRANCH  11  31
ATOM     31  CB  0ZT d   1     -13.121  15.016  28.530  0.00  0.00    -0.020 C 
ATOM     32  H14 0ZT d   1     -13.366  14.955  27.459  0.00  0.00     0.043 H 
ATOM     33  H15 0ZT d   1     -13.692  15.836  28.991  0.00  0.00     0.043 H 
BRANCH  31  34
ATOM     34  CG  0ZT d   1     -13.529  13.723  29.187  0.00  0.00    -0.056 A 
ATOM     35  CD1 0ZT d   1     -14.562  13.694  30.108  0.00  0.00    -0.077 A 
ATOM     36  CE1 0ZT d   1     -14.905  12.513  30.754  0.00  0.00    -0.082 A 
ATOM     37  H16 0ZT d   1     -15.110  14.603  30.328  0.00  0.00     0.084 H 
ATOM     38  CZ  0ZT d   1     -14.213  11.339  30.480  0.00  0.00    -0.083 A 
ATOM     39  H18 0ZT d   1     -15.715  12.507  31.474  0.00  0.00     0.083 H 
ATOM     40  CE2 0ZT d   1     -13.179  11.349  29.557  0.00  0.00    -0.082 A 
ATOM     41  H20 0ZT d   1     -14.481  10.419  30.986  0.00  0.00     0.083 H 
ATOM     42  CD2 0ZT d   1     -12.841  12.539  28.914  0.00  0.00    -0.077 A 
ATOM     43  H19 0ZT d   1     -12.636  10.437  29.336  0.00  0.00     0.083 H 
ATOM     44  H17 0ZT d   1     -12.033  12.545  28.192  0.00  0.00     0.084 H 
ENDBRANCH  31  34
ENDBRANCH  11  31
ENDBRANCH   9  11
BRANCH   9  45
ATOM     45  OS  0ZT d   1     -11.952  17.685  28.151  0.00  0.00    -0.392 OA
ATOM     46  H13 0ZT d   1     -11.702  18.413  27.595  0.00  0.00     0.210 HD
ENDBRANCH   9  45
ENDBRANCH   6   9
ENDBRANCH   3   6
ENDBRANCH   1   3
BRANCH   1  47
ATOM     47  C   0ZT d   1      -7.796  16.930  25.558  0.00  0.00     0.249 C 
ATOM     48  O   0ZT d   1      -7.820  15.718  25.795  0.00  0.00    -0.271 OA
ATOM     49  N   0ZT d   1      -7.648  17.431  24.336  0.00  0.00    -0.346 N 
ATOM     50  H33 0ZT d   1      -7.625  18.424  24.219  0.00  0.00     0.163 HD
BRANCH  49  51
ATOM     51  CA  0ZT d   1      -7.519  16.580  23.163  0.00  0.00     0.090 C 
ATOM     52  H34 0ZT d   1      -7.016  15.643  23.442  0.00  0.00     0.087 H 
BRANCH  51  53
ATOM     53  C   0ZT d   1      -6.680  17.307  22.115  0.00  0.00     0.241 C 
ATOM     54  O   0ZT d   1      -6.932  18.470  21.792  0.00  0.00    -0.271 OA
ATOM     55  N   0ZT d   1      -5.664  16.632  21.598  0.00  0.00    -0.346 N 
ATOM     56  H39 0ZT d   1      -5.471  15.701  21.909  0.00  0.00     0.163 HD
BRANCH  55  57
ATOM     57  CA  0ZT d   1      -4.836  17.241  20.585  0.00  0.00     0.093 C 
ATOM     58  H40 0ZT d   1      -5.380  18.095  20.154  0.00  0.00     0.088 H 
BRANCH  57  59
ATOM     59  C   0ZT d   1      -4.560  16.246  19.480  0.00  0.00     0.238 C 
ATOM     60  O   0ZT d   1      -4.260  15.085  19.734  0.00  0.00    -0.271 OA
ATOM     61  N   0ZT d   1      -4.690  16.695  18.244  0.00  0.00    -0.368 N 
ATOM     62  H48 0ZT d   1      -4.521  16.085  17.470  0.00  0.00     0.159 HD
ATOM     63  H49 0ZT d   1      -4.957  17.645  18.083  0.00  0.00     0.159 HD
ENDBRANCH  57  59
BRANCH  57  64
ATOM     64  CB  0ZT d   1      -3.535  17.764  21.204  0.00  0.00    -0.014 C 
ATOM     65  H41 0ZT d   1      -3.795  18.495  21.984  0.00  0.00     0.043 H 
ATOM     66  H42 0ZT d   1      -2.954  18.262  20.414  0.00  0.00     0.043 H 
BRANCH  64  67
ATOM     67  CG  0ZT d   1      -2.672  16.702  21.824  0.00  0.00    -0.056 A 
ATOM     68  CD1 0ZT d   1      -1.580  16.191  21.141  0.00  0.00    -0.077 A 
ATOM     69  CE1 0ZT d   1      -0.747  15.240  21.732  0.00  0.00    -0.082 A 
ATOM     70  H43 0ZT d   1      -1.370  16.534  20.134  0.00  0.00     0.084 H 
ATOM     71  CZ  0ZT d   1      -1.008  14.789  23.017  0.00  0.00    -0.083 A 
ATOM     72  H45 0ZT d   1       0.106  14.853  21.186  0.00  0.00     0.083 H 
ATOM     73  CE2 0ZT d   1      -2.101  15.287  23.709  0.00  0.00    -0.082 A 
ATOM     74  H47 0ZT d   1      -0.361  14.051  23.478  0.00  0.00     0.083 H 
ATOM     75  CD2 0ZT d   1      -2.927  16.240  23.111  0.00  0.00    -0.077 A 
ATOM     76  H46 0ZT d   1      -2.314  14.937  24.713  0.00  0.00     0.083 H 
ATOM     77  H44 0ZT d   1      -3.780  16.626  23.658  0.00  0.00     0.084 H 
ENDBRANCH  64  67
ENDBRANCH  57  64
ENDBRANCH  55  57
ENDBRANCH  51  53
BRANCH  51  78
ATOM     78  CB  0ZT d   1      -8.920  16.257  22.620  0.00  0.00    -0.029 C 
ATOM     79  H35 0ZT d   1      -9.379  17.202  22.295  0.00  0.00     0.037 H 
ATOM     80  H36 0ZT d   1      -9.508  15.829  23.445  0.00  0.00     0.037 H 
BRANCH  78  81
ATOM     81  CG  0ZT d   1      -8.987  15.282  21.448  0.00  0.00     0.018 C 
ATOM     82  H37 0ZT d   1     -10.034  14.973  21.311  0.00  0.00     0.049 H 
ATOM     83  H38 0ZT d   1      -8.373  14.402  21.691  0.00  0.00     0.049 H 
BRANCH  81  84
ATOM     84  CD  0ZT d   1      -8.483  15.876  20.139  0.00  0.00     0.172 C 
ATOM     85  OE1 0ZT d   1      -8.650  17.099  19.928  0.00  0.00    -0.648 OA
ATOM     86  OE2 0ZT d   1      -7.935  15.115  19.311  0.00  0.00    -0.648 OA
ENDBRANCH  81  84
ENDBRANCH  78  81
ENDBRANCH  51  78
ENDBRANCH  49  51
ENDBRANCH   1  47
BRANCH   1  87
ATOM     87  CB  0ZT d   1      -6.933  17.596  27.805  0.00  0.00    -0.006 C 
ATOM     88  H26 0ZT d   1      -7.274  16.666  28.284  0.00  0.00     0.043 H 
ATOM     89  H27 0ZT d   1      -6.936  18.412  28.543  0.00  0.00     0.043 H 
BRANCH  87  90
ATOM     90  CG  0ZT d   1      -5.519  17.393  27.329  0.00  0.00    -0.056 A 
ATOM     91  CD1 0ZT d   1      -4.767  16.323  27.796  0.00  0.00    -0.077 A 
ATOM     92  CE1 0ZT d   1      -3.456  16.126  27.371  0.00  0.00    -0.082 A 
ATOM     93  H28 0ZT d   1      -5.208  15.630  28.503  0.00  0.00     0.084 H 
ATOM     94  CZ  0ZT d   1      -2.884  17.007  26.466  0.00  0.00    -0.083 A 
ATOM     95  H30 0ZT d   1      -2.884  15.286  27.747  0.00  0.00     0.083 H 
ATOM     96  CE2 0ZT d   1      -3.625  18.088  25.988  0.00  0.00    -0.082 A 
ATOM     97  H32 0ZT d   1      -1.864  16.856  26.131  0.00  0.00     0.083 H 
ATOM     98  CD2 0ZT d   1      -4.937  18.276  26.422  0.00  0.00    -0.077 A 
ATOM     99  H31 0ZT d   1      -3.182  18.780  25.281  0.00  0.00     0.083 H 
ATOM    100  H29 0ZT d   1      -5.510  19.118  26.050  0.00  0.00     0.084 H 
ENDBRANCH  87  90
ENDBRANCH   1  87
TORSDOF 25
