REMARK  10 active torsions:
REMARK  status: ('A' for Active; 'I' for Inactive)
REMARK    1  A    between atoms: C7_7  and  C8_8 
REMARK    2  A    between atoms: C7_7  and  C9_9 
REMARK    3  A    between atoms: C41_32  and  C7_7 
REMARK    4  A    between atoms: C14_13  and  C12_11 
REMARK       I    between atoms: N15_14  and  C14_13 
REMARK    5  A    between atoms: C16_15  and  N15_14 
REMARK    6  A    between atoms: C27_22  and  C20_19 
REMARK    7  A    between atoms: S37_28  and  C30_25 
REMARK    8  A    between atoms: N38_29  and  S37_28 
REMARK    9  A    between atoms: N38_29  and  C41_32 
REMARK   10  A    between atoms: C41_32  and  C42_33 
ROOT
ATOM      1  C27 033 d   1      20.288  68.313  38.785  0.00  0.00    -0.026 A 
ATOM      2  C28 033 d   1      21.144  68.437  37.625  0.00  0.00    -0.071 A 
ATOM      3  C29 033 d   1      20.718  67.958  36.340  0.00  0.00    -0.059 A 
ATOM      4  C30 033 d   1      19.428  67.344  36.202  0.00  0.00     0.079 A 
ATOM      5  C31 033 d   1      18.575  67.212  37.347  0.00  0.00    -0.059 A 
ATOM      6  C32 033 d   1      18.999  67.689  38.624  0.00  0.00    -0.071 A 
ATOM      7  H18 033 d   1      22.120  68.898  37.727  0.00  0.00     0.084 H 
ATOM      8  H19 033 d   1      21.368  68.060  35.478  0.00  0.00     0.085 H 
ATOM      9  H20 033 d   1      17.602  66.747  37.242  0.00  0.00     0.085 H 
ATOM     10  H21 033 d   1      18.345  67.581  39.481  0.00  0.00     0.084 H 
ENDROOT
BRANCH   1  11
ATOM     11  C20 033 d   1      20.728  68.832  40.140  0.00  0.00    -0.026 A 
ATOM     12  C19 033 d   1      21.329  70.139  40.253  0.00  0.00    -0.070 A 
ATOM     13  C18 033 d   1      21.742  70.647  41.518  0.00  0.00    -0.056 A 
ATOM     14  H15 033 d   1      21.468  70.742  39.363  0.00  0.00     0.084 H 
ATOM     15  C16 033 d   1      21.564  69.867  42.701  0.00  0.00     0.035 A 
ATOM     16  H14 033 d   1      22.194  71.630  41.583  0.00  0.00     0.086 H 
ATOM     17  C22 033 d   1      20.964  68.558  42.605  0.00  0.00    -0.056 A 
ATOM     18  C21 033 d   1      20.554  68.055  41.335  0.00  0.00    -0.070 A 
ATOM     19  H17 033 d   1      20.825  67.958  43.497  0.00  0.00     0.086 H 
ATOM     20  H16 033 d   1      20.104  67.071  41.271  0.00  0.00     0.084 H 
BRANCH  15  21
ATOM     21  N15 033 d   1      21.988  70.425  43.897  0.00  0.00    -0.321 N 
ATOM     22  C14 033 d   1      22.897  69.851  44.773  0.00  0.00     0.280 C 
ATOM     23  O17 033 d   1      23.335  68.689  44.654  0.00  0.00    -0.265 OA
ATOM     24  H13 033 d   1      21.607  71.315  44.149  0.00  0.00     0.169 HD
BRANCH  22  25
ATOM     25  C12 033 d   1      23.317  70.664  45.841  0.00  0.00     0.144 A 
ATOM     26  C11 033 d   1      23.974  70.051  46.962  0.00  0.00    -0.032 A 
ATOM     27  C3  033 d   1      24.212  71.182  47.753  0.00  0.00     0.001 A 
ATOM     28  H12 033 d   1      24.218  69.005  47.145  0.00  0.00     0.089 H 
ATOM     29  C2  033 d   1      24.840  71.279  49.037  0.00  0.00    -0.070 A 
ATOM     30  C4  033 d   1      23.691  72.330  47.078  0.00  0.00     0.086 A 
ATOM     31  C1  033 d   1      24.960  72.575  49.649  0.00  0.00    -0.082 A 
ATOM     32  H2  033 d   1      25.217  70.394  49.537  0.00  0.00     0.084 H 
ATOM     33  C6  033 d   1      24.450  73.745  48.989  0.00  0.00    -0.080 A 
ATOM     34  H1  033 d   1      25.439  72.670  50.617  0.00  0.00     0.083 H 
ATOM     35  C5  033 d   1      23.822  73.628  47.704  0.00  0.00    -0.049 A 
ATOM     36  H4  033 d   1      24.540  74.716  49.462  0.00  0.00     0.083 H 
ATOM     37  H3  033 d   1      23.446  74.512  47.202  0.00  0.00     0.087 H 
ATOM     38  O13 033 d   1      23.145  72.030  45.897  0.00  0.00    -0.304 OA
ENDBRANCH  22  25
ENDBRANCH  15  21
ENDBRANCH   1  11
BRANCH   4  39
ATOM     39  S37 033 d   1      18.875  66.762  34.592  0.00  0.00     0.259 S 
ATOM     40  O39 033 d   1      19.772  67.206  33.568  0.00  0.00    -0.201 OA
ATOM     41  O40 033 d   1      18.561  65.363  34.614  0.00  0.00    -0.201 OA
BRANCH  39  42
ATOM     42  N38 033 d   1      17.367  67.528  34.167  0.00  0.00    -0.300 N 
ATOM     43  H22 033 d   1      16.570  66.954  33.980  0.00  0.00     0.173 HD
BRANCH  42  44
ATOM     44  C41 033 d   1      17.226  69.004  34.073  0.00  0.00     0.106 C 
ATOM     45  H23 033 d   1      18.183  69.420  33.724  0.00  0.00     0.091 H 
BRANCH  44  46
ATOM     46  C7  033 d   1      16.129  69.405  33.063  0.00  0.00    -0.031 C 
ATOM     47  H5  033 d   1      15.175  68.963  33.386  0.00  0.00     0.042 H 
BRANCH  46  48
ATOM     48  C8  033 d   1      16.487  68.866  31.679  0.00  0.00    -0.071 C 
ATOM     49  H6  033 d   1      15.705  69.152  30.960  0.00  0.00     0.028 H 
ATOM     50  H7  033 d   1      16.563  67.769  31.721  0.00  0.00     0.028 H 
ATOM     51  H8  033 d   1      17.451  69.288  31.359  0.00  0.00     0.028 H 
ENDBRANCH  46  48
BRANCH  46  52
ATOM     52  C9  033 d   1      15.963  70.941  32.988  0.00  0.00    -0.071 C 
ATOM     53  H9  033 d   1      15.705  71.331  33.984  0.00  0.00     0.028 H 
ATOM     54  H10 033 d   1      15.160  71.189  32.278  0.00  0.00     0.028 H 
ATOM     55  H11 033 d   1      16.906  71.396  32.649  0.00  0.00     0.028 H 
ENDBRANCH  46  52
ENDBRANCH  44  46
BRANCH  44  56
ATOM     56  C42 033 d   1      16.918  69.584  35.446  0.00  0.00     0.197 C 
ATOM     57  O45 033 d   1      15.795  69.482  35.973  0.00  0.00    -0.646 OA
ATOM     58  O50 033 d   1      17.814  70.144  36.085  0.00  0.00    -0.646 OA
ENDBRANCH  44  56
ENDBRANCH  42  44
ENDBRANCH  39  42
ENDBRANCH   4  39
TORSDOF 10
