REMARK  25 active torsions:
REMARK  status: ('A' for Active; 'I' for Inactive)
REMARK    1  A    between atoms: N_1  and  CA_2 
REMARK    2  A    between atoms: CA_2  and  C_3 
REMARK    3  A    between atoms: CA_2  and  CB_5 
REMARK       I    between atoms: C_3  and  N_10 
REMARK    4  A    between atoms: CB_5  and  CG_6 
REMARK    5  A    between atoms: CG_6  and  CD_7 
REMARK    6  A    between atoms: N_10  and  CA_11 
REMARK    7  A    between atoms: CA_11  and  C_12 
REMARK    8  A    between atoms: CA_11  and  CB_14 
REMARK       I    between atoms: C_12  and  N_19 
REMARK    9  A    between atoms: CB_14  and  CG_15 
REMARK   10  A    between atoms: CG_15  and  CD_16 
REMARK   11  A    between atoms: N_19  and  CA_20 
REMARK   12  A    between atoms: CA_20  and  C_21 
REMARK       I    between atoms: C_21  and  N_23 
REMARK   13  A    between atoms: N_23  and  CA_24 
REMARK   14  A    between atoms: CA_24  and  C_25 
REMARK   15  A    between atoms: CA_24  and  CB_27 
REMARK       I    between atoms: C_25  and  N_31 
REMARK   16  A    between atoms: CB_27  and  CG1_28 
REMARK   17  A    between atoms: CB_27  and  CG2_29 
REMARK   18  A    between atoms: CG1_28  and  CD1_30 
REMARK   19  A    between atoms: N_31  and  CA_32 
REMARK   20  A    between atoms: CA_32  and  C_33 
REMARK   21  A    between atoms: CA_32  and  CB_35 
REMARK       I    between atoms: C_33  and  N_45 
REMARK   22  A    between atoms: CB_35  and  CG_36 
REMARK   23  A    between atoms: N_45  and  CA_46 
REMARK   24  A    between atoms: CA_46  and  C_47 
REMARK   25  A    between atoms: CA_46  and  CB_49 
ROOT
ATOM      1  CA  ILE d   1     182.696  -9.818   3.499  0.00  0.00     0.092 C 
ATOM      2  H19 ILE d   1     182.898 -10.748   4.050  0.00  0.00     0.088 H 
ENDROOT
BRANCH   1   3
ATOM      3  N   ILE d   1     183.912  -9.442   2.789  0.00  0.00    -0.346 N 
ATOM      4  C   GLY d   1     185.107  -9.887   3.165  0.00  0.00     0.236 C 
ATOM      5  O   GLY d   1     185.270 -10.639   4.125  0.00  0.00    -0.272 OA
ATOM      6  H18 ILE d   1     183.846  -8.833   1.998  0.00  0.00     0.163 HD
BRANCH   4   7
ATOM      7  CA  GLY d   1     186.292  -9.418   2.342  0.00  0.00     0.069 C 
ATOM      8  H16 GLY d   1     186.292  -8.318   2.321  0.00  0.00     0.078 H 
ATOM      9  H17 GLY d   1     187.216  -9.776   2.820  0.00  0.00     0.078 H 
BRANCH   7  10
ATOM     10  N   GLY d   1     186.255  -9.909   0.977  0.00  0.00    -0.351 N 
ATOM     11  C   GLU d   1     187.382 -10.172   0.321  0.00  0.00     0.240 C 
ATOM     12  O   GLU d   1     188.497 -10.019   0.818  0.00  0.00    -0.271 OA
ATOM     13  H15 GLY d   1     185.374 -10.051   0.525  0.00  0.00     0.163 HD
BRANCH  11  14
ATOM     14  CA  GLU d   1     187.227 -10.681  -1.109  0.00  0.00     0.090 C 
ATOM     15  H10 GLU d   1     186.665  -9.933  -1.687  0.00  0.00     0.087 H 
BRANCH  14  16
ATOM     16  N   GLU d   1     188.529 -10.868  -1.739  0.00  0.00    -0.346 N 
ATOM     17  C   GLU d   1     188.802 -10.362  -2.937  0.00  0.00     0.249 C 
ATOM     18  O   GLU d   1     187.988  -9.711  -3.591  0.00  0.00    -0.271 OA
ATOM     19  H9  GLU d   1     189.233 -11.390  -1.258  0.00  0.00     0.163 HD
BRANCH  17  20
ATOM     20  CA  GLU d   1     190.203 -10.631  -3.480  0.00  0.00     0.176 C 
ATOM     21  H4  GLU d   1     190.845 -10.960  -2.650  0.00  0.00     0.099 H 
BRANCH  20  22
ATOM     22  N   GLU d   1     190.180 -11.690  -4.523  0.00  0.00    -0.066 N 
ATOM     23  H1  GLU d   1     191.116 -11.847  -4.863  0.00  0.00     0.275 HD
ATOM     24  H2  GLU d   1     189.590 -11.397  -5.286  0.00  0.00     0.275 HD
ATOM     25  H3  GLU d   1     189.819 -12.544  -4.127  0.00  0.00     0.275 HD
ENDBRANCH  20  22
BRANCH  20  26
ATOM     26  CB  GLU d   1     190.787  -9.356  -4.094  0.00  0.00    -0.021 C 
ATOM     27  H5  GLU d   1     190.144  -8.509  -3.814  0.00  0.00     0.037 H 
ATOM     28  H6  GLU d   1     190.791  -9.467  -5.188  0.00  0.00     0.037 H 
BRANCH  26  29
ATOM     29  CG  GLU d   1     192.205  -9.055  -3.636  0.00  0.00     0.018 C 
ATOM     30  H7  GLU d   1     192.416  -9.645  -2.732  0.00  0.00     0.049 H 
ATOM     31  H8  GLU d   1     192.279  -7.983  -3.400  0.00  0.00     0.049 H 
BRANCH  29  32
ATOM     32  CD  GLU d   1     193.243  -9.393  -4.688  0.00  0.00     0.172 C 
ATOM     33  OE1 GLU d   1     192.977 -10.288  -5.518  0.00  0.00    -0.648 OA
ATOM     34  OE2 GLU d   1     194.322  -8.764  -4.682  0.00  0.00    -0.648 OA
ENDBRANCH  29  32
ENDBRANCH  26  29
ENDBRANCH  20  26
ENDBRANCH  17  20
ENDBRANCH  14  16
BRANCH  14  35
ATOM     35  CB  GLU d   1     186.441 -11.994  -1.112  0.00  0.00    -0.029 C 
ATOM     36  H11 GLU d   1     186.217 -12.263  -2.155  0.00  0.00     0.037 H 
ATOM     37  H12 GLU d   1     185.500 -11.837  -0.564  0.00  0.00     0.037 H 
BRANCH  35  38
ATOM     38  CG  GLU d   1     187.186 -13.151  -0.467  0.00  0.00     0.018 C 
ATOM     39  H13 GLU d   1     186.543 -13.595   0.307  0.00  0.00     0.049 H 
ATOM     40  H14 GLU d   1     188.105 -12.763  -0.003  0.00  0.00     0.049 H 
BRANCH  38  41
ATOM     41  CD  GLU d   1     187.564 -14.231  -1.461  0.00  0.00     0.172 C 
ATOM     42  OE1 GLU d   1     188.472 -13.990  -2.284  0.00  0.00    -0.648 OA
ATOM     43  OE2 GLU d   1     186.951 -15.319  -1.417  0.00  0.00    -0.648 OA
ENDBRANCH  38  41
ENDBRANCH  35  38
ENDBRANCH  14  35
ENDBRANCH  11  14
ENDBRANCH   7  10
ENDBRANCH   4   7
ENDBRANCH   1   3
BRANCH   1  44
ATOM     44  C   ILE d   1     181.558 -10.063   2.522  0.00  0.00     0.241 C 
ATOM     45  O   ILE d   1     181.504  -9.463   1.450  0.00  0.00    -0.271 OA
ATOM     46  N   TRP d   1     180.642 -10.936   2.909  0.00  0.00    -0.346 N 
ATOM     47  H29 TRP d   1     180.742 -11.393   3.793  0.00  0.00     0.163 HD
BRANCH  46  48
ATOM     48  CA  TRP d   1     179.494 -11.244   2.075  0.00  0.00     0.093 C 
ATOM     49  H30 TRP d   1     179.776 -11.090   1.023  0.00  0.00     0.088 H 
BRANCH  48  50
ATOM     50  C   TRP d   1     178.339 -10.312   2.408  0.00  0.00     0.241 C 
ATOM     51  O   TRP d   1     177.898 -10.239   3.555  0.00  0.00    -0.271 OA
ATOM     52  N   ALA d   1     177.854  -9.599   1.399  0.00  0.00    -0.345 N 
ATOM     53  H39 ALA d   1     178.260  -9.701   0.491  0.00  0.00     0.163 HD
BRANCH  52  54
ATOM     54  CA  ALA d   1     176.748  -8.674   1.582  0.00  0.00     0.093 C 
ATOM     55  H40 ALA d   1     176.202  -8.961   2.492  0.00  0.00     0.089 H 
BRANCH  54  56
ATOM     56  C   ALA d   1     175.787  -8.753   0.401  0.00  0.00     0.196 C 
ATOM     57  O   ALA d   1     175.216  -7.709   0.031  0.00  0.00    -0.646 OA
ATOM     58  OXT ALA d   1     175.621  -9.854  -0.156  0.00  0.00    -0.646 OA
ENDBRANCH  54  56
BRANCH  54  59
ATOM     59  CB  ALA d   1     177.268  -7.254   1.764  0.00  0.00    -0.048 C 
ATOM     60  H41 ALA d   1     176.419  -6.568   1.901  0.00  0.00     0.030 H 
ATOM     61  H42 ALA d   1     177.840  -6.956   0.873  0.00  0.00     0.030 H 
ATOM     62  H43 ALA d   1     177.920  -7.213   2.649  0.00  0.00     0.030 H 
ENDBRANCH  54  59
ENDBRANCH  52  54
ENDBRANCH  48  50
BRANCH  48  63
ATOM     63  CB  TRP d   1     179.071 -12.705   2.254  0.00  0.00    -0.012 C 
ATOM     64  H31 TRP d   1     177.994 -12.733   2.475  0.00  0.00     0.044 H 
ATOM     65  H32 TRP d   1     179.630 -13.130   3.100  0.00  0.00     0.044 H 
BRANCH  63  66
ATOM     66  CG  TRP d   1     179.331 -13.546   1.039  0.00  0.00    -0.028 A 
ATOM     67  CD1 TRP d   1     179.990 -14.742   0.996  0.00  0.00    -0.015 A 
ATOM     68  NE1 TRP d   1     180.033 -15.211  -0.295  0.00  0.00    -0.365 N 
ATOM     69  H33 TRP d   1     180.419 -15.250   1.859  0.00  0.00     0.112 H 
ATOM     70  CE2 TRP d   1     179.397 -14.316  -1.115  0.00  0.00     0.042 A 
ATOM     71  H34 TRP d   1     180.472 -16.092  -0.597  0.00  0.00     0.165 HD
ATOM     72  CD2 TRP d   1     178.942 -13.254  -0.310  0.00  0.00    -0.002 A 
ATOM     73  CZ2 TRP d   1     179.185 -14.351  -2.492  0.00  0.00    -0.056 A 
ATOM     74  CE3 TRP d   1     178.252 -12.199  -0.916  0.00  0.00    -0.070 A 
ATOM     75  CZ3 TRP d   1     178.042 -12.236  -2.283  0.00  0.00    -0.082 A 
ATOM     76  H35 TRP d   1     177.888 -11.367  -0.325  0.00  0.00     0.084 H 
ATOM     77  CH2 TRP d   1     178.507 -13.306  -3.057  0.00  0.00    -0.081 A 
ATOM     78  H37 TRP d   1     177.509 -11.423  -2.763  0.00  0.00     0.083 H 
ATOM     79  H38 TRP d   1     178.326 -13.306  -4.126  0.00  0.00     0.083 H 
ATOM     80  H36 TRP d   1     179.545 -15.177  -3.094  0.00  0.00     0.086 H 
ENDBRANCH  63  66
ENDBRANCH  48  63
ENDBRANCH  46  48
ENDBRANCH   1  44
BRANCH   1  81
ATOM     81  CB  ILE d   1     182.244  -8.736   4.511  0.00  0.00    -0.030 C 
ATOM     82  H20 ILE d   1     181.213  -8.445   4.264  0.00  0.00     0.043 H 
BRANCH  81  83
ATOM     83  CG1 ILE d   1     183.127  -7.489   4.415  0.00  0.00    -0.063 C 
ATOM     84  H21 ILE d   1     182.609  -6.657   4.915  0.00  0.00     0.033 H 
ATOM     85  H22 ILE d   1     183.270  -7.245   3.352  0.00  0.00     0.033 H 
BRANCH  83  86
ATOM     86  CD1 ILE d   1     184.484  -7.658   5.052  0.00  0.00    -0.076 C 
ATOM     87  H26 ILE d   1     185.058  -6.726   4.944  0.00  0.00     0.027 H 
ATOM     88  H27 ILE d   1     185.022  -8.480   4.556  0.00  0.00     0.027 H 
ATOM     89  H28 ILE d   1     184.361  -7.891   6.120  0.00  0.00     0.027 H 
ENDBRANCH  83  86
ENDBRANCH  81  83
BRANCH  81  90
ATOM     90  CG2 ILE d   1     182.255  -9.294   5.929  0.00  0.00    -0.071 C 
ATOM     91  H23 ILE d   1     181.616 -10.188   5.976  0.00  0.00     0.028 H 
ATOM     92  H24 ILE d   1     181.873  -8.533   6.625  0.00  0.00     0.028 H 
ATOM     93  H25 ILE d   1     183.284  -9.564   6.209  0.00  0.00     0.028 H 
ENDBRANCH  81  90
ENDBRANCH   1  81
TORSDOF 25
