REMARK  4 active torsions:
REMARK  status: ('A' for Active; 'I' for Inactive)
REMARK    1  A    between atoms: C1_1  and  C2_2 
REMARK    2  A    between atoms: C2_2  and  C16_21 
REMARK    3  A    between atoms: C5_5  and  C10_13 
REMARK    4  A    between atoms: N2_17  and  C14_18 
ROOT
ATOM      1  C10 T98 d   1      27.452  -8.903   7.837  0.00  0.00     0.045 A 
ATOM      2  C11 T98 d   1      26.397  -9.809   7.755  0.00  0.00    -0.053 A 
ATOM      3  C12 T98 d   1      26.674 -10.627   6.638  0.00  0.00    -0.044 A 
ATOM      4  C13 T98 d   1      27.881 -10.238   6.108  0.00  0.00     0.116 A 
ATOM      5  N2  T98 d   1      28.341  -9.182   6.832  0.00  0.00    -0.342 N 
ATOM      6  C15 T98 d   1      28.595 -10.745   4.986  0.00  0.00     0.117 C 
ATOM      7  N3  T98 d   1      29.216 -11.142   4.084  0.00  0.00    -0.190 NA
ATOM      8  H8  T98 d   1      25.535  -9.873   8.417  0.00  0.00     0.087 H 
ATOM      9  H9  T98 d   1      26.040 -11.428   6.261  0.00  0.00     0.088 H 
ENDROOT
BRANCH   5  10
ATOM     10  C14 T98 d   1      29.638  -8.545   6.551  0.00  0.00    -0.013 C 
ATOM     11  H10 T98 d   1      29.801  -7.718   7.257  0.00  0.00     0.057 H 
ATOM     12  H11 T98 d   1      29.640  -8.155   5.523  0.00  0.00     0.057 H 
ATOM     13  H12 T98 d   1      30.443  -9.287   6.663  0.00  0.00     0.057 H 
ENDBRANCH   5  10
BRANCH   1  14
ATOM     14  C5  T98 d   1      27.717  -7.883   8.851  0.00  0.00    -0.009 A 
ATOM     15  C4  T98 d   1      27.266  -8.182  10.147  0.00  0.00    -0.060 A 
ATOM     16  C3  T98 d   1      27.507  -7.303  11.213  0.00  0.00     0.004 A 
ATOM     17  H4  T98 d   1      26.725  -9.104  10.326  0.00  0.00     0.086 H 
ATOM     18  C2  T98 d   1      27.042  -7.601  12.615  0.00  0.00     0.092 A 
ATOM     19  C8  T98 d   1      28.211  -6.131  10.945  0.00  0.00     0.044 A 
ATOM     20  O1  T98 d   1      27.336  -6.559  13.575  0.00  0.00    -0.311 OA
ATOM     21  C9  T98 d   1      28.047  -5.456  13.267  0.00  0.00     0.215 A 
ATOM     22  N1  T98 d   1      28.459  -5.227  11.978  0.00  0.00    -0.327 N 
ATOM     23  S1  T98 d   1      28.371  -4.444  14.511  0.00  0.00    -0.033 SA
ATOM     24  H7  T98 d   1      28.954  -4.383  11.772  0.00  0.00     0.169 HD
ATOM     25  C7  T98 d   1      28.708  -5.839   9.662  0.00  0.00    -0.056 A 
ATOM     26  C6  T98 d   1      28.462  -6.716   8.606  0.00  0.00    -0.069 A 
ATOM     27  H6  T98 d   1      29.281  -4.934   9.494  0.00  0.00     0.087 H 
ATOM     28  H5  T98 d   1      28.839  -6.502   7.612  0.00  0.00     0.085 H 
BRANCH  18  29
ATOM     29  C1  T98 d   1      27.910  -8.707  13.244  0.00  0.00    -0.043 C 
ATOM     30  H1  T98 d   1      27.558  -8.913  14.266  0.00  0.00     0.032 H 
ATOM     31  H2  T98 d   1      28.959  -8.376  13.277  0.00  0.00     0.032 H 
ATOM     32  H3  T98 d   1      27.833  -9.622  12.639  0.00  0.00     0.032 H 
ENDBRANCH  18  29
BRANCH  18  33
ATOM     33  C16 T98 d   1      25.547  -7.914  12.653  0.00  0.00    -0.043 C 
ATOM     34  H13 T98 d   1      24.988  -7.088  12.190  0.00  0.00     0.032 H 
ATOM     35  H14 T98 d   1      25.224  -8.036  13.697  0.00  0.00     0.032 H 
ATOM     36  H15 T98 d   1      25.353  -8.844  12.099  0.00  0.00     0.032 H 
ENDBRANCH  18  33
ENDBRANCH   1  14
TORSDOF 4
