REMARK  10 active torsions:
REMARK  status: ('A' for Active; 'I' for Inactive)
REMARK    1  A    between atoms: C1_1  and  C2_2 
REMARK    2  A    between atoms: C3_3  and  C4_4 
REMARK    3  A    between atoms: C4_4  and  O1_5 
REMARK    4  A    between atoms: O1_5  and  C5_6 
REMARK    5  A    between atoms: C8_9  and  S1_12 
REMARK    6  A    between atoms: S1_12  and  N1_15 
REMARK    7  A    between atoms: C13_19  and  C16_25 
REMARK    8  A    between atoms: C13_19  and  C17_26 
REMARK    9  A    between atoms: C14_20  and  C15_21 
REMARK       I    between atoms: C15_21  and  N2_23 
REMARK   10  A    between atoms: N2_23  and  O5_24 
ROOT
ATOM      1  N1  IH6 d   1      -6.870  14.109 113.172  0.00  0.00    -0.291 N 
ATOM      2  C11 IH6 d   1      -7.978  13.097 113.090  0.00  0.00     0.014 C 
ATOM      3  C12 IH6 d   1      -9.188  13.676 112.347  0.00  0.00    -0.007 C 
ATOM      4  S2  IH6 d   1      -8.749  14.206 110.663  0.00  0.00    -0.155 SA
ATOM      5  C13 IH6 d   1      -7.393  15.396 111.052  0.00  0.00     0.031 C 
ATOM      6  C14 IH6 d   1      -6.294  14.678 111.894  0.00  0.00     0.116 C 
ATOM      7  H10 IH6 d   1      -8.282  12.812 114.108  0.00  0.00     0.066 H 
ATOM      8  H11 IH6 d   1      -7.616  12.208 112.553  0.00  0.00     0.066 H 
ATOM      9  H12 IH6 d   1      -9.569  14.543 112.906  0.00  0.00     0.051 H 
ATOM     10  H13 IH6 d   1      -9.971  12.906 112.286  0.00  0.00     0.051 H 
ATOM     11  H14 IH6 d   1      -5.564  15.450 112.180  0.00  0.00     0.091 H 
ENDROOT
BRANCH   1  12
ATOM     12  S1  IH6 d   1      -5.807  14.028 114.554  0.00  0.00     0.261 S 
ATOM     13  O2  IH6 d   1      -4.946  15.179 114.573  0.00  0.00    -0.200 OA
ATOM     14  O3  IH6 d   1      -6.666  13.810 115.713  0.00  0.00    -0.200 OA
BRANCH  12  15
ATOM     15  C8  IH6 d   1      -4.731  12.635 114.641  0.00  0.00     0.079 A 
ATOM     16  C7  IH6 d   1      -5.185  11.432 115.167  0.00  0.00    -0.058 A 
ATOM     17  C6  IH6 d   1      -4.289  10.368 115.264  0.00  0.00    -0.049 A 
ATOM     18  H7  IH6 d   1      -6.213  11.323 115.495  0.00  0.00     0.086 H 
ATOM     19  C5  IH6 d   1      -2.945  10.516 114.882  0.00  0.00     0.070 A 
ATOM     20  H6  IH6 d   1      -4.635   9.412 115.640  0.00  0.00     0.087 H 
ATOM     21  C10 IH6 d   1      -2.503  11.747 114.377  0.00  0.00    -0.049 A 
ATOM     22  C9  IH6 d   1      -3.392  12.819 114.272  0.00  0.00    -0.058 A 
ATOM     23  H9  IH6 d   1      -1.471  11.867 114.068  0.00  0.00     0.087 H 
ATOM     24  H8  IH6 d   1      -3.050  13.782 113.909  0.00  0.00     0.086 H 
BRANCH  19  25
ATOM     25  O1  IH6 d   1      -2.125   9.424 115.033  0.00  0.00    -0.340 OA
BRANCH  25  26
ATOM     26  C4  IH6 d   1      -2.422   8.310 115.897  0.00  0.00     0.080 C 
ATOM     27  H4  IH6 d   1      -3.437   7.949 115.675  0.00  0.00     0.094 H 
ATOM     28  H5  IH6 d   1      -1.696   7.506 115.702  0.00  0.00     0.094 H 
BRANCH  26  29
ATOM     29  C3  IH6 d   1      -2.350   8.681 117.319  0.00  0.00    -0.080 C 
ATOM     30  C2  IH6 d   1      -2.267   9.023 118.470  0.00  0.00    -0.109 C 
BRANCH  30  31
ATOM     31  C1  IH6 d   1      -2.073   9.413 119.865  0.00  0.00    -0.021 C 
ATOM     32  H1  IH6 d   1      -3.021   9.791 120.275  0.00  0.00     0.044 H 
ATOM     33  H2  IH6 d   1      -1.308  10.201 119.922  0.00  0.00     0.044 H 
ATOM     34  H3  IH6 d   1      -1.744   8.540 120.448  0.00  0.00     0.044 H 
ENDBRANCH  30  31
ENDBRANCH  26  29
ENDBRANCH  25  26
ENDBRANCH  19  25
ENDBRANCH  12  15
ENDBRANCH   1  12
BRANCH   6  35
ATOM     35  C15 IH6 d   1      -5.519  13.603 111.131  0.00  0.00     0.266 C 
ATOM     36  O4  IH6 d   1      -5.990  12.515 110.849  0.00  0.00    -0.269 OA
ATOM     37  N2  IH6 d   1      -4.243  13.976 110.783  0.00  0.00    -0.236 N 
ATOM     38  H15 IH6 d   1      -3.860  14.866 111.029  0.00  0.00     0.197 HD
BRANCH  37  39
ATOM     39  O5  IH6 d   1      -3.524  13.031 110.066  0.00  0.00    -0.287 OA
ATOM     40  H16 IH6 d   1      -2.660  13.373 109.871  0.00  0.00     0.244 HD
ENDBRANCH  37  39
ENDBRANCH   6  35
BRANCH   5  41
ATOM     41  C16 IH6 d   1      -8.016  16.626 111.747  0.00  0.00    -0.058 C 
ATOM     42  H17 IH6 d   1      -7.224  17.351 111.989  0.00  0.00     0.029 H 
ATOM     43  H18 IH6 d   1      -8.518  16.309 112.673  0.00  0.00     0.029 H 
ATOM     44  H19 IH6 d   1      -8.749  17.095 111.074  0.00  0.00     0.029 H 
ENDBRANCH   5  41
BRANCH   5  45
ATOM     45  C17 IH6 d   1      -6.778  15.894 109.725  0.00  0.00    -0.058 C 
ATOM     46  H20 IH6 d   1      -5.967  16.605 109.941  0.00  0.00     0.029 H 
ATOM     47  H21 IH6 d   1      -7.554  16.393 109.126  0.00  0.00     0.029 H 
ATOM     48  H22 IH6 d   1      -6.375  15.038 109.163  0.00  0.00     0.029 H 
ENDBRANCH   5  45
TORSDOF 10
