REMARK  6 active torsions:
REMARK  status: ('A' for Active; 'I' for Inactive)
REMARK    1  A    between atoms: C5_7  and  C7_8 
REMARK    2  A    between atoms: C10_12  and  C11_13 
REMARK    3  A    between atoms: C11_13  and  C12_14 
REMARK    4  A    between atoms: N1_20  and  C15_21 
REMARK    5  A    between atoms: C15_21  and  C16_22 
REMARK    6  A    between atoms: C16_22  and  C17_23 
ROOT
ATOM      1  C7  MFM d   1      85.909  42.686 139.455  0.00  0.00     0.086 A 
ATOM      2  O1  MFM d   1      84.541  42.642 139.515  0.00  0.00    -0.310 OA
ATOM      3  C8  MFM d   1      86.385  41.503 139.068  0.00  0.00    -0.047 A 
ATOM      4  C9  MFM d   1      85.351  40.702 138.834  0.00  0.00    -0.048 A 
ATOM      5  C10 MFM d   1      84.237  41.372 139.113  0.00  0.00     0.077 A 
ATOM      6  H5  MFM d   1      87.436  41.239 138.962  0.00  0.00     0.087 H 
ATOM      7  H6  MFM d   1      85.406  39.675 138.476  0.00  0.00     0.087 H 
ENDROOT
BRANCH   5   8
ATOM      8  C11 MFM d   1      82.978  40.774 139.146  0.00  0.00    -0.028 C 
ATOM      9  H7  MFM d   1      82.163  41.352 139.579  0.00  0.00     0.090 H 
BRANCH   8  10
ATOM     10  C12 MFM d   1      82.674  39.503 138.673  0.00  0.00     0.078 A 
ATOM     11  C14 MFM d   1      83.361  38.804 137.681  0.00  0.00     0.266 A 
ATOM     12  O2  MFM d   1      84.450  39.167 137.226  0.00  0.00    -0.266 OA
ATOM     13  N1  MFM d   1      82.676  37.854 137.057  0.00  0.00    -0.298 N 
ATOM     14  C13 MFM d   1      81.414  37.676 137.476  0.00  0.00     0.148 A 
ATOM     15  S1  MFM d   1      81.096  38.828 138.710  0.00  0.00    -0.055 SA
ATOM     16  S2  MFM d   1      80.356  36.406 136.896  0.00  0.00    -0.052 SA
BRANCH  13  17
ATOM     17  C15 MFM d   1      83.236  37.170 135.889  0.00  0.00     0.013 C 
ATOM     18  H8  MFM d   1      84.042  37.780 135.455  0.00  0.00     0.065 H 
ATOM     19  H9  MFM d   1      82.448  37.016 135.138  0.00  0.00     0.065 H 
BRANCH  17  20
ATOM     20  C16 MFM d   1      83.796  35.817 136.330  0.00  0.00     0.031 C 
ATOM     21  H10 MFM d   1      83.018  35.278 136.890  0.00  0.00     0.051 H 
ATOM     22  H11 MFM d   1      84.665  35.989 136.982  0.00  0.00     0.051 H 
BRANCH  20  23
ATOM     23  C17 MFM d   1      84.235  34.954 135.139  0.00  0.00     0.174 C 
ATOM     24  O4  MFM d   1      83.549  33.983 134.808  0.00  0.00    -0.648 OA
ATOM     25  O3  MFM d   1      85.268  35.204 134.540  0.00  0.00    -0.648 OA
ENDBRANCH  20  23
ENDBRANCH  17  20
ENDBRANCH  13  17
ENDBRANCH   8  10
ENDBRANCH   5   8
BRANCH   1  26
ATOM     26  C5  MFM d   1      86.600  43.881 139.579  0.00  0.00    -0.002 A 
ATOM     27  C4  MFM d   1      85.865  45.047 139.742  0.00  0.00    -0.069 A 
ATOM     28  C3  MFM d   1      86.526  46.275 139.823  0.00  0.00    -0.061 A 
ATOM     29  H1  MFM d   1      84.784  45.005 139.806  0.00  0.00     0.085 H 
ATOM     30  C2  MFM d   1      87.908  46.331 139.749  0.00  0.00     0.034 A 
ATOM     31  H2  MFM d   1      85.955  47.188 139.944  0.00  0.00     0.086 H 
ATOM     32 CL1  MFM d   1      88.723  47.837 139.973  0.00  0.00    -0.084 Cl
ATOM     33  C1  MFM d   1      88.650  45.151 139.588  0.00  0.00    -0.061 A 
ATOM     34  C6  MFM d   1      87.997  43.933 139.503  0.00  0.00    -0.069 A 
ATOM     35  H3  MFM d   1      89.732  45.193 139.530  0.00  0.00     0.086 H 
ATOM     36  H4  MFM d   1      88.567  43.020 139.378  0.00  0.00     0.085 H 
ENDBRANCH   1  26
TORSDOF 6
