REMARK  5 active torsions:
REMARK  status: ('A' for Active; 'I' for Inactive)
REMARK    1  A    between atoms: C6_23  and  C1_18 
REMARK    2  A    between atoms: N2_24  and  C6_23 
REMARK       I    between atoms: C7_25  and  N2_24 
REMARK    3  A    between atoms: C8_26  and  C7_25 
REMARK    4  A    between atoms: O1_32  and  C11_29 
REMARK    5  A    between atoms: C14_33  and  O1_32 
ROOT
ATOM      1  H8  BI5 d   1      53.009  34.019 -26.373  0.00  0.00     0.085 H 
ATOM      2  H9  BI5 d   1      54.291  33.057 -24.375  0.00  0.00     0.087 H 
ATOM      3  H10 BI5 d   1      53.495  36.701 -22.010  0.00  0.00     0.087 H 
ATOM      4  H11 BI5 d   1      52.223  37.678 -24.007  0.00  0.00     0.085 H 
ATOM      5  C8  BI5 d   1      52.537  35.898 -25.280  0.00  0.00     0.032 A 
ATOM      6  C9  BI5 d   1      53.113  34.575 -25.448  0.00  0.00    -0.065 A 
ATOM      7  C10 BI5 d   1      53.835  34.038 -24.309  0.00  0.00    -0.049 A 
ATOM      8  C11 BI5 d   1      53.951  34.809 -23.078  0.00  0.00     0.076 A 
ATOM      9  C12 BI5 d   1      53.384  36.140 -22.931  0.00  0.00    -0.049 A 
ATOM     10  C13 BI5 d   1      52.663  36.689 -24.065  0.00  0.00    -0.065 A 
ENDROOT
BRANCH   5  11
ATOM     11  C7  BI5 d   1      51.702  36.475 -26.412  0.00  0.00     0.251 C 
ATOM     12  N2  BI5 d   1      50.935  37.541 -26.192  0.00  0.00    -0.351 N 
ATOM     13  H7  BI5 d   1      50.697  37.837 -25.267  0.00  0.00     0.163 HD
ATOM     14  O2  BI5 d   1      51.741  35.963 -27.534  0.00  0.00    -0.268 OA
BRANCH  12  15
ATOM     15  C6  BI5 d   1      50.455  38.262 -27.384  0.00  0.00     0.035 C 
ATOM     16  H5  BI5 d   1      50.298  37.536 -28.195  0.00  0.00     0.073 H 
ATOM     17  H6  BI5 d   1      49.500  38.750 -27.140  0.00  0.00     0.073 H 
BRANCH  15  18
ATOM     18  C1  BI5 d   1      51.428  39.313 -27.857  0.00  0.00     0.051 A 
ATOM     19  N1  BI5 d   1      52.189  39.050 -29.019  0.00  0.00    -0.264 NA
ATOM     20  C5  BI5 d   1      53.106  40.004 -29.524  0.00  0.00     0.003 A 
ATOM     21  H4  BI5 d   1      53.681  39.794 -30.419  0.00  0.00     0.114 H 
ATOM     22  C4  BI5 d   1      53.266  41.270 -28.826  0.00  0.00    -0.066 A 
ATOM     23  H3  BI5 d   1      53.969  42.008 -29.196  0.00  0.00     0.085 H 
ATOM     24  C3  BI5 d   1      52.483  41.546 -27.631  0.00  0.00    -0.080 A 
ATOM     25  H2  BI5 d   1      52.603  42.493 -27.117  0.00  0.00     0.083 H 
ATOM     26  C2  BI5 d   1      51.541  40.562 -27.121  0.00  0.00    -0.058 A 
ATOM     27  H1  BI5 d   1      50.950  40.751 -26.232  0.00  0.00     0.086 H 
ENDBRANCH  15  18
ENDBRANCH  12  15
ENDBRANCH   5  11
BRANCH   8  28
ATOM     28  O1  BI5 d   1      54.538  34.311 -21.980  0.00  0.00    -0.311 OA
BRANCH  28  29
ATOM     29  C14 BI5 d   1      55.035  33.072 -22.018  0.00  0.00     0.076 A 
ATOM     30  C15 BI5 d   1      54.181  32.017 -21.501  0.00  0.00    -0.050 A 
ATOM     31  H12 BI5 d   1      53.180  32.227 -21.142  0.00  0.00     0.087 H 
ATOM     32  C16 BI5 d   1      54.724  30.668 -21.484  0.00  0.00    -0.080 A 
ATOM     33  H13 BI5 d   1      54.126  29.848 -21.104  0.00  0.00     0.083 H 
ATOM     34  C17 BI5 d   1      56.071  30.420 -21.978  0.00  0.00    -0.083 A 
ATOM     35  H14 BI5 d   1      56.459  29.408 -21.951  0.00  0.00     0.083 H 
ATOM     36  C18 BI5 d   1      56.916  31.482 -22.507  0.00  0.00    -0.080 A 
ATOM     37  H15 BI5 d   1      57.914  31.271 -22.874  0.00  0.00     0.083 H 
ATOM     38  C19 BI5 d   1      56.379  32.836 -22.528  0.00  0.00    -0.050 A 
ATOM     39  H16 BI5 d   1      56.971  33.656 -22.918  0.00  0.00     0.087 H 
ENDBRANCH  28  29
ENDBRANCH   8  28
TORSDOF 5
