REMARK  16 active torsions:
REMARK  status: ('A' for Active; 'I' for Inactive)
REMARK    1  A    between atoms: N1_3  and  C4_5 
REMARK    2  A    between atoms: C5_8  and  C6_9 
REMARK    3  A    between atoms: C5_8  and  O3_15 
REMARK    4  A    between atoms: C7_10  and  C8_11 
REMARK    5  A    between atoms: C8_11  and  C11_14 
REMARK    6  A    between atoms: C9_12  and  C10_13 
REMARK    7  A    between atoms: C10_13  and  C13_18 
REMARK    8  A    between atoms: C10_13  and  C14_19 
REMARK    9  A    between atoms: C16_21  and  C18_24 
REMARK   10  A    between atoms: C19_25  and  C29_39 
REMARK   11  A    between atoms: C20_26  and  C21_27 
REMARK   12  A    between atoms: C21_27  and  C22_28 
REMARK   13  A    between atoms: C21_27  and  C23_29 
REMARK       I    between atoms: C22_28  and  N2_30 
REMARK   14  A    between atoms: N2_30  and  C24_32 
REMARK   15  A    between atoms: C25_33  and  C27_36 
REMARK   16  A    between atoms: C26_34  and  O7_35 
ROOT
ATOM      1  C1  STD d   1     -27.594 -44.534 -22.329  0.00  0.00     0.113 C 
ATOM      2  C2  STD d   1     -26.914 -43.292 -22.551  0.00  0.00     0.263 C 
ATOM      3  N1  STD d   1     -26.177 -43.394 -23.759  0.00  0.00    -0.308 N 
ATOM      4  C3  STD d   1     -27.159 -45.371 -23.435  0.00  0.00     0.191 C 
ATOM      5  O1  STD d   1     -27.745 -46.431 -23.795  0.00  0.00    -0.290 OA
ATOM      6  O2  STD d   1     -26.995 -42.247 -21.900  0.00  0.00    -0.267 OA
ATOM      7  C5  STD d   1     -28.516 -44.835 -21.361  0.00  0.00     0.085 C 
ATOM      8  C20 STD d   1     -25.912 -44.810 -24.117  0.00  0.00     0.091 C 
ATOM      9  H23 STD d   1     -25.863 -45.051 -25.189  0.00  0.00     0.087 H 
ENDROOT
BRANCH   7  10
ATOM     10  C6  STD d   1     -28.944 -43.924 -20.342  0.00  0.00    -0.049 C 
ATOM     11  C7  STD d   1     -29.840 -44.235 -19.424  0.00  0.00    -0.075 C 
ATOM     12  H3  STD d   1     -30.313 -45.214 -19.482  0.00  0.00     0.084 H 
ATOM     13  H2  STD d   1     -28.509 -42.926 -20.324  0.00  0.00     0.087 H 
BRANCH  11  14
ATOM     14  C8  STD d   1     -30.225 -43.370 -18.364  0.00  0.00    -0.065 C 
ATOM     15  C9  STD d   1     -31.062 -43.874 -17.489  0.00  0.00    -0.091 C 
ATOM     16  H4  STD d   1     -31.470 -44.862 -17.696  0.00  0.00     0.078 H 
BRANCH  15  17
ATOM     17  C10 STD d   1     -31.491 -43.209 -16.253  0.00  0.00    -0.015 C 
ATOM     18  H5  STD d   1     -31.726 -42.159 -16.482  0.00  0.00     0.049 H 
BRANCH  17  19
ATOM     19  C13 STD d   1     -30.344 -43.217 -15.172  0.00  0.00     0.054 C 
ATOM     20  C16 STD d   1     -29.993 -44.627 -14.479  0.00  0.00    -0.003 C 
ATOM     21  C17 STD d   1     -29.066 -44.382 -13.231  0.00  0.00     0.064 C 
ATOM     22  H18 STD d   1     -30.937 -45.078 -14.139  0.00  0.00     0.047 H 
ATOM     23  O8  STD d   1     -29.784 -43.481 -12.326  0.00  0.00    -0.343 OA
ATOM     24  C30 STD d   1     -27.697 -43.775 -13.572  0.00  0.00    -0.076 C 
ATOM     25  H19 STD d   1     -28.896 -45.346 -12.729  0.00  0.00     0.090 H 
ATOM     26  C19 STD d   1     -30.003 -42.171 -12.940  0.00  0.00     0.198 C 
ATOM     27  O5  STD d   1     -30.821 -42.323 -14.147  0.00  0.00    -0.346 OA
ATOM     28  C28 STD d   1     -28.611 -41.456 -13.200  0.00  0.00     0.155 A 
ATOM     29  C31 STD d   1     -28.768 -40.205 -14.015  0.00  0.00     0.058 A 
ATOM     30  C32 STD d   1     -27.490 -42.445 -13.543  0.00  0.00    -0.064 C 
ATOM     31  O9  STD d   1     -28.162 -40.237 -12.729  0.00  0.00    -0.365 OA
ATOM     32  H42 STD d   1     -29.759 -39.749 -14.156  0.00  0.00     0.079 H 
ATOM     33  H43 STD d   1     -28.159 -40.044 -14.917  0.00  0.00     0.079 H 
ATOM     34  H44 STD d   1     -26.497 -42.060 -13.770  0.00  0.00     0.081 H 
ATOM     35  H41 STD d   1     -26.875 -44.436 -13.844  0.00  0.00     0.080 H 
ATOM     36  H12 STD d   1     -29.424 -42.826 -15.630  0.00  0.00     0.085 H 
BRANCH  20  37
ATOM     37  C18 STD d   1     -29.287 -45.645 -15.422  0.00  0.00    -0.068 C 
ATOM     38  H20 STD d   1     -29.921 -45.830 -16.302  0.00  0.00     0.028 H 
ATOM     39  H21 STD d   1     -29.122 -46.590 -14.884  0.00  0.00     0.028 H 
ATOM     40  H22 STD d   1     -28.320 -45.234 -15.746  0.00  0.00     0.028 H 
ENDBRANCH  20  37
BRANCH  26  41
ATOM     41  C29 STD d   1     -30.831 -41.304 -11.979  0.00  0.00    -0.022 C 
ATOM     42  H38 STD d   1     -31.002 -40.316 -12.431  0.00  0.00     0.035 H 
ATOM     43  H39 STD d   1     -30.286 -41.184 -11.031  0.00  0.00     0.035 H 
ATOM     44  H40 STD d   1     -31.798 -41.791 -11.787  0.00  0.00     0.035 H 
ENDBRANCH  26  41
ENDBRANCH  17  19
BRANCH  17  45
ATOM     45  C14 STD d   1     -32.791 -43.904 -15.765  0.00  0.00    -0.067 C 
ATOM     46  H13 STD d   1     -33.549 -43.865 -16.561  0.00  0.00     0.028 H 
ATOM     47  H14 STD d   1     -33.171 -43.386 -14.872  0.00  0.00     0.028 H 
ATOM     48  H15 STD d   1     -32.575 -44.953 -15.516  0.00  0.00     0.028 H 
ENDBRANCH  17  45
ENDBRANCH  15  17
BRANCH  14  49
ATOM     49  C11 STD d   1     -29.621 -41.963 -18.281  0.00  0.00    -0.051 C 
ATOM     50  H6  STD d   1     -28.954 -41.799 -19.140  0.00  0.00     0.033 H 
ATOM     51  H7  STD d   1     -29.047 -41.865 -17.348  0.00  0.00     0.033 H 
ATOM     52  H8  STD d   1     -30.428 -41.216 -18.295  0.00  0.00     0.033 H 
ENDBRANCH  14  49
ENDBRANCH  11  14
ENDBRANCH   7  10
BRANCH   7  53
ATOM     53  O3  STD d   1     -29.089 -46.096 -21.331  0.00  0.00    -0.360 OA
ATOM     54  H9  STD d   1     -28.740 -46.618 -22.044  0.00  0.00     0.217 HD
ENDBRANCH   7  53
BRANCH   3  55
ATOM     55  C4  STD d   1     -25.850 -42.234 -24.514  0.00  0.00     0.109 C 
ATOM     56  O4  STD d   1     -27.085 -41.495 -24.682  0.00  0.00    -0.359 OA
ATOM     57  C25 STD d   1     -26.927 -40.240 -25.389  0.00  0.00     0.062 C 
ATOM     58  C26 STD d   1     -25.852 -39.341 -24.610  0.00  0.00     0.060 C 
ATOM     59  H32 STD d   1     -26.538 -40.445 -26.397  0.00  0.00     0.086 H 
ATOM     60  C15 STD d   1     -24.497 -40.130 -24.556  0.00  0.00    -0.035 C 
ATOM     61  H33 STD d   1     -25.715 -38.385 -25.136  0.00  0.00     0.086 H 
ATOM     62  C12 STD d   1     -24.709 -41.438 -23.791  0.00  0.00    -0.022 C 
ATOM     63  H16 STD d   1     -24.159 -40.352 -25.579  0.00  0.00     0.037 H 
ATOM     64  H17 STD d   1     -23.737 -39.522 -24.043  0.00  0.00     0.037 H 
ATOM     65  H10 STD d   1     -23.781 -42.028 -23.794  0.00  0.00     0.039 H 
ATOM     66  H11 STD d   1     -25.003 -41.222 -22.753  0.00  0.00     0.039 H 
ATOM     67  H1  STD d   1     -25.480 -42.531 -25.506  0.00  0.00     0.118 H 
BRANCH  57  68
ATOM     68  C27 STD d   1     -28.318 -39.545 -25.539  0.00  0.00    -0.050 C 
ATOM     69  H35 STD d   1     -28.196 -38.593 -26.076  0.00  0.00     0.031 H 
ATOM     70  H36 STD d   1     -28.741 -39.352 -24.542  0.00  0.00     0.031 H 
ATOM     71  H37 STD d   1     -28.996 -40.200 -26.105  0.00  0.00     0.031 H 
ENDBRANCH  57  68
BRANCH  58  72
ATOM     72  O7  STD d   1     -26.289 -39.094 -23.239  0.00  0.00    -0.393 OA
ATOM     73  H34 STD d   1     -26.386 -39.923 -22.785  0.00  0.00     0.210 HD
ENDBRANCH  58  72
ENDBRANCH   3  55
BRANCH   8  74
ATOM     74  C21 STD d   1     -24.539 -45.030 -23.401  0.00  0.00     0.047 C 
ATOM     75  H24 STD d   1     -24.444 -44.151 -22.747  0.00  0.00     0.058 H 
BRANCH  74  76
ATOM     76  C22 STD d   1     -24.353 -46.200 -22.474  0.00  0.00     0.223 C 
ATOM     77  N2  STD d   1     -24.172 -45.804 -21.147  0.00  0.00    -0.365 N 
ATOM     78  H28 STD d   1     -24.200 -44.828 -20.929  0.00  0.00     0.161 HD
ATOM     79  O6  STD d   1     -24.358 -47.396 -22.808  0.00  0.00    -0.273 OA
BRANCH  77  80
ATOM     80  C24 STD d   1     -23.943 -46.762 -20.060  0.00  0.00    -0.018 C 
ATOM     81  H29 STD d   1     -23.830 -46.219 -19.110  0.00  0.00     0.056 H 
ATOM     82  H30 STD d   1     -23.028 -47.337 -20.265  0.00  0.00     0.056 H 
ATOM     83  H31 STD d   1     -24.799 -47.449 -19.990  0.00  0.00     0.056 H 
ENDBRANCH  77  80
ENDBRANCH  74  76
BRANCH  74  84
ATOM     84  C23 STD d   1     -23.336 -44.951 -24.392  0.00  0.00    -0.062 C 
ATOM     85  H25 STD d   1     -22.397 -45.112 -23.842  0.00  0.00     0.028 H 
ATOM     86  H26 STD d   1     -23.317 -43.959 -24.868  0.00  0.00     0.028 H 
ATOM     87  H27 STD d   1     -23.446 -45.726 -25.165  0.00  0.00     0.028 H 
ENDBRANCH  74  84
ENDBRANCH   8  74
TORSDOF 16
