REMARK  9 active torsions:
REMARK  status: ('A' for Active; 'I' for Inactive)
REMARK    1  A    between atoms: N1_3  and  O1_1 
REMARK       I    between atoms: N1_3  and  C1_4 
REMARK    2  A    between atoms: C1_4  and  C2_5 
REMARK    3  A    between atoms: C2_5  and  C3_6 
REMARK    4  A    between atoms: C3_6  and  C4_7 
REMARK    5  A    between atoms: C4_7  and  C5_8 
REMARK    6  A    between atoms: C5_8  and  C6_9 
REMARK    7  A    between atoms: C6_9  and  C7_10 
REMARK    8  A    between atoms: C7_10  and  C8_11 
REMARK       I    between atoms: C8_11  and  N2_13 
REMARK    9  A    between atoms: N2_13  and  C9_14 
ROOT
ATOM      1  C6  SHH d   1      -5.624 -10.357  37.639  0.00  0.00    -0.057 C 
ATOM      2  H11 SHH d   1      -4.739  -9.993  37.097  0.00  0.00     0.033 H 
ATOM      3  H12 SHH d   1      -6.056  -9.535  38.229  0.00  0.00     0.033 H 
ENDROOT
BRANCH   1   4
ATOM      4  C5  SHH d   1      -5.184 -11.468  38.600  0.00  0.00    -0.065 C 
ATOM      5  H9  SHH d   1      -6.074 -11.859  39.115  0.00  0.00     0.033 H 
ATOM      6  H10 SHH d   1      -4.716 -12.273  38.014  0.00  0.00     0.033 H 
BRANCH   4   7
ATOM      7  C4  SHH d   1      -4.180 -10.985  39.657  0.00  0.00    -0.065 C 
ATOM      8  H7  SHH d   1      -3.192 -10.929  39.176  0.00  0.00     0.033 H 
ATOM      9  H8  SHH d   1      -4.491  -9.979  39.975  0.00  0.00     0.033 H 
BRANCH   7  10
ATOM     10  C3  SHH d   1      -4.033 -11.848  40.921  0.00  0.00    -0.057 C 
ATOM     11  H5  SHH d   1      -3.203 -11.445  41.519  0.00  0.00     0.033 H 
ATOM     12  H6  SHH d   1      -4.968 -11.777  41.497  0.00  0.00     0.033 H 
BRANCH  10  13
ATOM     13  C2  SHH d   1      -3.752 -13.320  40.646  0.00  0.00     0.011 C 
ATOM     14  H3  SHH d   1      -4.635 -13.748  40.148  0.00  0.00     0.047 H 
ATOM     15  H4  SHH d   1      -2.885 -13.381  39.971  0.00  0.00     0.047 H 
BRANCH  13  16
ATOM     16  C1  SHH d   1      -3.450 -14.166  41.880  0.00  0.00     0.240 C 
ATOM     17  O2  SHH d   1      -2.341 -14.518  42.258  0.00  0.00    -0.271 OA
ATOM     18  N1  SHH d   1      -4.466 -14.582  42.538  0.00  0.00    -0.237 N 
ATOM     19  H2  SHH d   1      -5.286 -14.931  42.084  0.00  0.00     0.197 HD
BRANCH  18  20
ATOM     20  O1  SHH d   1      -4.360 -14.519  43.931  0.00  0.00    -0.287 OA
ATOM     21  H1  SHH d   1      -3.625 -15.049  44.216  0.00  0.00     0.244 HD
ENDBRANCH  18  20
ENDBRANCH  13  16
ENDBRANCH  10  13
ENDBRANCH   7  10
ENDBRANCH   4   7
ENDBRANCH   1   4
BRANCH   1  22
ATOM     22  C7  SHH d   1      -6.664 -10.818  36.616  0.00  0.00     0.010 C 
ATOM     23  H13 SHH d   1      -7.462 -11.379  37.125  0.00  0.00     0.047 H 
ATOM     24  H14 SHH d   1      -6.185 -11.463  35.864  0.00  0.00     0.047 H 
BRANCH  22  25
ATOM     25  C8  SHH d   1      -7.251  -9.592  35.940  0.00  0.00     0.222 C 
ATOM     26  O3  SHH d   1      -6.529  -8.803  35.340  0.00  0.00    -0.273 OA
ATOM     27  N2  SHH d   1      -8.572  -9.434  36.048  0.00  0.00    -0.327 N 
ATOM     28  H15 SHH d   1      -9.093 -10.143  36.523  0.00  0.00     0.169 HD
BRANCH  27  29
ATOM     29  C9  SHH d   1      -9.250  -8.367  35.551  0.00  0.00     0.034 A 
ATOM     30  C10 SHH d   1     -10.439  -8.597  34.864  0.00  0.00    -0.057 A 
ATOM     31  C11 SHH d   1     -11.167  -7.528  34.346  0.00  0.00    -0.081 A 
ATOM     32  H16 SHH d   1     -10.799  -9.611  34.732  0.00  0.00     0.086 H 
ATOM     33  C12 SHH d   1     -10.705  -6.220  34.516  0.00  0.00    -0.083 A 
ATOM     34  H17 SHH d   1     -12.092  -7.711  33.811  0.00  0.00     0.083 H 
ATOM     35  C13 SHH d   1      -9.514  -5.978  35.205  0.00  0.00    -0.081 A 
ATOM     36  H18 SHH d   1     -11.273  -5.390  34.112  0.00  0.00     0.083 H 
ATOM     37  C14 SHH d   1      -8.788  -7.056  35.722  0.00  0.00    -0.057 A 
ATOM     38  H19 SHH d   1      -9.156  -4.964  35.338  0.00  0.00     0.083 H 
ATOM     39  H20 SHH d   1      -7.863  -6.876  36.258  0.00  0.00     0.086 H 
ENDBRANCH  27  29
ENDBRANCH  22  25
ENDBRANCH   1  22
TORSDOF 9
