REMARK  9 active torsions:
REMARK  status: ('A' for Active; 'I' for Inactive)
REMARK    1  A    between atoms: C5_5  and  C8_8 
REMARK    2  A    between atoms: C6_6  and  O7_7 
REMARK    3  A    between atoms: C8_8  and  N9_9 
REMARK    4  A    between atoms: N9_9  and  C10_10 
REMARK    5  A    between atoms: N13_13  and  S16_16 
REMARK    6  A    between atoms: S16_16  and  N17_17 
REMARK    7  A    between atoms: N17_17  and  C20_20 
REMARK    8  A    between atoms: C22_22  and  O26_26 
REMARK    9  A    between atoms: O26_26  and  C27_27 
ROOT
ATOM      1  C10 B11 d   1      31.076  72.783  20.338  0.00  0.00     0.105 C 
ATOM      2  C11 B11 d   1      30.855  74.258  20.003  0.00  0.00    -0.023 C 
ATOM      3  C12 B11 d   1      31.441  75.192  21.046  0.00  0.00     0.008 C 
ATOM      4  N13 B11 d   1      32.876  74.902  21.254  0.00  0.00    -0.294 N 
ATOM      5  C14 B11 d   1      33.174  73.496  21.598  0.00  0.00     0.008 C 
ATOM      6  C15 B11 d   1      32.568  72.537  20.582  0.00  0.00    -0.023 C 
ATOM      7  H10 B11 d   1      30.492  72.501  21.227  0.00  0.00     0.084 H 
ATOM      8  H11 B11 d   1      29.773  74.444  19.933  0.00  0.00     0.038 H 
ATOM      9  H12 B11 d   1      31.328  74.473  19.033  0.00  0.00     0.038 H 
ATOM     10  H13 B11 d   1      30.903  75.057  21.996  0.00  0.00     0.065 H 
ATOM     11  H14 B11 d   1      31.328  76.232  20.705  0.00  0.00     0.065 H 
ATOM     12  H15 B11 d   1      32.758  73.275  22.592  0.00  0.00     0.065 H 
ATOM     13  H16 B11 d   1      34.265  73.355  21.617  0.00  0.00     0.065 H 
ATOM     14  H17 B11 d   1      33.103  72.654  19.628  0.00  0.00     0.038 H 
ATOM     15  H18 B11 d   1      32.697  71.509  20.951  0.00  0.00     0.038 H 
ENDROOT
BRANCH   4  16
ATOM     16  S16 B11 d   1      33.760  76.126  22.196  0.00  0.00     0.321 S 
ATOM     17  O18 B11 d   1      32.959  76.246  23.724  0.00  0.00    -0.182 OA
ATOM     18  O19 B11 d   1      35.371  75.541  22.323  0.00  0.00    -0.182 OA
BRANCH  16  19
ATOM     19  N17 B11 d   1      33.749  77.691  21.449  0.00  0.00    -0.268 N 
ATOM     20  H19 B11 d   1      33.477  78.493  21.980  0.00  0.00     0.180 HD
BRANCH  19  21
ATOM     21  C20 B11 d   1      34.122  77.840  20.096  0.00  0.00     0.046 A 
ATOM     22  C21 B11 d   1      34.638  76.760  19.266  0.00  0.00    -0.024 A 
ATOM     23  C22 B11 d   1      35.016  77.105  17.904  0.00  0.00     0.078 A 
ATOM     24  H20 B11 d   1      34.736  75.749  19.644  0.00  0.00     0.091 H 
ATOM     25  C23 B11 d   1      34.854  78.465  17.413  0.00  0.00    -0.050 A 
ATOM     26  C24 B11 d   1      34.335  79.519  18.263  0.00  0.00    -0.078 A 
ATOM     27  H21 B11 d   1      35.127  78.695  16.390  0.00  0.00     0.087 H 
ATOM     28  C25 B11 d   1      33.970  79.205  19.633  0.00  0.00    -0.056 A 
ATOM     29  H22 B11 d   1      34.221  80.527  17.881  0.00  0.00     0.083 H 
ATOM     30  H23 B11 d   1      33.592  79.975  20.295  0.00  0.00     0.086 H 
BRANCH  23  31
ATOM     31  O26 B11 d   1      35.588  76.175  17.127  0.00  0.00    -0.311 OA
BRANCH  31  32
ATOM     32  C27 B11 d   1      36.266  76.492  16.017  0.00  0.00     0.076 A 
ATOM     33  C28 B11 d   1      35.711  76.000  14.767  0.00  0.00    -0.047 A 
ATOM     34  C29 B11 d   1      36.403  76.357  13.538  0.00  0.00    -0.043 A 
ATOM     35  H24 B11 d   1      34.815  75.390  14.751  0.00  0.00     0.087 H 
ATOM     36  C30 B11 d   1      37.605  77.176  13.575  0.00  0.00     0.116 A 
ATOM     37  H25 B11 d   1      36.019  76.010  12.586  0.00  0.00     0.088 H 
ATOM     38  C31 B11 d   1      38.148  77.646  14.846  0.00  0.00    -0.043 A 
ATOM     39  F1  B11 d   1      38.237  77.590  12.292  0.00  0.00    -0.206 F 
ATOM     40  C32 B11 d   1      37.474  77.305  16.091  0.00  0.00    -0.047 A 
ATOM     41  H26 B11 d   1      39.050  78.247  14.863  0.00  0.00     0.088 H 
ATOM     42  H27 B11 d   1      37.859  77.646  17.045  0.00  0.00     0.087 H 
ENDBRANCH  31  32
ENDBRANCH  23  31
ENDBRANCH  19  21
ENDBRANCH  16  19
ENDBRANCH   4  16
BRANCH   1  43
ATOM     43  N9  B11 d   1      30.664  71.983  19.174  0.00  0.00    -0.067 N 
ATOM     44  H8  B11 d   1      29.705  72.217  18.969  0.00  0.00     0.277 HD
ATOM     45  H9  B11 d   1      31.249  72.253  18.398  0.00  0.00     0.277 HD
BRANCH  43  46
ATOM     46  C8  B11 d   1      30.745  70.521  19.301  0.00  0.00     0.108 C 
ATOM     47  H6  B11 d   1      31.745  70.255  19.674  0.00  0.00     0.083 H 
ATOM     48  H7  B11 d   1      29.984  70.188  20.022  0.00  0.00     0.083 H 
BRANCH  46  49
ATOM     49  C5  B11 d   1      30.513  69.808  17.990  0.00  0.00     0.000 A 
ATOM     50  C4  B11 d   1      31.602  69.505  17.075  0.00  0.00    -0.073 A 
ATOM     51  C3  B11 d   1      31.283  68.713  15.898  0.00  0.00    -0.082 A 
ATOM     52  H4  B11 d   1      32.611  69.855  17.263  0.00  0.00     0.084 H 
ATOM     53  C2  B11 d   1      29.920  68.244  15.658  0.00  0.00    -0.080 A 
ATOM     54  H3  B11 d   1      32.066  68.467  15.190  0.00  0.00     0.083 H 
ATOM     55  C1  B11 d   1      28.839  68.568  16.579  0.00  0.00    -0.050 A 
ATOM     56  H2  B11 d   1      29.710  67.645  14.780  0.00  0.00     0.083 H 
ATOM     57  C6  B11 d   1      29.150  69.364  17.755  0.00  0.00     0.073 A 
ATOM     58  H1  B11 d   1      27.828  68.224  16.392  0.00  0.00     0.087 H 
BRANCH  57  59
ATOM     59  O7  B11 d   1      28.297  69.730  18.573  0.00  0.00    -0.360 OA
ATOM     60  H5  B11 d   1      27.449  69.383  18.321  0.00  0.00     0.217 HD
ENDBRANCH  57  59
ENDBRANCH  46  49
ENDBRANCH  43  46
ENDBRANCH   1  43
TORSDOF 9
