REMARK  3 active torsions:
REMARK  status: ('A' for Active; 'I' for Inactive)
REMARK    1  A    between atoms: CAK_5  and  CAH_6 
REMARK    2  A    between atoms: CAH_6  and  CAE_7 
REMARK    3  A    between atoms: CAE_7  and  CAJ_8 
REMARK       I    between atoms: CAJ_8  and  NAI_10 
ROOT
ATOM      1  CAF 3YP d   1      -5.534 -11.838  38.652  0.00  0.00    -0.062 C 
ATOM      2  CAC 3YP d   1      -5.513 -10.475  37.963  0.00  0.00    -0.065 C 
ATOM      3  CAD 3YP d   1      -4.078 -10.043  38.276  0.00  0.00    -0.065 C 
ATOM      4  CAG 3YP d   1      -3.962 -10.336  39.780  0.00  0.00    -0.062 C 
ATOM      5  CAK 3YP d   1      -4.855 -11.567  40.021  0.00  0.00    -0.054 C 
ATOM      6  H1  3YP d   1      -4.965 -12.580  38.072  0.00  0.00     0.033 H 
ATOM      7  H2  3YP d   1      -6.566 -12.193  38.789  0.00  0.00     0.033 H 
ATOM      8  H3  3YP d   1      -6.251  -9.786  38.398  0.00  0.00     0.033 H 
ATOM      9  H4  3YP d   1      -5.686 -10.562  36.880  0.00  0.00     0.033 H 
ATOM     10  H5  3YP d   1      -3.931  -8.973  38.067  0.00  0.00     0.033 H 
ATOM     11  H6  3YP d   1      -3.351 -10.633  37.699  0.00  0.00     0.033 H 
ATOM     12  H7  3YP d   1      -4.320  -9.479  40.369  0.00  0.00     0.033 H 
ATOM     13  H8  3YP d   1      -2.919 -10.557  40.051  0.00  0.00     0.033 H 
ATOM     14  H9  3YP d   1      -5.617 -11.367  40.789  0.00  0.00     0.040 H 
ENDROOT
BRANCH   5  15
ATOM     15  CAH 3YP d   1      -3.939 -12.712  40.486  0.00  0.00    -0.054 C 
ATOM     16  H10 3YP d   1      -3.479 -12.398  41.434  0.00  0.00     0.034 H 
ATOM     17  H11 3YP d   1      -3.157 -12.835  39.722  0.00  0.00     0.034 H 
BRANCH  15  18
ATOM     18  CAE 3YP d   1      -4.562 -14.077  40.718  0.00  0.00     0.014 C 
ATOM     19  H12 3YP d   1      -4.273 -14.772  39.916  0.00  0.00     0.047 H 
ATOM     20  H13 3YP d   1      -5.658 -13.997  40.757  0.00  0.00     0.047 H 
BRANCH  18  21
ATOM     21  CAJ 3YP d   1      -4.029 -14.544  42.026  0.00  0.00     0.269 C 
ATOM     22  OAA 3YP d   1      -2.860 -14.820  42.238  0.00  0.00    -0.269 OA
ATOM     23  NAI 3YP d   1      -4.730 -14.348  42.902  0.00  0.00    -0.059 NA
ATOM     24  OAB 3YP d   1      -4.407 -14.612  44.153  0.00  0.00    -0.058 OA
ENDBRANCH  18  21
ENDBRANCH  15  18
ENDBRANCH   5  15
TORSDOF 3
