REMARK  5 active torsions:
REMARK  status: ('A' for Active; 'I' for Inactive)
REMARK    1  A    between atoms: C17_20  and  C21_4 
REMARK    2  A    between atoms: C21_4  and  C24_21 
REMARK    3  A    between atoms: C21_4  and  C23_22 
REMARK    4  A    between atoms: C2_14  and  C5_13 
REMARK    5  A    between atoms: C3_18  and  C1_17 
ROOT
ATOM      1  C7  TZY d   1       0.632  11.597  30.679  0.00  0.00     0.001 A 
ATOM      2  C13 TZY d   1       2.295   9.604  31.656  0.00  0.00    -0.035 A 
ATOM      3  C8  TZY d   1       2.801  10.848  31.405  0.00  0.00    -0.065 A 
ATOM      4  C16 TZY d   1       0.904   9.344  31.415  0.00  0.00     0.157 A 
ATOM      5  C3  TZY d   1       1.975  11.857  30.873  0.00  0.00     0.016 A 
ATOM      6  N12 TZY d   1       0.092  10.360  30.942  0.00  0.00    -0.290 N 
ATOM      7  C17 TZY d   1      -1.158   9.821  30.811  0.00  0.00     0.138 A 
ATOM      8  N19 TZY d   1       0.140   8.260  31.555  0.00  0.00    -0.130 NA
ATOM      9  N20 TZY d   1      -1.090   8.558  31.227  0.00  0.00    -0.134 NA
ATOM     10  H1  TZY d   1      -0.015  12.391  30.309  0.00  0.00     0.113 H 
ATOM     11  H3  TZY d   1       2.942   8.815  32.036  0.00  0.00     0.089 H 
ATOM     12  H5  TZY d   1       3.848  11.060  31.617  0.00  0.00     0.085 H 
ENDROOT
BRANCH   5  13
ATOM     13  C1  TZY d   1       2.444  13.223  30.659  0.00  0.00     0.118 A 
ATOM     14  C2  TZY d   1       3.730  13.738  30.532  0.00  0.00     0.103 A 
ATOM     15  N6  TZY d   1       3.588  15.077  30.420  0.00  0.00    -0.233 NA
ATOM     16  C9  TZY d   1       2.329  15.362  30.486  0.00  0.00     0.104 A 
ATOM     17  O4  TZY d   1       1.580  14.265  30.658  0.00  0.00    -0.301 OA
ATOM     18  H2  TZY d   1       1.926  16.371  30.411  0.00  0.00     0.155 H 
BRANCH  14  19
ATOM     19  C5  TZY d   1       5.030  12.974  30.497  0.00  0.00    -0.004 A 
ATOM     20  C11 TZY d   1       5.957  13.194  31.528  0.00  0.00    -0.068 A 
ATOM     21  C15 TZY d   1       7.173  12.506  31.519  0.00  0.00    -0.045 A 
ATOM     22  H7  TZY d   1       5.731  13.893  32.325  0.00  0.00     0.085 H 
ATOM     23  C18 TZY d   1       7.464  11.619  30.489  0.00  0.00     0.116 A 
ATOM     24  H6  TZY d   1       7.890  12.664  32.316  0.00  0.00     0.088 H 
ATOM     25  F22 TZY d   1       8.635  10.960  30.558  0.00  0.00    -0.206 F 
ATOM     26  C14 TZY d   1       6.553  11.372  29.463  0.00  0.00    -0.045 A 
ATOM     27  C10 TZY d   1       5.330  12.064  29.451  0.00  0.00    -0.068 A 
ATOM     28  H8  TZY d   1       6.785  10.655  28.684  0.00  0.00     0.088 H 
ATOM     29  H9  TZY d   1       4.620  11.903  28.648  0.00  0.00     0.085 H 
ENDBRANCH  14  19
ENDBRANCH   5  13
BRANCH   7  30
ATOM     30  C21 TZY d   1      -2.385  10.579  30.324  0.00  0.00    -0.001 C 
ATOM     31  H4  TZY d   1      -2.066  11.372  29.632  0.00  0.00     0.051 H 
BRANCH  30  32
ATOM     32  C24 TZY d   1      -3.074  11.207  31.549  0.00  0.00    -0.066 C 
ATOM     33  H10 TZY d   1      -3.966  11.762  31.223  0.00  0.00     0.028 H 
ATOM     34  H11 TZY d   1      -2.377  11.895  32.049  0.00  0.00     0.028 H 
ATOM     35  H12 TZY d   1      -3.372  10.413  32.249  0.00  0.00     0.028 H 
ENDBRANCH  30  32
BRANCH  30  36
ATOM     36  C23 TZY d   1      -3.380   9.664  29.603  0.00  0.00    -0.066 C 
ATOM     37  H13 TZY d   1      -2.893   9.212  28.726  0.00  0.00     0.028 H 
ATOM     38  H14 TZY d   1      -4.250  10.253  29.277  0.00  0.00     0.028 H 
ATOM     39  H15 TZY d   1      -3.711   8.870  30.288  0.00  0.00     0.028 H 
ENDBRANCH  30  36
ENDBRANCH   7  30
TORSDOF 5
