REMARK  8 active torsions:
REMARK  status: ('A' for Active; 'I' for Inactive)
REMARK    1  A    between atoms: CA_2  and  N_1 
REMARK    2  A    between atoms: CA_9  and  N_8 
REMARK    3  A    between atoms: C_10  and  CA_9 
REMARK       I    between atoms: N_14  and  C_10 
REMARK    4  A    between atoms: C17_18  and  C2_12 
REMARK    5  A    between atoms: C15_15  and  N_14 
REMARK    6  A    between atoms: C15_15  and  C16_16 
REMARK    7  A    between atoms: C15_15  and  C17_18 
REMARK    8  A    between atoms: C16_16  and  O5_17 
REMARK       I    between atoms: NE_20  and  CZ_19 
REMARK       I    between atoms: CZ_19  and  NH1_24 
ROOT
ATOM      1  C15 0IV d   1      19.955   0.525  29.958  0.00  0.00     0.033 C 
ATOM      2  H17 0IV d   1      19.939   1.480  30.504  0.00  0.00     0.075 H 
ENDROOT
BRANCH   1   3
ATOM      3  N   0IV d   1      21.288   0.355  29.555  0.00  0.00    -0.353 N 
ATOM      4  C   0IV d   1      22.418   0.867  30.286  0.00  0.00     0.235 C 
ATOM      5  O   0IV d   1      22.147   1.332  31.433  0.00  0.00    -0.272 OA
ATOM      6  H16 0IV d   1      21.464  -0.151  28.711  0.00  0.00     0.163 HD
BRANCH   4   7
ATOM      7  CA  0IV d   1      23.702   0.053  29.947  0.00  0.00     0.071 C 
ATOM      8  H11 0IV d   1      23.835  -0.837  30.579  0.00  0.00     0.079 H 
ATOM      9  H12 0IV d   1      23.769  -0.236  28.888  0.00  0.00     0.079 H 
BRANCH   7  10
ATOM     10  N   0IV d   1      24.604   1.174  30.310  0.00  0.00    -0.342 N 
ATOM     11  C   0IV d   1      24.537   2.241  29.495  0.00  0.00     0.250 C 
ATOM     12  CA  0IV d   1      25.597   3.391  29.625  0.00  0.00     0.176 C 
ATOM     13  O   0IV d   1      23.776   2.382  28.531  0.00  0.00    -0.271 OA
ATOM     14  CB  0IV d   1      26.184   3.482  31.005  0.00  0.00    -0.029 C 
ATOM     15  H4  0IV d   1      26.418   3.115  28.947  0.00  0.00     0.099 H 
ATOM     16  CG  0IV d   1      26.432   2.154  31.672  0.00  0.00    -0.048 C 
ATOM     17  H5  0IV d   1      25.490   4.058  31.635  0.00  0.00     0.036 H 
ATOM     18  H6  0IV d   1      27.144   4.015  30.935  0.00  0.00     0.036 H 
ATOM     19  CD  0IV d   1      25.271   1.181  31.640  0.00  0.00    -0.002 C 
ATOM     20  H7  0IV d   1      26.684   2.346  32.725  0.00  0.00     0.035 H 
ATOM     21  H8  0IV d   1      27.287   1.677  31.171  0.00  0.00     0.035 H 
ATOM     22  H9  0IV d   1      24.538   1.473  32.406  0.00  0.00     0.064 H 
ATOM     23  H10 0IV d   1      25.645   0.170  31.858  0.00  0.00     0.064 H 
BRANCH  12  24
ATOM     24  N   0IV d   1      25.157   4.682  29.214  0.00  0.00    -0.067 N 
ATOM     25  H1  0IV d   1      25.905   5.346  29.335  0.00  0.00     0.275 HD
ATOM     26  H2  0IV d   1      24.366   4.961  29.773  0.00  0.00     0.275 HD
ATOM     27  H3  0IV d   1      24.889   4.652  28.243  0.00  0.00     0.275 HD
ENDBRANCH  12  24
ENDBRANCH   7  10
ENDBRANCH   4   7
ENDBRANCH   1   3
BRANCH   1  28
ATOM     28  C16 0IV d   1      19.452  -0.507  31.073  0.00  0.00     0.035 C 
ATOM     29  H18 0IV d   1      19.837  -0.173  32.048  0.00  0.00     0.077 H 
ATOM     30  H19 0IV d   1      19.867  -1.498  30.835  0.00  0.00     0.077 H 
BRANCH  28  31
ATOM     31  O5  0IV d   1      18.056  -0.629  31.172  0.00  0.00    -0.399 OA
ATOM     32  H20 0IV d   1      17.841  -1.256  31.852  0.00  0.00     0.209 HD
ENDBRANCH  28  31
ENDBRANCH   1  28
BRANCH   1  33
ATOM     33  C17 0IV d   1      19.195   0.804  28.765  0.00  0.00    -0.039 C 
ATOM     34  H21 0IV d   1      19.504   0.081  27.996  0.00  0.00     0.036 H 
ATOM     35  H22 0IV d   1      18.132   0.653  29.004  0.00  0.00     0.036 H 
BRANCH  33  36
ATOM     36  C2  0IV d   1      19.338   2.158  28.191  0.00  0.00    -0.036 C 
ATOM     37  C3  0IV d   1      20.124   2.085  26.865  0.00  0.00     0.015 C 
ATOM     38  NE  0IV d   1      20.277   3.413  26.375  0.00  0.00    -0.218 N 
ATOM     39  H14 0IV d   1      19.569   1.478  26.134  0.00  0.00     0.065 H 
ATOM     40  H15 0IV d   1      21.112   1.635  27.040  0.00  0.00     0.065 H 
ATOM     41  CZ  0IV d   1      19.990   3.754  25.054  0.00  0.00     0.667 C 
ATOM     42  CD  0IV d   1      20.979   4.378  27.320  0.00  0.00     0.012 C 
ATOM     43  NH1 0IV d   1      19.541   2.875  24.212  0.00  0.00    -0.235 N 
ATOM     44  NH2 0IV d   1      20.130   4.970  24.720  0.00  0.00    -0.235 N 
ATOM     45  H29 0IV d   1      19.336   3.150  23.241  0.00  0.00     0.174 HD
ATOM     46  H30 0IV d   1      19.390   1.902  24.515  0.00  0.00     0.174 HD
ATOM     47  H31 0IV d   1      20.488   5.654  25.402  0.00  0.00     0.174 HD
ATOM     48  H32 0IV d   1      19.886   5.274  23.767  0.00  0.00     0.174 HD
ATOM     49  CG  0IV d   1      20.191   4.532  28.619  0.00  0.00    -0.049 C 
ATOM     50  H23 0IV d   1      21.067   5.360  26.833  0.00  0.00     0.065 H 
ATOM     51  H24 0IV d   1      21.983   3.991  27.550  0.00  0.00     0.065 H 
ATOM     52  C1  0IV d   1      20.050   3.178  29.156  0.00  0.00    -0.059 C 
ATOM     53  H25 0IV d   1      19.202   4.971  28.419  0.00  0.00     0.035 H 
ATOM     54  H26 0IV d   1      20.739   5.171  29.327  0.00  0.00     0.035 H 
ATOM     55  H27 0IV d   1      21.055   2.792  29.381  0.00  0.00     0.033 H 
ATOM     56  H28 0IV d   1      19.464   3.237  30.085  0.00  0.00     0.033 H 
ATOM     57  H13 0IV d   1      18.328   2.541  27.980  0.00  0.00     0.042 H 
ENDBRANCH  33  36
ENDBRANCH   1  33
TORSDOF 8
