REMARK  0 active torsions:
REMARK  status: ('A' for Active; 'I' for Inactive)
ROOT
ATOM      1  C1  BNZ d   1      30.332   8.890   1.105  0.00  0.00    -0.083 A 
ATOM      2  C2  BNZ d   1      30.998  10.085   1.310  0.00  0.00    -0.083 A 
ATOM      3  C3  BNZ d   1      30.288  11.265   1.427  0.00  0.00    -0.083 A 
ATOM      4  C4  BNZ d   1      28.916  11.243   1.315  0.00  0.00    -0.083 A 
ATOM      5  C5  BNZ d   1      28.245  10.033   1.104  0.00  0.00    -0.083 A 
ATOM      6  C6  BNZ d   1      28.948   8.855   1.006  0.00  0.00    -0.083 A 
ATOM      7  H1  BNZ d   1      30.898   7.969   1.021  0.00  0.00     0.083 H 
ATOM      8  H2  BNZ d   1      32.080  10.096   1.379  0.00  0.00     0.083 H 
ATOM      9  H3  BNZ d   1      30.807  12.200   1.605  0.00  0.00     0.083 H 
ATOM     10  H4  BNZ d   1      28.353  12.166   1.391  0.00  0.00     0.083 H 
ATOM     11  H5  BNZ d   1      27.165  10.024   1.017  0.00  0.00     0.083 H 
ATOM     12  H6  BNZ d   1      28.430   7.915   0.854  0.00  0.00     0.083 H 
ENDROOT
TORSDOF 0
