REMARK  13 active torsions:
REMARK  status: ('A' for Active; 'I' for Inactive)
REMARK    1  A    between atoms: O27_1  and  C24_2 
REMARK    2  A    between atoms: C19_7  and  C18_8 
REMARK    3  A    between atoms: C18_8  and  N17_9 
REMARK    4  A    between atoms: N17_9  and  C4_10 
REMARK    5  A    between atoms: N7_15  and  C10_16 
REMARK    6  A    between atoms: C10_16  and  C12_17 
REMARK    7  A    between atoms: C10_16  and  C11_18 
REMARK    8  A    between atoms: C2_20  and  N13_22 
REMARK    9  A    between atoms: N13_22  and  C14_23 
REMARK   10  A    between atoms: C14_23  and  C25_24 
REMARK   11  A    between atoms: C14_23  and  C15_26 
REMARK   12  A    between atoms: C25_24  and  C26_25 
REMARK   13  A    between atoms: C15_26  and  O16_27 
ROOT
ATOM      1  C4  CK9 d   1       2.424   6.465  28.168  0.00  0.00     0.176 A 
ATOM      2  C5  CK9 d   1       1.515   5.407  28.298  0.00  0.00     0.151 A 
ATOM      3  N9  CK9 d   1       1.498   4.212  28.917  0.00  0.00    -0.236 NA
ATOM      4  C8  CK9 d   1       0.369   3.607  28.634  0.00  0.00     0.069 A 
ATOM      5  C6  CK9 d   1       0.265   5.538  27.584  0.00  0.00     0.183 A 
ATOM      6  N7  CK9 d   1      -0.445   4.386  27.811  0.00  0.00    -0.320 N 
ATOM      7  N3  CK9 d   1      -0.034   6.631  26.807  0.00  0.00    -0.042 NA
ATOM      8  C2  CK9 d   1       0.855   7.655  26.710  0.00  0.00     0.726 A 
ATOM      9  N1  CK9 d   1       2.032   7.556  27.393  0.00  0.00    -0.043 NA
ATOM     10  H9  CK9 d   1       0.100   2.616  28.997  0.00  0.00     0.143 H 
ENDROOT
BRANCH   1  11
ATOM     11  N17 CK9 d   1       3.528   6.487  28.697  0.00  0.00    -0.368 N 
ATOM     12  H8  CK9 d   1       3.711   5.704  29.341  0.00  0.00     0.161 HD
BRANCH  11  13
ATOM     13  C18 CK9 d   1       4.523   7.348  28.579  0.00  0.00     0.020 C 
ATOM     14  H6  CK9 d   1       5.449   6.756  28.618  0.00  0.00     0.071 H 
ATOM     15  H7  CK9 d   1       4.421   7.803  27.583  0.00  0.00     0.071 H 
BRANCH  13  16
ATOM     16  C19 CK9 d   1       4.706   8.476  29.538  0.00  0.00    -0.007 A 
ATOM     17  C24 CK9 d   1       4.132   9.728  29.194  0.00  0.00     0.073 A 
ATOM     18  C23 CK9 d   1       4.259  10.823  30.099  0.00  0.00    -0.050 A 
ATOM     19  C22 CK9 d   1       4.942  10.645  31.343  0.00  0.00    -0.080 A 
ATOM     20  H2  CK9 d   1       3.838  11.789  29.844  0.00  0.00     0.087 H 
ATOM     21  C21 CK9 d   1       5.497   9.375  31.679  0.00  0.00    -0.082 A 
ATOM     22  H3  CK9 d   1       5.038  11.477  32.032  0.00  0.00     0.083 H 
ATOM     23  C20 CK9 d   1       5.371   8.283  30.774  0.00  0.00    -0.073 A 
ATOM     24  H4  CK9 d   1       6.014   9.241  32.622  0.00  0.00     0.083 H 
ATOM     25  H5  CK9 d   1       5.780   7.312  31.029  0.00  0.00     0.084 H 
BRANCH  17  26
ATOM     26  O27 CK9 d   1       3.474   9.847  27.989  0.00  0.00    -0.360 OA
ATOM     27  H1  CK9 d   1       3.497   9.014  27.533  0.00  0.00     0.217 HD
ENDBRANCH  17  26
ENDBRANCH  13  16
ENDBRANCH  11  13
ENDBRANCH   1  11
BRANCH   8  28
ATOM     28  N13 CK9 d   1       0.623   8.697  25.982  0.00  0.00    -0.216 N 
ATOM     29  H17 CK9 d   1       1.302   9.468  26.048  0.00  0.00     0.178 HD
BRANCH  28  30
ATOM     30  C14 CK9 d   1      -0.539   8.898  25.047  0.00  0.00     0.046 C 
ATOM     31  H18 CK9 d   1      -0.198   9.596  24.268  0.00  0.00     0.076 H 
BRANCH  30  32
ATOM     32  C25 CK9 d   1      -1.667   9.626  25.874  0.00  0.00    -0.047 C 
ATOM     33  H19 CK9 d   1      -1.702   9.135  26.858  0.00  0.00     0.035 H 
ATOM     34  H20 CK9 d   1      -2.612   9.447  25.341  0.00  0.00     0.035 H 
BRANCH  32  35
ATOM     35  C26 CK9 d   1      -1.594  11.153  26.144  0.00  0.00    -0.075 C 
ATOM     36  H21 CK9 d   1      -2.469  11.463  26.733  0.00  0.00     0.027 H 
ATOM     37  H22 CK9 d   1      -1.586  11.695  25.187  0.00  0.00     0.027 H 
ATOM     38  H23 CK9 d   1      -0.675  11.383  26.703  0.00  0.00     0.027 H 
ENDBRANCH  32  35
ENDBRANCH  30  32
BRANCH  30  39
ATOM     39  C15 CK9 d   1      -1.070   7.631  24.272  0.00  0.00     0.036 C 
ATOM     40  H24 CK9 d   1      -1.994   7.926  23.754  0.00  0.00     0.077 H 
ATOM     41  H25 CK9 d   1      -1.300   6.860  25.022  0.00  0.00     0.077 H 
BRANCH  39  42
ATOM     42  O16 CK9 d   1      -0.206   7.036  23.299  0.00  0.00    -0.399 OA
ATOM     43  H26 CK9 d   1      -0.640   6.287  22.907  0.00  0.00     0.209 HD
ENDBRANCH  39  42
ENDBRANCH  30  39
ENDBRANCH  28  30
ENDBRANCH   8  28
BRANCH   6  44
ATOM     44  C10 CK9 d   1      -1.809   4.059  27.248  0.00  0.00     0.012 C 
ATOM     45  H10 CK9 d   1      -2.162   3.164  27.782  0.00  0.00     0.072 H 
BRANCH  44  46
ATOM     46  C12 CK9 d   1      -1.637   3.709  25.781  0.00  0.00    -0.057 C 
ATOM     47  H11 CK9 d   1      -2.617   3.466  25.345  0.00  0.00     0.030 H 
ATOM     48  H12 CK9 d   1      -0.968   2.841  25.687  0.00  0.00     0.030 H 
ATOM     49  H13 CK9 d   1      -1.201   4.567  25.248  0.00  0.00     0.030 H 
ENDBRANCH  44  46
BRANCH  44  50
ATOM     50  C11 CK9 d   1      -2.932   5.114  27.375  0.00  0.00    -0.057 C 
ATOM     51  H14 CK9 d   1      -3.854   4.724  26.919  0.00  0.00     0.030 H 
ATOM     52  H15 CK9 d   1      -2.629   6.036  26.858  0.00  0.00     0.030 H 
ATOM     53  H16 CK9 d   1      -3.112   5.332  28.438  0.00  0.00     0.030 H 
ENDBRANCH  44  50
ENDBRANCH   6  44
TORSDOF 13
