REMARK WARNING: 32 MAX_TORS EXCEEDED!!!
REMARK  45 active torsions:
REMARK  status: ('A' for Active; 'I' for Inactive)
REMARK    1  A    between atoms: N_1  and  CA_2 
REMARK    2  A    between atoms: CA_2  and  C_3 
REMARK    3  A    between atoms: CA_2  and  CB_5 
REMARK       I    between atoms: C_3  and  N_9 
REMARK    4  A    between atoms: CB_5  and  CG_6 
REMARK       I    between atoms: CG_6  and  ND2_8 
REMARK    5  A    between atoms: N_9  and  CA_10 
REMARK    6  A    between atoms: CA_10  and  C_11 
REMARK    7  A    between atoms: CA_10  and  CB_13 
REMARK       I    between atoms: C_11  and  N_17 
REMARK    8  A    between atoms: CB_13  and  CG_14 
REMARK    9  A    between atoms: CA_18  and  C_19 
REMARK       I    between atoms: C_19  and  N_24 
REMARK   10  A    between atoms: N_24  and  CA_25 
REMARK   11  A    between atoms: CA_25  and  C_26 
REMARK   12  A    between atoms: CA_25  and  CB_28 
REMARK       I    between atoms: C_26  and  N_32 
REMARK   13  A    between atoms: CB_28  and  CG_29 
REMARK   14  A    between atoms: N_32  and  CA_33 
REMARK   15  A    between atoms: CA_33  and  CB_34 
REMARK   16  A    between atoms: CA_33  and  C_41 
REMARK   17  A    between atoms: CB_34  and  CG2_35 
REMARK   18  A    between atoms: CB_34  and  OG1_36 
REMARK   19  A    between atoms: OG1_36  and  P_37 
REMARK       I    between atoms: C_41  and  N_43 
REMARK   20  A    between atoms: N_43  and  CA_44 
REMARK   21  A    between atoms: CA_44  and  C_45 
REMARK   22  A    between atoms: CA_44  and  CB_47 
REMARK       I    between atoms: C_45  and  N_51 
REMARK   23  A    between atoms: CB_47  and  CG_48 
REMARK   24  A    between atoms: CG_48  and  CD1_49 
REMARK   25  A    between atoms: CG_48  and  CD2_50 
REMARK   26  A    between atoms: N_51  and  CA_52 
REMARK   27  A    between atoms: CA_52  and  C_53 
REMARK   28  A    between atoms: CA_52  and  CB_55 
REMARK       I    between atoms: C_53  and  N_60 
REMARK   29  A    between atoms: CB_55  and  CG_56 
REMARK   30  A    between atoms: CG_56  and  CD_57 
REMARK   31  A    between atoms: N_60  and  CA_61 
REMARK   32  A    between atoms: CA_61  and  C_62 
REMARK   33  A    between atoms: CA_61  and  CB_64 
REMARK       I    between atoms: C_62  and  N_68 
REMARK   34  A    between atoms: CB_64  and  CG1_65 
REMARK   35  A    between atoms: CB_64  and  CG2_66 
REMARK   36  A    between atoms: CG1_65  and  CD1_67 
REMARK   37  A    between atoms: N_68  and  CA_69 
REMARK   38  A    between atoms: CA_69  and  C_70 
REMARK   39  A    between atoms: CA_69  and  CB_72 
REMARK       I    between atoms: C_70  and  N_80 
REMARK   40  A    between atoms: CB_72  and  CG_73 
REMARK   41  A    between atoms: CZ_78  and  OH_79 
REMARK   42  A    between atoms: N_80  and  CA_81 
REMARK   43  A    between atoms: CA_81  and  C_82 
REMARK   44  A    between atoms: CA_81  and  CB_84 
REMARK   45  A    between atoms: CB_84  and  OG_85 
ROOT
ATOM      1  CA  LEU d   1      -1.833 -18.644 -16.351  0.00  0.00     0.089 C 
ATOM      2  H31 LEU d   1      -2.280 -19.510 -16.862  0.00  0.00     0.087 H 
ENDROOT
BRANCH   1   3
ATOM      3  N   LEU d   1      -1.880 -17.503 -17.259  0.00  0.00    -0.346 N 
ATOM      4  C   TPO d   1      -1.726 -17.653 -18.572  0.00  0.00     0.243 C 
ATOM      5  O   TPO d   1      -1.537 -18.748 -19.103  0.00  0.00    -0.271 OA
ATOM      6  H30 LEU d   1      -2.031 -16.588 -16.886  0.00  0.00     0.163 HD
BRANCH   4   7
ATOM      7  CA  TPO d   1      -1.791 -16.379 -19.412  0.00  0.00     0.114 C 
ATOM      8  H25 TPO d   1      -1.657 -15.513 -18.747  0.00  0.00     0.091 H 
BRANCH   7   9
ATOM      9  N   TPO d   1      -0.725 -16.361 -20.407  0.00  0.00    -0.344 N 
ATOM     10  C   ASP d   1       0.232 -15.440 -20.389  0.00  0.00     0.241 C 
ATOM     11  O   ASP d   1       0.288 -14.548 -19.542  0.00  0.00    -0.271 OA
ATOM     12  H24 TPO d   1      -0.714 -17.060 -21.122  0.00  0.00     0.163 HD
BRANCH  10  13
ATOM     13  CA  ASP d   1       1.284 -15.541 -21.489  0.00  0.00     0.098 C 
ATOM     14  H21 ASP d   1       1.186 -16.522 -21.976  0.00  0.00     0.088 H 
BRANCH  13  15
ATOM     15  N   ASP d   1       1.088 -14.505 -22.496  0.00  0.00    -0.346 N 
ATOM     16  C   PRO d   1       1.754 -14.516 -23.647  0.00  0.00     0.241 C 
ATOM     17  O   PRO d   1       2.572 -15.390 -23.938  0.00  0.00    -0.271 OA
ATOM     18  H20 ASP d   1       0.436 -13.768 -22.317  0.00  0.00     0.163 HD
BRANCH  16  19
ATOM     19  CA  PRO d   1       1.454 -13.374 -24.611  0.00  0.00     0.091 C 
ATOM     20  N   PRO d   1       2.018 -13.608 -25.943  0.00  0.00    -0.337 N 
ATOM     21  C   ASP d   1       3.333 -13.487 -26.204  0.00  0.00     0.243 C 
ATOM     22  CD  PRO d   1       0.981 -13.981 -26.925  0.00  0.00    -0.001 C 
ATOM     23  O   ASP d   1       4.141 -13.171 -25.331  0.00  0.00    -0.271 OA
ATOM     24  CG  PRO d   1      -0.265 -14.119 -26.090  0.00  0.00    -0.048 C 
ATOM     25  H18 PRO d   1       1.231 -14.932 -27.418  0.00  0.00     0.064 H 
ATOM     26  H19 PRO d   1       0.859 -13.195 -27.685  0.00  0.00     0.064 H 
ATOM     27  CB  PRO d   1      -0.047 -13.280 -24.879  0.00  0.00    -0.036 C 
ATOM     28  H16 PRO d   1      -1.141 -13.760 -26.650  0.00  0.00     0.035 H 
ATOM     29  H17 PRO d   1      -0.418 -15.170 -25.804  0.00  0.00     0.035 H 
ATOM     30  H14 PRO d   1      -0.343 -12.238 -25.070  0.00  0.00     0.036 H 
ATOM     31  H15 PRO d   1      -0.619 -13.673 -24.026  0.00  0.00     0.036 H 
ATOM     32  H13 PRO d   1       1.838 -12.434 -24.188  0.00  0.00     0.087 H 
BRANCH  21  33
ATOM     33  CA  ASP d   1       3.797 -13.758 -27.635  0.00  0.00     0.099 C 
ATOM     34  H10 ASP d   1       2.948 -13.595 -28.315  0.00  0.00     0.088 H 
BRANCH  33  35
ATOM     35  N   ASP d   1       4.872 -12.847 -28.011  0.00  0.00    -0.345 N 
ATOM     36  C   ASN d   1       5.052 -12.464 -29.271  0.00  0.00     0.249 C 
ATOM     37  O   ASN d   1       4.334 -12.845 -30.195  0.00  0.00    -0.271 OA
ATOM     38  H9  ASP d   1       5.489 -12.502 -27.303  0.00  0.00     0.163 HD
BRANCH  36  39
ATOM     39  CA  ASN d   1       6.215 -11.509 -29.526  0.00  0.00     0.183 C 
ATOM     40  H4  ASN d   1       5.868 -10.479 -29.356  0.00  0.00     0.099 H 
BRANCH  39  41
ATOM     41  N   ASN d   1       7.353 -11.792 -28.613  0.00  0.00    -0.066 N 
ATOM     42  H1  ASN d   1       8.105 -11.148 -28.803  0.00  0.00     0.275 HD
ATOM     43  H2  ASN d   1       7.674 -12.736 -28.759  0.00  0.00     0.275 HD
ATOM     44  H3  ASN d   1       7.052 -11.684 -27.657  0.00  0.00     0.275 HD
ENDBRANCH  39  41
BRANCH  39  45
ATOM     45  CB  ASN d   1       6.704 -11.642 -30.971  0.00  0.00     0.044 C 
ATOM     46  H5  ASN d   1       6.124 -12.433 -31.469  0.00  0.00     0.051 H 
ATOM     47  H6  ASN d   1       7.768 -11.919 -30.960  0.00  0.00     0.051 H 
BRANCH  45  48
ATOM     48  CG  ASN d   1       6.545 -10.355 -31.756  0.00  0.00     0.217 C 
ATOM     49  OD1 ASN d   1       6.344  -9.285 -31.181  0.00  0.00    -0.274 OA
ATOM     50  ND2 ASN d   1       6.635 -10.452 -33.077  0.00  0.00    -0.370 N 
ATOM     51  H7  ASN d   1       6.538  -9.635 -33.646  0.00  0.00     0.159 HD
ATOM     52  H8  ASN d   1       6.800 -11.342 -33.503  0.00  0.00     0.159 HD
ENDBRANCH  45  48
ENDBRANCH  39  45
ENDBRANCH  36  39
ENDBRANCH  33  35
BRANCH  33  53
ATOM     53  CB  ASP d   1       4.260 -15.210 -27.772  0.00  0.00     0.043 C 
ATOM     54  H11 ASP d   1       4.270 -15.673 -26.774  0.00  0.00     0.052 H 
ATOM     55  H12 ASP d   1       5.277 -15.218 -28.191  0.00  0.00     0.052 H 
BRANCH  53  56
ATOM     56  CG  ASP d   1       3.354 -16.023 -28.677  0.00  0.00     0.175 C 
ATOM     57  OD1 ASP d   1       3.013 -15.530 -29.772  0.00  0.00    -0.648 OA
ATOM     58  OD2 ASP d   1       2.986 -17.152 -28.290  0.00  0.00    -0.648 OA
ENDBRANCH  53  56
ENDBRANCH  33  53
ENDBRANCH  21  33
ENDBRANCH  16  19
ENDBRANCH  13  15
BRANCH  13  59
ATOM     59  CB  ASP d   1       2.685 -15.435 -20.883  0.00  0.00     0.043 C 
ATOM     60  H22 ASP d   1       2.627 -14.840 -19.959  0.00  0.00     0.052 H 
ATOM     61  H23 ASP d   1       3.345 -14.930 -21.604  0.00  0.00     0.052 H 
BRANCH  59  62
ATOM     62  CG  ASP d   1       3.274 -16.792 -20.552  0.00  0.00     0.175 C 
ATOM     63  OD1 ASP d   1       3.442 -17.609 -21.481  0.00  0.00    -0.648 OA
ATOM     64  OD2 ASP d   1       3.567 -17.038 -19.362  0.00  0.00    -0.648 OA
ENDBRANCH  59  62
ENDBRANCH  13  59
ENDBRANCH  10  13
ENDBRANCH   7   9
BRANCH   7  65
ATOM     65  CB  TPO d   1      -3.179 -16.275 -20.078  0.00  0.00     0.076 C 
ATOM     66  H26 TPO d   1      -3.303 -17.123 -20.767  0.00  0.00     0.087 H 
BRANCH  65  67
ATOM     67  CG2 TPO d   1      -4.291 -16.322 -19.040  0.00  0.00    -0.049 C 
ATOM     68  H27 TPO d   1      -5.266 -16.246 -19.544  0.00  0.00     0.031 H 
ATOM     69  H28 TPO d   1      -4.174 -15.482 -18.339  0.00  0.00     0.031 H 
ATOM     70  H29 TPO d   1      -4.237 -17.271 -18.487  0.00  0.00     0.031 H 
ENDBRANCH  65  67
BRANCH  65  71
ATOM     71  OG1 TPO d   1      -3.269 -15.080 -20.804  0.00  0.00    -0.275 OA
BRANCH  71  72
ATOM     72  P   TPO d   1      -3.681 -15.162 -22.306  0.00  0.00     0.422 P 
ATOM     73  O1P TPO d   1      -5.197 -15.485 -22.281  0.00  0.00    -0.617 OA
ATOM     74  O2P TPO d   1      -3.478 -13.725 -22.849  0.00  0.00    -0.617 OA
ATOM     75  O3P TPO d   1      -2.887 -16.184 -23.068  0.00  0.00    -0.617 OA
ENDBRANCH  71  72
ENDBRANCH  65  71
ENDBRANCH   7  65
ENDBRANCH   4   7
ENDBRANCH   1   3
BRANCH   1  76
ATOM     76  C   LEU d   1      -2.629 -18.373 -15.077  0.00  0.00     0.241 C 
ATOM     77  O   LEU d   1      -3.232 -17.311 -14.922  0.00  0.00    -0.271 OA
ATOM     78  N   GLU d   1      -2.620 -19.343 -14.167  0.00  0.00    -0.346 N 
ATOM     79  H41 GLU d   1      -2.109 -20.182 -14.356  0.00  0.00     0.163 HD
BRANCH  78  80
ATOM     80  CA  GLU d   1      -3.334 -19.218 -12.902  0.00  0.00     0.090 C 
ATOM     81  H42 GLU d   1      -3.499 -18.150 -12.698  0.00  0.00     0.087 H 
BRANCH  80  82
ATOM     82  C   GLU d   1      -2.517 -19.811 -11.757  0.00  0.00     0.241 C 
ATOM     83  O   GLU d   1      -2.838 -20.885 -11.250  0.00  0.00    -0.271 OA
ATOM     84  N   ILE d   1      -1.456 -19.099 -11.367  0.00  0.00    -0.346 N 
ATOM     85  H47 ILE d   1      -1.263 -18.235 -11.832  0.00  0.00     0.163 HD
BRANCH  84  86
ATOM     86  CA  ILE d   1      -0.561 -19.528 -10.286  0.00  0.00     0.092 C 
ATOM     87  H48 ILE d   1       0.329 -18.883 -10.324  0.00  0.00     0.088 H 
BRANCH  86  88
ATOM     88  C   ILE d   1      -0.097 -20.975 -10.465  0.00  0.00     0.241 C 
ATOM     89  O   ILE d   1      -0.741 -21.773 -11.144  0.00  0.00    -0.271 OA
ATOM     90  N   TYR d   1       1.037 -21.301  -9.854  0.00  0.00    -0.346 N 
ATOM     91  H58 TYR d   1       1.518 -20.607  -9.319  0.00  0.00     0.163 HD
BRANCH  90  92
ATOM     92  CA  TYR d   1       1.599 -22.645  -9.942  0.00  0.00     0.093 C 
ATOM     93  H59 TYR d   1       1.083 -23.186 -10.749  0.00  0.00     0.088 H 
BRANCH  92  94
ATOM     94  C   TYR d   1       1.390 -23.407  -8.637  0.00  0.00     0.241 C 
ATOM     95  O   TYR d   1       1.502 -22.840  -7.551  0.00  0.00    -0.271 OA
ATOM     96  N   SER d   1       1.087 -24.695  -8.754  0.00  0.00    -0.343 N 
ATOM     97  H67 SER d   1       1.010 -25.097  -9.666  0.00  0.00     0.163 HD
BRANCH  96  98
ATOM     98  CA  SER d   1       0.864 -25.536  -7.584  0.00  0.00     0.116 C 
ATOM     99  H68 SER d   1       1.738 -25.449  -6.922  0.00  0.00     0.093 H 
BRANCH  98 100
ATOM    100  C   SER d   1       0.704 -26.998  -7.985  0.00  0.00     0.198 C 
ATOM    101  O   SER d   1       1.001 -27.325  -9.154  0.00  0.00    -0.646 OA
ATOM    102  OXT SER d   1       0.283 -27.804  -7.129  0.00  0.00    -0.646 OA
ENDBRANCH  98 100
BRANCH  98 103
ATOM    103  CB  SER d   1      -0.375 -25.066  -6.821  0.00  0.00     0.045 C 
ATOM    104  H69 SER d   1      -1.248 -25.641  -7.164  0.00  0.00     0.077 H 
ATOM    105  H70 SER d   1      -0.537 -23.997  -7.024  0.00  0.00     0.077 H 
BRANCH 103 106
ATOM    106  OG  SER d   1      -0.218 -25.253  -5.425  0.00  0.00    -0.398 OA
ATOM    107  H71 SER d   1      -0.081 -26.175  -5.244  0.00  0.00     0.209 HD
ENDBRANCH 103 106
ENDBRANCH  98 103
ENDBRANCH  96  98
ENDBRANCH  92  94
BRANCH  92 108
ATOM    108  CB  TYR d   1       3.092 -22.578 -10.274  0.00  0.00    -0.014 C 
ATOM    109  H60 TYR d   1       3.200 -22.413 -11.356  0.00  0.00     0.043 H 
ATOM    110  H61 TYR d   1       3.551 -23.540 -10.002  0.00  0.00     0.043 H 
BRANCH 108 111
ATOM    111  CG  TYR d   1       3.829 -21.475  -9.548  0.00  0.00    -0.056 A 
ATOM    112  CD1 TYR d   1       4.060 -21.548  -8.180  0.00  0.00    -0.074 A 
ATOM    113  CE1 TYR d   1       4.732 -20.540  -7.515  0.00  0.00    -0.051 A 
ATOM    114  H62 TYR d   1       3.707 -22.410  -7.625  0.00  0.00     0.084 H 
ATOM    115  CZ  TYR d   1       5.181 -19.441  -8.217  0.00  0.00     0.065 A 
ATOM    116  H64 TYR d   1       4.905 -20.613  -6.447  0.00  0.00     0.087 H 
ATOM    117  CE2 TYR d   1       4.965 -19.347  -9.575  0.00  0.00    -0.051 A 
ATOM    118  CD2 TYR d   1       4.292 -20.358 -10.232  0.00  0.00    -0.074 A 
ATOM    119  H65 TYR d   1       5.322 -18.483 -10.125  0.00  0.00     0.087 H 
ATOM    120  H63 TYR d   1       4.122 -20.279 -11.300  0.00  0.00     0.084 H 
BRANCH 115 121
ATOM    121  OH  TYR d   1       5.850 -18.435  -7.559  0.00  0.00    -0.361 OA
ATOM    122  H66 TYR d   1       5.915 -18.651  -6.636  0.00  0.00     0.217 HD
ENDBRANCH 115 121
ENDBRANCH 108 111
ENDBRANCH  92 108
ENDBRANCH  90  92
ENDBRANCH  86  88
BRANCH  86 123
ATOM    123  CB  ILE d   1      -1.209 -19.356  -8.889  0.00  0.00    -0.030 C 
ATOM    124  H49 ILE d   1      -1.449 -18.291  -8.752  0.00  0.00     0.043 H 
BRANCH 123 125
ATOM    125  CG1 ILE d   1      -0.233 -19.776  -7.786  0.00  0.00    -0.063 C 
ATOM    126  H50 ILE d   1       0.689 -19.185  -7.894  0.00  0.00     0.033 H 
ATOM    127  H51 ILE d   1      -0.001 -20.844  -7.915  0.00  0.00     0.033 H 
BRANCH 125 128
ATOM    128  CD1 ILE d   1      -0.773 -19.569  -6.387  0.00  0.00    -0.076 C 
ATOM    129  H55 ILE d   1      -0.021 -19.891  -5.652  0.00  0.00     0.027 H 
ATOM    130  H56 ILE d   1      -1.690 -20.162  -6.257  0.00  0.00     0.027 H 
ATOM    131  H57 ILE d   1      -1.000 -18.503  -6.236  0.00  0.00     0.027 H 
ENDBRANCH 125 128
ENDBRANCH 123 125
BRANCH 123 132
ATOM    132  CG2 ILE d   1      -2.498 -20.152  -8.779  0.00  0.00    -0.071 C 
ATOM    133  H52 ILE d   1      -3.190 -19.841  -9.576  0.00  0.00     0.028 H 
ATOM    134  H53 ILE d   1      -2.961 -19.966  -7.799  0.00  0.00     0.028 H 
ATOM    135  H54 ILE d   1      -2.277 -21.224  -8.883  0.00  0.00     0.028 H 
ENDBRANCH 123 132
ENDBRANCH  86 123
ENDBRANCH  84  86
ENDBRANCH  80  82
BRANCH  80 136
ATOM    136  CB  GLU d   1      -4.693 -19.915 -12.989  0.00  0.00    -0.029 C 
ATOM    137  H43 GLU d   1      -5.217 -19.777 -12.032  0.00  0.00     0.037 H 
ATOM    138  H44 GLU d   1      -4.524 -20.988 -13.163  0.00  0.00     0.037 H 
BRANCH 136 139
ATOM    139  CG  GLU d   1      -5.578 -19.381 -14.103  0.00  0.00     0.018 C 
ATOM    140  H45 GLU d   1      -5.079 -19.561 -15.066  0.00  0.00     0.049 H 
ATOM    141  H46 GLU d   1      -5.714 -18.299 -13.957  0.00  0.00     0.049 H 
BRANCH 139 142
ATOM    142  CD  GLU d   1      -6.942 -20.043 -14.132  0.00  0.00     0.172 C 
ATOM    143  OE1 GLU d   1      -6.998 -21.283 -14.274  0.00  0.00    -0.648 OA
ATOM    144  OE2 GLU d   1      -7.954 -19.322 -14.014  0.00  0.00    -0.648 OA
ENDBRANCH 139 142
ENDBRANCH 136 139
ENDBRANCH  80 136
ENDBRANCH  78  80
ENDBRANCH   1  76
BRANCH   1 145
ATOM    145  CB  LEU d   1      -0.383 -18.983 -15.993  0.00  0.00    -0.035 C 
ATOM    146  H32 LEU d   1       0.043 -19.568 -16.821  0.00  0.00     0.037 H 
ATOM    147  H33 LEU d   1      -0.394 -19.595 -15.079  0.00  0.00     0.037 H 
BRANCH 145 148
ATOM    148  CG  LEU d   1       0.534 -17.780 -15.745  0.00  0.00    -0.059 C 
ATOM    149  H34 LEU d   1       1.451 -18.142 -15.257  0.00  0.00     0.038 H 
BRANCH 148 150
ATOM    150  CD1 LEU d   1       0.924 -17.124 -17.061  0.00  0.00    -0.073 C 
ATOM    151  H35 LEU d   1       1.581 -16.265 -16.862  0.00  0.00     0.028 H 
ATOM    152  H36 LEU d   1       0.018 -16.780 -17.582  0.00  0.00     0.028 H 
ATOM    153  H37 LEU d   1       1.455 -17.853 -17.691  0.00  0.00     0.028 H 
ENDBRANCH 148 150
BRANCH 148 154
ATOM    154  CD2 LEU d   1      -0.131 -16.774 -14.815  0.00  0.00    -0.073 C 
ATOM    155  H38 LEU d   1      -0.403 -17.271 -13.872  0.00  0.00     0.028 H 
ATOM    156  H39 LEU d   1      -1.037 -16.375 -15.294  0.00  0.00     0.028 H 
ATOM    157  H40 LEU d   1       0.567 -15.950 -14.607  0.00  0.00     0.028 H 
ENDBRANCH 148 154
ENDBRANCH 145 148
ENDBRANCH   1 145
TORSDOF 45
