REMARK WARNING: 32 MAX_TORS EXCEEDED!!!
REMARK  35 active torsions:
REMARK  status: ('A' for Active; 'I' for Inactive)
REMARK    1  A    between atoms: CA_2  and  N_1 
REMARK    2  A    between atoms: CA_2  and  CB_5 
REMARK    3  A    between atoms: C_3  and  CA_2 
REMARK       I    between atoms: N_10  and  C_3 
REMARK    4  A    between atoms: CB_5  and  CG_6 
REMARK    5  A    between atoms: CG_6  and  CD_7 
REMARK    6  A    between atoms: CD_7  and  CE_8 
REMARK    7  A    between atoms: CE_8  and  NZ_9 
REMARK    8  A    between atoms: C_12  and  CA_11 
REMARK       I    between atoms: N_17  and  C_12 
REMARK    9  A    between atoms: CA_18  and  N_17 
REMARK   10  A    between atoms: CA_18  and  CB_21 
REMARK   11  A    between atoms: C_19  and  CA_18 
REMARK       I    between atoms: N_22  and  C_19 
REMARK   12  A    between atoms: CA_23  and  N_22 
REMARK   13  A    between atoms: CA_23  and  CB_26 
REMARK   14  A    between atoms: C_24  and  CA_23 
REMARK       I    between atoms: N_27  and  C_24 
REMARK   15  A    between atoms: CA_28  and  N_27 
REMARK   16  A    between atoms: CA_28  and  CB_31 
REMARK   17  A    between atoms: C_29  and  CA_28 
REMARK       I    between atoms: N_34  and  C_29 
REMARK   18  A    between atoms: CB_31  and  CG2_33 
REMARK   19  A    between atoms: CB_31  and  CG1_32 
REMARK   20  A    between atoms: CA_35  and  N_34 
REMARK   21  A    between atoms: CA_35  and  CB_38 
REMARK   22  A    between atoms: C_36  and  CA_35 
REMARK       I    between atoms: N_41  and  C_36 
REMARK   23  A    between atoms: CB_38  and  CG2_40 
REMARK   24  A    between atoms: CB_38  and  CG1_39 
REMARK   25  A    between atoms: CA_42  and  N_41 
REMARK   26  A    between atoms: CA_42  and  CB_45 
REMARK   27  A    between atoms: C_43  and  CA_42 
REMARK       I    between atoms: N_46  and  C_43 
REMARK   28  A    between atoms: C_48  and  CA_47 
REMARK       I    between atoms: C_48  and  N_53 
REMARK   29  A    between atoms: N_53  and  CA_54 
REMARK   30  A    between atoms: CA_54  and  CB_57 
REMARK   31  A    between atoms: CA_54  and  C_55 
REMARK   32  A    between atoms: C_55  and  O1_61 
REMARK   33  A    between atoms: CB_57  and  CG2_59 
REMARK   34  A    between atoms: CB_57  and  CG1_58 
REMARK   35  A    between atoms: CG1_58  and  CD1_60 
ROOT
ATOM      1  CA  VAL d   1       1.375  39.621  15.867  0.00  0.00     0.092 C 
ATOM      2  H34 VAL d   1       2.254  39.476  16.512  0.00  0.00     0.088 H 
ENDROOT
BRANCH   1   3
ATOM      3  N   VAL d   1       1.547  40.817  15.072  0.00  0.00    -0.346 N 
ATOM      4  C   ALA d   1       2.730  41.367  14.815  0.00  0.00     0.240 C 
ATOM      5  O   ALA d   1       3.810  40.981  15.296  0.00  0.00    -0.271 OA
ATOM      6  H33 VAL d   1       0.731  41.255  14.695  0.00  0.00     0.163 HD
BRANCH   4   7
ATOM      7  CA  ALA d   1       2.692  42.554  13.905  0.00  0.00     0.086 C 
ATOM      8  H29 ALA d   1       1.660  42.917  13.793  0.00  0.00     0.086 H 
BRANCH   7   9
ATOM      9  N   ALA d   1       3.506  43.550  14.563  0.00  0.00    -0.346 N 
ATOM     10  C   ALA d   1       2.978  44.698  14.990  0.00  0.00     0.240 C 
ATOM     11  O   ALA d   1       1.825  45.034  14.759  0.00  0.00    -0.271 OA
ATOM     12  H28 ALA d   1       4.481  43.376  14.700  0.00  0.00     0.163 HD
BRANCH  10  13
ATOM     13  CA  ALA d   1       3.891  45.601  15.767  0.00  0.00     0.086 C 
ATOM     14  H24 ALA d   1       4.936  45.390  15.497  0.00  0.00     0.086 H 
BRANCH  13  15
ATOM     15  N   ALA d   1       3.572  46.967  15.422  0.00  0.00    -0.346 N 
ATOM     16  C   PRO d   1       4.501  47.866  15.113  0.00  0.00     0.241 C 
ATOM     17  O   PRO d   1       5.700  47.611  15.065  0.00  0.00    -0.271 OA
ATOM     18  H23 ALA d   1       2.612  47.248  15.415  0.00  0.00     0.163 HD
BRANCH  16  19
ATOM     19  CA  PRO d   1       3.995  49.291  14.832  0.00  0.00     0.091 C 
ATOM     20  CB  PRO d   1       3.919  49.532  13.313  0.00  0.00    -0.036 C 
ATOM     21  CG  PRO d   1       5.022  50.459  12.965  0.00  0.00    -0.048 C 
ATOM     22  H17 PRO d   1       2.950  49.982  13.050  0.00  0.00     0.036 H 
ATOM     23  H18 PRO d   1       4.040  48.581  12.773  0.00  0.00     0.036 H 
ATOM     24  CD  PRO d   1       5.436  51.181  14.218  0.00  0.00    -0.001 C 
ATOM     25  H19 PRO d   1       5.874  49.891  12.563  0.00  0.00     0.035 H 
ATOM     26  H20 PRO d   1       4.677  51.184  12.213  0.00  0.00     0.035 H 
ATOM     27  N   PRO d   1       4.946  50.312  15.306  0.00  0.00    -0.337 N 
ATOM     28  H21 PRO d   1       6.530  51.288  14.265  0.00  0.00     0.064 H 
ATOM     29  H22 PRO d   1       4.968  52.175  14.270  0.00  0.00     0.064 H 
ATOM     30  C   LYS d   1       5.266  50.424  16.593  0.00  0.00     0.251 C 
ATOM     31  O   LYS d   1       4.614  49.891  17.497  0.00  0.00    -0.271 OA
ATOM     32  H16 PRO d   1       3.011  49.430  15.303  0.00  0.00     0.087 H 
BRANCH  30  33
ATOM     33  CA  LYS d   1       6.491  51.281  16.921  0.00  0.00     0.176 C 
ATOM     34  H4  LYS d   1       6.606  52.043  16.136  0.00  0.00     0.099 H 
BRANCH  33  35
ATOM     35  N   LYS d   1       6.317  51.984  18.225  0.00  0.00    -0.067 N 
ATOM     36  H1  LYS d   1       7.135  52.541  18.418  0.00  0.00     0.275 HD
ATOM     37  H2  LYS d   1       6.192  51.304  18.959  0.00  0.00     0.275 HD
ATOM     38  H3  LYS d   1       5.507  52.582  18.179  0.00  0.00     0.275 HD
ENDBRANCH  33  35
BRANCH  33  39
ATOM     39  CB  LYS d   1       7.736  50.389  16.915  0.00  0.00    -0.030 C 
ATOM     40  H5  LYS d   1       7.889  50.036  15.884  0.00  0.00     0.036 H 
ATOM     41  H6  LYS d   1       7.534  49.529  17.571  0.00  0.00     0.036 H 
BRANCH  39  42
ATOM     42  CG  LYS d   1       9.014  51.018  17.373  0.00  0.00    -0.061 C 
ATOM     43  H7  LYS d   1       8.790  51.906  17.983  0.00  0.00     0.033 H 
ATOM     44  H8  LYS d   1       9.613  51.315  16.499  0.00  0.00     0.033 H 
BRANCH  42  45
ATOM     45  CD  LYS d   1       9.798  50.003  18.212  0.00  0.00    -0.043 C 
ATOM     46  H9  LYS d   1       9.898  49.071  17.637  0.00  0.00     0.035 H 
ATOM     47  H10 LYS d   1       9.239  49.804  19.139  0.00  0.00     0.035 H 
BRANCH  45  48
ATOM     48  CE  LYS d   1      11.187  50.503  18.577  0.00  0.00     0.080 C 
ATOM     49  H11 LYS d   1      11.375  51.452  18.054  0.00  0.00     0.075 H 
ATOM     50  H12 LYS d   1      11.931  49.757  18.261  0.00  0.00     0.075 H 
BRANCH  48  51
ATOM     51  NZ  LYS d   1      11.315  50.725  20.047  0.00  0.00    -0.079 N 
ATOM     52  H13 LYS d   1      12.244  51.055  20.257  0.00  0.00     0.274 HD
ATOM     53  H14 LYS d   1      11.149  49.858  20.534  0.00  0.00     0.274 HD
ATOM     54  H15 LYS d   1      10.639  51.412  20.343  0.00  0.00     0.274 HD
ENDBRANCH  48  51
ENDBRANCH  45  48
ENDBRANCH  42  45
ENDBRANCH  39  42
ENDBRANCH  33  39
ENDBRANCH  30  33
ENDBRANCH  16  19
ENDBRANCH  13  15
BRANCH  13  55
ATOM     55  CB  ALA d   1       3.707  45.366  17.236  0.00  0.00    -0.049 C 
ATOM     56  H25 ALA d   1       3.955  44.321  17.474  0.00  0.00     0.030 H 
ATOM     57  H26 ALA d   1       2.661  45.566  17.511  0.00  0.00     0.030 H 
ATOM     58  H27 ALA d   1       4.370  46.038  17.801  0.00  0.00     0.030 H 
ENDBRANCH  13  55
ENDBRANCH  10  13
ENDBRANCH   7   9
BRANCH   7  59
ATOM     59  CB  ALA d   1       3.254  42.208  12.521  0.00  0.00    -0.049 C 
ATOM     60  H30 ALA d   1       2.615  41.449  12.045  0.00  0.00     0.030 H 
ATOM     61  H31 ALA d   1       4.275  41.813  12.628  0.00  0.00     0.030 H 
ATOM     62  H32 ALA d   1       3.275  43.114  11.897  0.00  0.00     0.030 H 
ENDBRANCH   7  59
ENDBRANCH   4   7
ENDBRANCH   1   3
BRANCH   1  63
ATOM     63  CB  VAL d   1       0.103  39.722  16.766  0.00  0.00    -0.033 C 
ATOM     64  H35 VAL d   1      -0.776  39.778  16.108  0.00  0.00     0.042 H 
BRANCH  63  65
ATOM     65  CG2 VAL d   1       0.148  40.978  17.606  0.00  0.00    -0.071 C 
ATOM     66  H39 VAL d   1       0.259  41.854  16.950  0.00  0.00     0.028 H 
ATOM     67  H40 VAL d   1       1.003  40.927  18.297  0.00  0.00     0.028 H 
ATOM     68  H41 VAL d   1      -0.784  41.067  18.183  0.00  0.00     0.028 H 
ENDBRANCH  63  65
BRANCH  63  69
ATOM     69  CG1 VAL d   1      -0.048  38.513  17.645  0.00  0.00    -0.071 C 
ATOM     70  H36 VAL d   1      -0.952  38.619  18.262  0.00  0.00     0.028 H 
ATOM     71  H37 VAL d   1       0.833  38.422  18.298  0.00  0.00     0.028 H 
ATOM     72  H38 VAL d   1      -0.135  37.613  17.019  0.00  0.00     0.028 H 
ENDBRANCH  63  69
ENDBRANCH   1  63
BRANCH   1  73
ATOM     73  C   VAL d   1       1.260  38.460  14.890  0.00  0.00     0.241 C 
ATOM     74  O   VAL d   1       0.239  38.320  14.204  0.00  0.00    -0.271 OA
ATOM     75  N   VAL d   1       2.295  37.614  14.862  0.00  0.00    -0.346 N 
ATOM     76  H42 VAL d   1       2.973  37.669  15.595  0.00  0.00     0.163 HD
BRANCH  75  77
ATOM     77  CA  VAL d   1       2.484  36.613  13.813  0.00  0.00     0.092 C 
ATOM     78  H43 VAL d   1       1.736  36.777  13.023  0.00  0.00     0.088 H 
BRANCH  77  79
ATOM     79  CB  VAL d   1       3.922  36.754  13.207  0.00  0.00    -0.033 C 
ATOM     80  H44 VAL d   1       4.644  36.596  14.021  0.00  0.00     0.042 H 
BRANCH  79  81
ATOM     81  CG2 VAL d   1       4.122  38.158  12.667  0.00  0.00    -0.071 C 
ATOM     82  H48 VAL d   1       3.908  38.890  13.460  0.00  0.00     0.028 H 
ATOM     83  H49 VAL d   1       3.441  38.326  11.820  0.00  0.00     0.028 H 
ATOM     84  H50 VAL d   1       5.162  38.276  12.330  0.00  0.00     0.028 H 
ENDBRANCH  79  81
BRANCH  79  85
ATOM     85  CG1 VAL d   1       4.217  35.694  12.109  0.00  0.00    -0.071 C 
ATOM     86  H45 VAL d   1       5.236  35.841  11.722  0.00  0.00     0.028 H 
ATOM     87  H46 VAL d   1       3.493  35.805  11.288  0.00  0.00     0.028 H 
ATOM     88  H47 VAL d   1       4.131  34.686  12.540  0.00  0.00     0.028 H 
ENDBRANCH  79  85
ENDBRANCH  77  79
BRANCH  77  89
ATOM     89  C   VAL d   1       2.326  35.208  14.365  0.00  0.00     0.241 C 
ATOM     90  O   VAL d   1       2.991  34.832  15.338  0.00  0.00    -0.271 OA
ATOM     91  N   ALA d   1       1.476  34.428  13.709  0.00  0.00    -0.346 N 
ATOM     92  H51 ALA d   1       0.961  34.825  12.950  0.00  0.00     0.163 HD
BRANCH  91  93
ATOM     93  CA  ALA d   1       1.253  33.035  14.031  0.00  0.00     0.086 C 
ATOM     94  H52 ALA d   1       1.448  32.883  15.103  0.00  0.00     0.086 H 
BRANCH  93  95
ATOM     95  CB  ALA d   1      -0.215  32.668  13.733  0.00  0.00    -0.049 C 
ATOM     96  H53 ALA d   1      -0.385  31.609  13.978  0.00  0.00     0.030 H 
ATOM     97  H54 ALA d   1      -0.426  32.836  12.667  0.00  0.00     0.030 H 
ATOM     98  H55 ALA d   1      -0.881  33.297  14.342  0.00  0.00     0.030 H 
ENDBRANCH  93  95
BRANCH  93  99
ATOM     99  C   ALA d   1       2.193  32.134  13.230  0.00  0.00     0.243 C 
ATOM    100  O   ALA d   1       2.609  32.492  12.146  0.00  0.00    -0.271 OA
ATOM    101  N   PRO d   1       2.489  30.941  13.747  0.00  0.00    -0.337 N 
ATOM    102  CA  PRO d   1       3.382  29.986  13.077  0.00  0.00     0.091 C 
ATOM    103  CD  PRO d   1       1.994  30.414  15.033  0.00  0.00    -0.001 C 
ATOM    104  CB  PRO d   1       3.739  29.022  14.200  0.00  0.00    -0.036 C 
ATOM    105  H56 PRO d   1       4.275  30.517  12.715  0.00  0.00     0.087 H 
ATOM    106  CG  PRO d   1       2.591  29.058  15.108  0.00  0.00    -0.048 C 
ATOM    107  H57 PRO d   1       4.652  29.352  14.717  0.00  0.00     0.036 H 
ATOM    108  H58 PRO d   1       3.888  28.006  13.805  0.00  0.00     0.036 H 
ATOM    109  H59 PRO d   1       1.849  28.305  14.803  0.00  0.00     0.035 H 
ATOM    110  H60 PRO d   1       2.921  28.851  16.137  0.00  0.00     0.035 H 
ATOM    111  H61 PRO d   1       0.895  30.360  15.039  0.00  0.00     0.064 H 
ATOM    112  H62 PRO d   1       2.335  31.040  15.871  0.00  0.00     0.064 H 
BRANCH 102 113
ATOM    113  C   PRO d   1       2.795  29.183  11.902  0.00  0.00     0.241 C 
ATOM    114  O   PRO d   1       1.670  28.646  11.990  0.00  0.00    -0.271 OA
ATOM    115  N   ILE d   1       3.573  29.085  10.821  0.00  0.00    -0.344 N 
ATOM    116  H63 ILE d   1       4.345  29.713  10.724  0.00  0.00     0.163 HD
BRANCH 115 117
ATOM    117  CA  ILE d   1       3.334  28.083   9.766  0.00  0.00     0.096 C 
ATOM    118  H64 ILE d   1       2.243  28.022   9.640  0.00  0.00     0.090 H 
BRANCH 117 119
ATOM    119  CB  ILE d   1       3.918  28.549   8.390  0.00  0.00    -0.029 C 
ATOM    120  H65 ILE d   1       4.990  28.303   8.373  0.00  0.00     0.043 H 
BRANCH 119 121
ATOM    121  CG2 ILE d   1       3.237  27.802   7.233  0.00  0.00    -0.070 C 
ATOM    122  H68 ILE d   1       3.351  26.718   7.379  0.00  0.00     0.028 H 
ATOM    123  H69 ILE d   1       3.705  28.095   6.282  0.00  0.00     0.028 H 
ATOM    124  H70 ILE d   1       2.167  28.058   7.210  0.00  0.00     0.028 H 
ENDBRANCH 119 121
BRANCH 119 125
ATOM    125  CG1 ILE d   1       3.776  30.063   8.215  0.00  0.00    -0.063 C 
ATOM    126  H66 ILE d   1       4.238  30.555   9.084  0.00  0.00     0.033 H 
ATOM    127  H67 ILE d   1       2.704  30.307   8.182  0.00  0.00     0.033 H 
BRANCH 125 128
ATOM    128  CD1 ILE d   1       4.426  30.609   6.959  0.00  0.00    -0.076 C 
ATOM    129  H71 ILE d   1       4.277  31.698   6.913  0.00  0.00     0.027 H 
ATOM    130  H72 ILE d   1       3.969  30.139   6.076  0.00  0.00     0.027 H 
ATOM    131  H73 ILE d   1       5.503  30.387   6.977  0.00  0.00     0.027 H 
ENDBRANCH 125 128
ENDBRANCH 119 125
ENDBRANCH 117 119
BRANCH 117 132
ATOM    132  C   ILE d   1       3.812  26.636  10.151  0.00  0.00     0.163 C 
ATOM    133  O   ILE d   1       4.987  26.339  10.463  0.00  0.00    -0.648 OA
BRANCH 132 134
ATOM    134  O1  ILE d   1       2.907  25.662  10.145  0.00  0.00    -0.775 OA
ATOM    135  H74 ILE d   1       2.062  26.017   9.893  0.00  0.00     0.167 HD
ENDBRANCH 132 134
ENDBRANCH 117 132
ENDBRANCH 115 117
ENDBRANCH 102 113
ENDBRANCH  93  99
ENDBRANCH  91  93
ENDBRANCH  77  89
ENDBRANCH  75  77
ENDBRANCH   1  73
TORSDOF 35
