REMARK  10 active torsions:
REMARK  status: ('A' for Active; 'I' for Inactive)
REMARK    1  A    between atoms: N3B_8  and  PG_1 
REMARK    2  A    between atoms: PB_5  and  N3B_8 
REMARK    3  A    between atoms: O3A_12  and  PB_5 
REMARK    4  A    between atoms: PA_9  and  O3A_12 
REMARK    5  A    between atoms: PA_9  and  O5_13 
REMARK    6  A    between atoms: O5_13  and  C5_14 
REMARK    7  A    between atoms: C5_14  and  C4_15 
REMARK    8  A    between atoms: C3_17  and  O3_18 
REMARK    9  A    between atoms: C2_19  and  O2_20 
REMARK   10  A    between atoms: C1_21  and  N9_22 
ROOT
ATOM      1  C4  ANP d   1     111.817   3.449  -5.255  0.00  0.00     0.089 C 
ATOM      2  O4  ANP d   1     110.388   3.226  -5.393  0.00  0.00    -0.353 OA
ATOM      3  C3  ANP d   1     112.336   2.410  -4.280  0.00  0.00     0.091 C 
ATOM      4  C2  ANP d   1     111.220   2.346  -3.272  0.00  0.00     0.105 C 
ATOM      5  C1  ANP d   1     109.982   2.667  -4.109  0.00  0.00     0.139 C 
ATOM      6  H4  ANP d   1     112.047   4.480  -4.947  0.00  0.00     0.090 H 
ATOM      7  H5  ANP d   1     112.481   1.439  -4.776  0.00  0.00     0.091 H 
ATOM      8  H7  ANP d   1     111.148   1.341  -2.830  0.00  0.00     0.093 H 
ATOM      9  H9  ANP d   1     109.346   3.382  -3.566  0.00  0.00     0.122 H 
ENDROOT
BRANCH   1  10
ATOM     10  C5  ANP d   1     112.481   3.064  -6.569  0.00  0.00     0.058 C 
ATOM     11  H2  ANP d   1     113.494   2.686  -6.369  0.00  0.00     0.079 H 
ATOM     12  H3  ANP d   1     111.887   2.280  -7.062  0.00  0.00     0.079 H 
BRANCH  10  13
ATOM     13  O5  ANP d   1     112.563   4.219  -7.435  0.00  0.00    -0.287 OA
BRANCH  13  14
ATOM     14  PA  ANP d   1     113.734   4.411  -8.536  0.00  0.00     0.417 P 
ATOM     15  O1A ANP d   1     114.962   4.899  -7.865  0.00  0.00    -0.624 OA
ATOM     16  O2A ANP d   1     113.225   5.246  -9.650  0.00  0.00    -0.624 OA
BRANCH  14  17
ATOM     17  O3A ANP d   1     113.982   2.903  -9.070  0.00  0.00    -0.186 OA
BRANCH  17  18
ATOM     18  PB  ANP d   1     115.426   2.187  -9.035  0.00  0.00     0.379 P 
ATOM     19  O1B ANP d   1     115.761   1.630  -7.680  0.00  0.00    -0.629 OA
ATOM     20  O2B ANP d   1     116.519   3.067  -9.570  0.00  0.00    -0.629 OA
BRANCH  18  21
ATOM     21  N3B ANP d   1     115.234   0.947 -10.055  0.00  0.00    -0.218 N 
ATOM     22  H1  ANP d   1     114.481   0.908 -10.712  0.00  0.00     0.179 HD
BRANCH  21  23
ATOM     23  PG  ANP d   1     116.337  -0.222  -9.942  0.00  0.00     0.381 P 
ATOM     24  O1G ANP d   1     115.655  -1.531 -10.247  0.00  0.00    -0.622 OA
ATOM     25  O2G ANP d   1     117.423   0.070 -10.946  0.00  0.00    -0.622 OA
ATOM     26  O3G ANP d   1     116.879  -0.205  -8.536  0.00  0.00    -0.622 OA
ENDBRANCH  21  23
ENDBRANCH  18  21
ENDBRANCH  17  18
ENDBRANCH  14  17
ENDBRANCH  13  14
ENDBRANCH  10  13
ENDBRANCH   1  10
BRANCH   3  27
ATOM     27  O3  ANP d   1     113.556   2.813  -3.672  0.00  0.00    -0.390 OA
ATOM     28  H6  ANP d   1     113.419   3.624  -3.197  0.00  0.00     0.210 HD
ENDBRANCH   3  27
BRANCH   5  29
ATOM     29  N9  ANP d   1     109.210   1.410  -4.405  0.00  0.00    -0.294 N 
ATOM     30  C8  ANP d   1     109.734   0.178  -4.451  0.00  0.00     0.071 A 
ATOM     31  N7  ANP d   1     108.787  -0.723  -4.728  0.00  0.00    -0.236 NA
ATOM     32  H10 ANP d   1     110.785  -0.056  -4.286  0.00  0.00     0.144 H 
ATOM     33  C5  ANP d   1     107.643  -0.070  -4.865  0.00  0.00     0.149 A 
ATOM     34  C6  ANP d   1     106.292  -0.427  -5.140  0.00  0.00     0.155 A 
ATOM     35  C4  ANP d   1     107.909   1.307  -4.665  0.00  0.00     0.167 A 
ATOM     36  N6  ANP d   1     105.955  -1.699  -5.320  0.00  0.00    -0.382 N 
ATOM     37  N1  ANP d   1     105.325   0.550  -5.208  0.00  0.00    -0.222 NA
ATOM     38  H11 ANP d   1     104.976  -1.949  -5.519  0.00  0.00     0.157 HD
ATOM     39  H12 ANP d   1     106.673  -2.435  -5.261  0.00  0.00     0.157 HD
ATOM     40  C2  ANP d   1     105.597   1.879  -5.019  0.00  0.00     0.091 A 
ATOM     41  N3  ANP d   1     106.886   2.237  -4.760  0.00  0.00    -0.222 NA
ATOM     42  H13 ANP d   1     104.811   2.623  -5.074  0.00  0.00     0.146 H 
ENDBRANCH   5  29
BRANCH   4  43
ATOM     43  O2  ANP d   1     111.394   3.305  -2.237  0.00  0.00    -0.388 OA
ATOM     44  H8  ANP d   1     112.215   3.139  -1.788  0.00  0.00     0.210 HD
ENDBRANCH   4  43
TORSDOF 10
