REMARK  3 active torsions:
REMARK  status: ('A' for Active; 'I' for Inactive)
REMARK    1  A    between atoms: C3_2  and  C8_7 
REMARK    2  A    between atoms: C6_5  and  C17_9 
REMARK    3  A    between atoms: C17_9  and  C22_11 
ROOT
ATOM      1  C2  LEO d   1      21.340   1.453  58.797  0.00  0.00    -0.031 C 
ATOM      2  C3  LEO d   1      19.402   2.497  57.416  0.00  0.00     0.084 A 
ATOM      3  C4  LEO d   1      19.092   0.383  58.810  0.00  0.00    -0.055 C 
ATOM      4  C5  LEO d   1      18.539   1.276  57.684  0.00  0.00    -0.033 C 
ATOM      5  C6  LEO d   1      20.600   0.104  58.634  0.00  0.00    -0.031 C 
ATOM      6  C7  LEO d   1      20.775   2.559  57.945  0.00  0.00     0.070 A 
ATOM      7  O14 LEO d   1      20.558   2.230  56.526  0.00  0.00    -0.370 OA
ATOM      8  H1  LEO d   1      22.395   1.306  58.521  0.00  0.00     0.037 H 
ATOM      9  H2  LEO d   1      21.276   1.759  59.852  0.00  0.00     0.037 H 
ATOM     10  H3  LEO d   1      18.550  -0.574  58.804  0.00  0.00     0.034 H 
ATOM     11  H4  LEO d   1      18.934   0.888  59.775  0.00  0.00     0.034 H 
ATOM     12  H5  LEO d   1      18.479   0.680  56.761  0.00  0.00     0.037 H 
ATOM     13  H6  LEO d   1      17.532   1.614  57.968  0.00  0.00     0.037 H 
ATOM     14  H7  LEO d   1      20.914  -0.538  59.470  0.00  0.00     0.047 H 
ATOM     15  H8  LEO d   1      21.197   3.528  58.251  0.00  0.00     0.088 H 
ENDROOT
BRANCH   5  16
ATOM     16  C17 LEO d   1      20.937  -0.680  57.357  0.00  0.00    -0.089 C 
ATOM     17  C21 LEO d   1      20.095  -0.760  56.345  0.00  0.00    -0.119 C 
ATOM     18  H12 LEO d   1      20.366  -1.325  55.454  0.00  0.00     0.067 H 
ATOM     19  H13 LEO d   1      19.128  -0.261  56.400  0.00  0.00     0.067 H 
BRANCH  16  20
ATOM     20  C22 LEO d   1      22.244  -1.448  57.328  0.00  0.00    -0.055 C 
ATOM     21  H14 LEO d   1      22.349  -1.956  56.358  0.00  0.00     0.033 H 
ATOM     22  H15 LEO d   1      22.249  -2.195  58.136  0.00  0.00     0.033 H 
ATOM     23  H16 LEO d   1      23.083  -0.750  57.469  0.00  0.00     0.033 H 
ENDBRANCH  16  20
ENDBRANCH   5  16
BRANCH   2  24
ATOM     24  C8  LEO d   1      18.686   3.780  57.067  0.00  0.00    -0.045 C 
ATOM     25  H9  LEO d   1      17.679   3.547  56.690  0.00  0.00     0.031 H 
ATOM     26  H10 LEO d   1      19.253   4.317  56.292  0.00  0.00     0.031 H 
ATOM     27  H11 LEO d   1      18.604   4.410  57.965  0.00  0.00     0.031 H 
ENDBRANCH   2  24
TORSDOF 3
