REMARK  14 active torsions:
REMARK  status: ('A' for Active; 'I' for Inactive)
REMARK    1  A    between atoms: C2_2  and  C8_8 
REMARK    2  A    between atoms: C5_5  and  C7_7 
REMARK    3  A    between atoms: C7_7  and  N11_11 
REMARK    4  A    between atoms: C8_8  and  N9_9 
REMARK       I    between atoms: N11_11  and  C12_12 
REMARK    5  A    between atoms: C12_12  and  C13_13 
REMARK    6  A    between atoms: C13_13  and  C15_15 
REMARK    7  A    between atoms: C13_13  and  N17_17 
REMARK    8  A    between atoms: N17_17  and  C16_16 
REMARK       I    between atoms: N17_17  and  C18_18 
REMARK    9  A    between atoms: C18_18  and  C19_19 
REMARK   10  A    between atoms: C19_19  and  N21_21 
REMARK   11  A    between atoms: C19_19  and  C26_26 
REMARK   12  A    between atoms: N21_21  and  C22_22 
REMARK   13  A    between atoms: C22_22  and  C23_23 
REMARK   14  A    between atoms: C26_26  and  C27_27 
ROOT
ATOM      1  N17 NA9 d   1      18.703  19.564  21.763  0.00  0.00    -0.342 N 
ATOM      2  C18 NA9 d   1      17.970  19.141  22.871  0.00  0.00     0.251 C 
ATOM      3  O20 NA9 d   1      17.147  19.881  23.370  0.00  0.00    -0.271 OA
ENDROOT
BRANCH   1   4
ATOM      4  C13 NA9 d   1      18.471  20.946  21.198  0.00  0.00     0.088 C 
ATOM      5  H11 NA9 d   1      18.465  21.662  22.033  0.00  0.00     0.087 H 
BRANCH   4   6
ATOM      6  C12 NA9 d   1      17.127  20.988  20.515  0.00  0.00     0.240 C 
ATOM      7  N11 NA9 d   1      16.375  22.122  20.599  0.00  0.00    -0.355 N 
ATOM      8  H10 NA9 d   1      16.736  22.907  21.101  0.00  0.00     0.162 HD
ATOM      9  O14 NA9 d   1      16.729  20.005  19.914  0.00  0.00    -0.271 OA
BRANCH   7  10
ATOM     10  C7  NA9 d   1      15.046  22.225  19.972  0.00  0.00     0.020 C 
ATOM     11  H4  NA9 d   1      14.970  23.170  19.414  0.00  0.00     0.071 H 
ATOM     12  H5  NA9 d   1      14.893  21.380  19.285  0.00  0.00     0.071 H 
BRANCH  10  13
ATOM     13  C5  NA9 d   1      14.005  22.192  21.061  0.00  0.00    -0.023 A 
ATOM     14  C4  NA9 d   1      13.645  23.373  21.734  0.00  0.00     0.011 A 
ATOM     15  N3  NA9 d   1      12.723  23.348  22.709  0.00  0.00    -0.257 NA
ATOM     16  H2  NA9 d   1      14.116  24.311  21.463  0.00  0.00     0.115 H 
ATOM     17  C2  NA9 d   1      12.104  22.214  23.093  0.00  0.00     0.099 A 
ATOM     18  C1  NA9 d   1      12.416  20.981  22.458  0.00  0.00    -0.051 A 
ATOM     19  C6  NA9 d   1      13.381  20.977  21.429  0.00  0.00    -0.072 A 
ATOM     20  H1  NA9 d   1      11.923  20.064  22.758  0.00  0.00     0.087 H 
ATOM     21  H3  NA9 d   1      13.642  20.053  20.926  0.00  0.00     0.084 H 
BRANCH  17  22
ATOM     22  C8  NA9 d   1      11.100  22.273  24.185  0.00  0.00     0.121 C 
ATOM     23  N10 NA9 d   1      10.909  23.419  24.835  0.00  0.00    -0.384 N 
ATOM     24  H8  NA9 d   1      11.450  24.256  24.574  0.00  0.00     0.157 HD
ATOM     25  H9  NA9 d   1      10.220  23.469  25.599  0.00  0.00     0.157 HD
BRANCH  22  26
ATOM     26  N9  NA9 d   1      10.398  21.189  24.524  0.00  0.00    -0.384 N 
ATOM     27  H6  NA9 d   1       9.704  21.241  25.283  0.00  0.00     0.157 HD
ATOM     28  H7  NA9 d   1      10.550  20.300  24.026  0.00  0.00     0.157 HD
ENDBRANCH  22  26
ENDBRANCH  17  22
ENDBRANCH  10  13
ENDBRANCH   7  10
ENDBRANCH   4   6
BRANCH   4  29
ATOM     29  C15 NA9 d   1      19.572  21.373  20.211  0.00  0.00    -0.049 C 
ATOM     30  H12 NA9 d   1      19.354  22.382  19.832  0.00  0.00     0.030 H 
ATOM     31  H13 NA9 d   1      19.605  20.665  19.370  0.00  0.00     0.030 H 
ATOM     32  H14 NA9 d   1      20.544  21.377  20.726  0.00  0.00     0.030 H 
ENDBRANCH   4  29
ENDBRANCH   1   4
BRANCH   1  33
ATOM     33  C16 NA9 d   1      19.705  18.663  21.142  0.00  0.00    -0.015 C 
ATOM     34  H15 NA9 d   1      19.730  17.709  21.689  0.00  0.00     0.056 H 
ATOM     35  H16 NA9 d   1      20.698  19.135  21.183  0.00  0.00     0.056 H 
ATOM     36  H17 NA9 d   1      19.430  18.477  20.093  0.00  0.00     0.056 H 
ENDBRANCH   1  33
BRANCH   2  37
ATOM     37  C19 NA9 d   1      18.162  17.754  23.492  0.00  0.00     0.179 C 
ATOM     38  H18 NA9 d   1      18.998  17.242  22.993  0.00  0.00     0.099 H 
BRANCH  37  39
ATOM     39  N21 NA9 d   1      16.917  16.981  23.326  0.00  0.00    -0.053 N 
ATOM     40  H19 NA9 d   1      16.212  17.463  23.861  0.00  0.00     0.278 HD
ATOM     41  H20 NA9 d   1      17.090  16.076  23.736  0.00  0.00     0.278 HD
BRANCH  39  42
ATOM     42  C22 NA9 d   1      16.328  16.728  22.002  0.00  0.00     0.161 C 
ATOM     43  H21 NA9 d   1      16.822  15.860  21.541  0.00  0.00     0.092 H 
ATOM     44  H22 NA9 d   1      16.468  17.612  21.363  0.00  0.00     0.092 H 
BRANCH  42  45
ATOM     45  C23 NA9 d   1      14.851  16.445  22.154  0.00  0.00     0.199 C 
ATOM     46  O24 NA9 d   1      14.377  16.207  23.259  0.00  0.00    -0.647 OA
ATOM     47  O25 NA9 d   1      14.127  16.454  21.166  0.00  0.00    -0.647 OA
ENDBRANCH  42  45
ENDBRANCH  39  42
ENDBRANCH  37  39
BRANCH  37  48
ATOM     48  C26 NA9 d   1      18.438  17.853  24.998  0.00  0.00    -0.026 C 
ATOM     49  H23 NA9 d   1      18.108  16.910  25.458  0.00  0.00     0.037 H 
ATOM     50  H24 NA9 d   1      17.834  18.684  25.392  0.00  0.00     0.037 H 
BRANCH  48  51
ATOM     51  C27 NA9 d   1      19.895  18.094  25.430  0.00  0.00    -0.052 C 
ATOM     52  C28 NA9 d   1      20.961  17.687  24.379  0.00  0.00    -0.062 C 
ATOM     53  C29 NA9 d   1      22.379  17.924  24.952  0.00  0.00    -0.065 C 
ATOM     54  H26 NA9 d   1      20.828  18.293  23.471  0.00  0.00     0.033 H 
ATOM     55  H27 NA9 d   1      20.841  16.622  24.130  0.00  0.00     0.033 H 
ATOM     56  C30 NA9 d   1      22.564  19.407  25.353  0.00  0.00    -0.065 C 
ATOM     57  H28 NA9 d   1      23.126  17.660  24.189  0.00  0.00     0.033 H 
ATOM     58  H29 NA9 d   1      22.521  17.289  25.839  0.00  0.00     0.033 H 
ATOM     59  C31 NA9 d   1      21.497  19.817  26.392  0.00  0.00    -0.065 C 
ATOM     60  H30 NA9 d   1      22.463  20.040  24.459  0.00  0.00     0.033 H 
ATOM     61  H31 NA9 d   1      23.565  19.544  25.788  0.00  0.00     0.033 H 
ATOM     62  C32 NA9 d   1      20.078  19.586  25.814  0.00  0.00    -0.062 C 
ATOM     63  H32 NA9 d   1      21.620  20.881  26.640  0.00  0.00     0.033 H 
ATOM     64  H33 NA9 d   1      21.623  19.212  27.302  0.00  0.00     0.033 H 
ATOM     65  H34 NA9 d   1      19.328  19.862  26.570  0.00  0.00     0.033 H 
ATOM     66  H35 NA9 d   1      19.944  20.211  24.919  0.00  0.00     0.033 H 
ATOM     67  H25 NA9 d   1      20.074  17.483  26.327  0.00  0.00     0.040 H 
ENDBRANCH  48  51
ENDBRANCH  37  48
ENDBRANCH   2  37
TORSDOF 14
