REMARK WARNING: 32 MAX_TORS EXCEEDED!!!
REMARK  65 active torsions:
REMARK  status: ('A' for Active; 'I' for Inactive)
REMARK    1  A    between atoms: N_1  and  CA_2 
REMARK    2  A    between atoms: CA_2  and  C_3 
REMARK    3  A    between atoms: CA_2  and  CB_5 
REMARK       I    between atoms: C_3  and  N_10 
REMARK    4  A    between atoms: CB_5  and  CG_6 
REMARK    5  A    between atoms: CG_6  and  CD_7 
REMARK       I    between atoms: CD_7  and  NE2_9 
REMARK    6  A    between atoms: N_10  and  CA_11 
REMARK    7  A    between atoms: CA_11  and  C_12 
REMARK    8  A    between atoms: CA_11  and  CB_14 
REMARK       I    between atoms: C_12  and  N_19 
REMARK    9  A    between atoms: CB_14  and  CG_15 
REMARK   10  A    between atoms: CG_15  and  CD_16 
REMARK       I    between atoms: CD_16  and  NE2_18 
REMARK   11  A    between atoms: N_19  and  CA_20 
REMARK   12  A    between atoms: CA_20  and  C_21 
REMARK   13  A    between atoms: CA_20  and  CB_23 
REMARK       I    between atoms: C_21  and  N_28 
REMARK   14  A    between atoms: CB_23  and  CG_24 
REMARK   15  A    between atoms: CG_24  and  CD_25 
REMARK   16  A    between atoms: CD_25  and  CE_26 
REMARK   17  A    between atoms: CE_26  and  NZ_27 
REMARK   18  A    between atoms: N_28  and  CA_29 
REMARK   19  A    between atoms: CA_29  and  C_30 
REMARK   20  A    between atoms: CA_29  and  CB_32 
REMARK       I    between atoms: C_30  and  N_34 
REMARK   21  A    between atoms: CB_32  and  OG_33 
REMARK   22  A    between atoms: N_34  and  CA_35 
REMARK   23  A    between atoms: CA_35  and  C_36 
REMARK   24  A    between atoms: CA_35  and  CB_38 
REMARK       I    between atoms: C_36  and  N_42 
REMARK   25  A    between atoms: CB_38  and  CG_39 
REMARK   26  A    between atoms: CG_39  and  CD1_40 
REMARK   27  A    between atoms: CG_39  and  CD2_41 
REMARK   28  A    between atoms: N_42  and  CA_43 
REMARK   29  A    between atoms: CA_43  and  C_44 
REMARK   30  A    between atoms: CA_43  and  CB_46 
REMARK       I    between atoms: C_44  and  N_50 
REMARK   31  A    between atoms: CB_46  and  CG_47 
REMARK   32  A    between atoms: CG_47  and  CD1_48 
REMARK   33  A    between atoms: CG_47  and  CD2_49 
REMARK   34  A    between atoms: N_50  and  CA_51 
REMARK   35  A    between atoms: CA_51  and  C_52 
REMARK   36  A    between atoms: CA_51  and  CB_54 
REMARK       I    between atoms: C_52  and  N_59 
REMARK   37  A    between atoms: CB_54  and  CG_55 
REMARK   38  A    between atoms: CG_55  and  CD_56 
REMARK       I    between atoms: CD_56  and  NE2_58 
REMARK   39  A    between atoms: N_59  and  CA_60 
REMARK   40  A    between atoms: CA_60  and  C_61 
REMARK   41  A    between atoms: CA_60  and  CB_63 
REMARK       I    between atoms: C_61  and  N_68 
REMARK   42  A    between atoms: CB_63  and  CG_64 
REMARK   43  A    between atoms: CG_64  and  CD_65 
REMARK       I    between atoms: CD_65  and  NE2_67 
REMARK   44  A    between atoms: N_68  and  CA_69 
REMARK   45  A    between atoms: CA_69  and  C_70 
REMARK   46  A    between atoms: CA_69  and  CB_72 
REMARK       I    between atoms: C_70  and  N_76 
REMARK   47  A    between atoms: CB_72  and  CG_73 
REMARK   48  A    between atoms: CG_73  and  CD1_74 
REMARK   49  A    between atoms: CG_73  and  CD2_75 
REMARK   50  A    between atoms: N_76  and  CA_77 
REMARK   51  A    between atoms: CA_77  and  C_78 
REMARK   52  A    between atoms: CA_77  and  CB_80 
REMARK       I    between atoms: C_78  and  N_84 
REMARK   53  A    between atoms: CB_80  and  CG_81 
REMARK   54  A    between atoms: CG_81  and  CD1_82 
REMARK   55  A    between atoms: CG_81  and  CD2_83 
REMARK   56  A    between atoms: N_84  and  CA_85 
REMARK   57  A    between atoms: CA_85  and  C_86 
REMARK   58  A    between atoms: CA_85  and  CB_88 
REMARK       I    between atoms: C_86  and  N_91 
REMARK   59  A    between atoms: CB_88  and  OG1_89 
REMARK   60  A    between atoms: CB_88  and  CG2_90 
REMARK   61  A    between atoms: N_91  and  CA_92 
REMARK   62  A    between atoms: CA_92  and  C_93 
REMARK   63  A    between atoms: CA_92  and  CB_95 
REMARK   64  A    between atoms: CB_95  and  CG_96 
REMARK   65  A    between atoms: CG_96  and  CD_97 
ROOT
ATOM      1  CA  GLN d   1      36.518  77.583   4.505  0.00  0.00     0.089 C 
ATOM      2  H49 GLN d   1      36.060  76.604   4.710  0.00  0.00     0.087 H 
ENDROOT
BRANCH   1   3
ATOM      3  N   GLN d   1      37.267  78.008   5.682  0.00  0.00    -0.346 N 
ATOM      4  C   GLN d   1      38.270  77.281   6.165  0.00  0.00     0.241 C 
ATOM      5  O   GLN d   1      38.623  76.215   5.666  0.00  0.00    -0.271 OA
ATOM      6  H48 GLN d   1      37.021  78.865   6.136  0.00  0.00     0.163 HD
BRANCH   4   7
ATOM      7  CA  GLN d   1      38.989  77.833   7.391  0.00  0.00     0.089 C 
ATOM      8  H38 GLN d   1      39.971  77.341   7.440  0.00  0.00     0.087 H 
BRANCH   7   9
ATOM      9  N   GLN d   1      39.218  79.263   7.317  0.00  0.00    -0.346 N 
ATOM     10  C   GLN d   1      39.843  79.827   6.295  0.00  0.00     0.243 C 
ATOM     11  O   GLN d   1      40.262  79.193   5.325  0.00  0.00    -0.271 OA
ATOM     12  H37 GLN d   1      38.893  79.843   8.064  0.00  0.00     0.163 HD
BRANCH  10  13
ATOM     13  CA  GLN d   1      40.017  81.332   6.399  0.00  0.00     0.109 C 
ATOM     14  H33 GLN d   1      39.397  81.713   7.224  0.00  0.00     0.090 H 
BRANCH  13  15
ATOM     15  N   GLN d   1      41.420  81.621   6.690  0.00  0.00    -0.344 N 
ATOM     16  C   GLN d   1      42.388  81.486   5.789  0.00  0.00     0.241 C 
ATOM     17  O   GLN d   1      42.182  81.148   4.623  0.00  0.00    -0.271 OA
ATOM     18  H32 GLN d   1      41.663  81.934   7.608  0.00  0.00     0.163 HD
BRANCH  16  19
ATOM     19  CA  GLN d   1      43.803  81.789   6.268  0.00  0.00     0.089 C 
ATOM     20  H20 GLN d   1      44.371  80.847   6.271  0.00  0.00     0.087 H 
BRANCH  19  21
ATOM     21  N   GLN d   1      44.479  82.719   5.369  0.00  0.00    -0.346 N 
ATOM     22  C   GLN d   1      44.356  84.039   5.452  0.00  0.00     0.241 C 
ATOM     23  O   GLN d   1      43.665  84.607   6.296  0.00  0.00    -0.271 OA
ATOM     24  H19 GLN d   1      45.066  82.342   4.652  0.00  0.00     0.163 HD
BRANCH  22  25
ATOM     25  CA  GLN d   1      45.144  84.832   4.420  0.00  0.00     0.090 C 
ATOM     26  H12 GLN d   1      45.591  84.126   3.705  0.00  0.00     0.087 H 
BRANCH  25  27
ATOM     27  N   GLN d   1      44.280  85.739   3.685  0.00  0.00    -0.346 N 
ATOM     28  C   GLN d   1      44.348  85.828   2.360  0.00  0.00     0.249 C 
ATOM     29  O   GLN d   1      45.139  85.171   1.682  0.00  0.00    -0.271 OA
ATOM     30  H11 GLN d   1      43.624  86.305   4.183  0.00  0.00     0.163 HD
BRANCH  28  31
ATOM     31  CA  GLN d   1      43.383  86.796   1.696  0.00  0.00     0.176 C 
ATOM     32  H4  GLN d   1      43.594  87.800   2.091  0.00  0.00     0.099 H 
BRANCH  31  33
ATOM     33  N   GLN d   1      43.630  86.824   0.226  0.00  0.00    -0.066 N 
ATOM     34  H1  GLN d   1      42.988  87.467  -0.210  0.00  0.00     0.275 HD
ATOM     35  H2  GLN d   1      43.492  85.901  -0.155  0.00  0.00     0.275 HD
ATOM     36  H3  GLN d   1      44.577  87.123   0.050  0.00  0.00     0.275 HD
ENDBRANCH  31  33
BRANCH  31  37
ATOM     37  CB  GLN d   1      41.911  86.479   2.020  0.00  0.00    -0.022 C 
ATOM     38  H5  GLN d   1      41.389  87.357   2.427  0.00  0.00     0.037 H 
ATOM     39  H6  GLN d   1      41.824  85.640   2.726  0.00  0.00     0.037 H 
BRANCH  37  40
ATOM     40  CG  GLN d   1      41.384  86.104   0.635  0.00  0.00     0.011 C 
ATOM     41  H7  GLN d   1      41.730  85.078   0.444  0.00  0.00     0.047 H 
ATOM     42  H8  GLN d   1      41.869  86.792  -0.073  0.00  0.00     0.047 H 
BRANCH  40  43
ATOM     43  CD  GLN d   1      39.912  86.120   0.294  0.00  0.00     0.215 C 
ATOM     44  OE1 GLN d   1      39.157  85.515  -0.449  0.00  0.00    -0.274 OA
ATOM     45  NE2 GLN d   1      39.575  87.268   0.915  0.00  0.00    -0.370 N 
ATOM     46  H9  GLN d   1      38.629  87.592   0.888  0.00  0.00     0.159 HD
ATOM     47  H10 GLN d   1      40.271  87.795   1.403  0.00  0.00     0.159 HD
ENDBRANCH  40  43
ENDBRANCH  37  40
ENDBRANCH  31  37
ENDBRANCH  28  31
ENDBRANCH  25  27
BRANCH  25  48
ATOM     48  CB  GLN d   1      46.270  85.600   5.113  0.00  0.00    -0.030 C 
ATOM     49  H13 GLN d   1      45.825  86.357   5.776  0.00  0.00     0.037 H 
ATOM     50  H14 GLN d   1      46.881  86.098   4.346  0.00  0.00     0.037 H 
BRANCH  48  51
ATOM     51  CG  GLN d   1      47.171  84.692   5.943  0.00  0.00     0.011 C 
ATOM     52  H15 GLN d   1      46.554  84.175   6.693  0.00  0.00     0.047 H 
ATOM     53  H16 GLN d   1      47.923  85.313   6.452  0.00  0.00     0.047 H 
BRANCH  51  54
ATOM     54  CD  GLN d   1      47.893  83.644   5.099  0.00  0.00     0.215 C 
ATOM     55  OE1 GLN d   1      47.405  83.231   4.044  0.00  0.00    -0.274 OA
ATOM     56  NE2 GLN d   1      49.058  83.201   5.571  0.00  0.00    -0.370 N 
ATOM     57  H17 GLN d   1      49.576  82.514   5.061  0.00  0.00     0.159 HD
ATOM     58  H18 GLN d   1      49.414  83.555   6.436  0.00  0.00     0.159 HD
ENDBRANCH  51  54
ENDBRANCH  48  51
ENDBRANCH  25  48
ENDBRANCH  22  25
ENDBRANCH  19  21
BRANCH  19  59
ATOM     59  CB  GLN d   1      43.774  82.334   7.705  0.00  0.00    -0.038 C 
ATOM     60  H21 GLN d   1      43.373  81.549   8.363  0.00  0.00     0.036 H 
ATOM     61  H22 GLN d   1      43.107  83.208   7.728  0.00  0.00     0.036 H 
BRANCH  59  62
ATOM     62  CG  GLN d   1      45.140  82.760   8.246  0.00  0.00    -0.061 C 
ATOM     63  H23 GLN d   1      45.434  83.707   7.770  0.00  0.00     0.033 H 
ATOM     64  H24 GLN d   1      45.880  81.983   8.003  0.00  0.00     0.033 H 
BRANCH  62  65
ATOM     65  CD  GLN d   1      45.103  82.954   9.755  0.00  0.00    -0.043 C 
ATOM     66  H25 GLN d   1      44.100  83.298  10.048  0.00  0.00     0.035 H 
ATOM     67  H26 GLN d   1      45.848  83.713  10.037  0.00  0.00     0.035 H 
BRANCH  65  68
ATOM     68  CE  GLN d   1      45.416  81.654  10.487  0.00  0.00     0.080 C 
ATOM     69  H27 GLN d   1      45.240  81.805  11.562  0.00  0.00     0.075 H 
ATOM     70  H28 GLN d   1      46.474  81.402  10.320  0.00  0.00     0.075 H 
BRANCH  68  71
ATOM     71  NZ  GLN d   1      44.575  80.513  10.022  0.00  0.00    -0.079 N 
ATOM     72  H29 GLN d   1      44.822  79.682  10.536  0.00  0.00     0.274 HD
ATOM     73  H30 GLN d   1      44.733  80.358   9.039  0.00  0.00     0.274 HD
ATOM     74  H31 GLN d   1      43.602  80.727  10.177  0.00  0.00     0.274 HD
ENDBRANCH  68  71
ENDBRANCH  65  68
ENDBRANCH  62  65
ENDBRANCH  59  62
ENDBRANCH  19  59
ENDBRANCH  16  19
ENDBRANCH  13  15
BRANCH  13  75
ATOM     75  CB  GLN d   1      39.560  81.991   5.101  0.00  0.00     0.044 C 
ATOM     76  H34 GLN d   1      40.227  81.680   4.284  0.00  0.00     0.077 H 
ATOM     77  H35 GLN d   1      39.605  83.084   5.215  0.00  0.00     0.077 H 
BRANCH  75  78
ATOM     78  OG  GLN d   1      38.228  81.609   4.787  0.00  0.00    -0.398 OA
ATOM     79  H36 GLN d   1      37.962  82.029   3.977  0.00  0.00     0.209 HD
ENDBRANCH  75  78
ENDBRANCH  13  75
ENDBRANCH  10  13
ENDBRANCH   7   9
BRANCH   7  80
ATOM     80  CB  GLN d   1      38.232  77.506   8.691  0.00  0.00    -0.035 C 
ATOM     81  H39 GLN d   1      38.236  76.426   8.899  0.00  0.00     0.037 H 
ATOM     82  H40 GLN d   1      37.194  77.869   8.655  0.00  0.00     0.037 H 
BRANCH  80  83
ATOM     83  CG  GLN d   1      39.060  78.278   9.721  0.00  0.00    -0.059 C 
ATOM     84  H41 GLN d   1      39.400  79.271   9.391  0.00  0.00     0.038 H 
BRANCH  83  85
ATOM     85  CD1 GLN d   1      38.041  78.285  10.861  0.00  0.00    -0.073 C 
ATOM     86  H42 GLN d   1      38.464  78.815  11.727  0.00  0.00     0.028 H 
ATOM     87  H43 GLN d   1      37.802  77.250  11.145  0.00  0.00     0.028 H 
ATOM     88  H44 GLN d   1      37.125  78.796  10.531  0.00  0.00     0.028 H 
ENDBRANCH  83  85
BRANCH  83  89
ATOM     89  CD2 GLN d   1      40.203  77.368  10.173  0.00  0.00    -0.073 C 
ATOM     90  H45 GLN d   1      40.971  77.325   9.386  0.00  0.00     0.028 H 
ATOM     91  H46 GLN d   1      39.814  76.356  10.361  0.00  0.00     0.028 H 
ATOM     92  H47 GLN d   1      40.647  77.768  11.097  0.00  0.00     0.028 H 
ENDBRANCH  83  89
ENDBRANCH  80  83
ENDBRANCH   7  80
ENDBRANCH   4   7
ENDBRANCH   1   3
BRANCH   1  93
ATOM     93  C   GLN d   1      37.453  77.450   3.309  0.00  0.00     0.241 C 
ATOM     94  O   GLN d   1      37.433  76.440   2.605  0.00  0.00    -0.271 OA
ATOM     95  N   GLN d   1      38.273  78.472   3.083  0.00  0.00    -0.346 N 
ATOM     96  H59 GLN d   1      38.239  79.271   3.684  0.00  0.00     0.163 HD
BRANCH  95  97
ATOM     97  CA  GLN d   1      39.221  78.449   1.974  0.00  0.00     0.090 C 
ATOM     98  H60 GLN d   1      38.653  78.326   1.040  0.00  0.00     0.087 H 
BRANCH  97  99
ATOM     99  C   GLN d   1      40.206  77.291   2.097  0.00  0.00     0.241 C 
ATOM    100  O   GLN d   1      40.500  76.609   1.112  0.00  0.00    -0.271 OA
ATOM    101  N   GLN d   1      40.719  77.081   3.307  0.00  0.00    -0.346 N 
ATOM    102  H67 GLN d   1      40.440  77.675   4.062  0.00  0.00     0.163 HD
BRANCH 101 103
ATOM    103  CA  GLN d   1      41.675  76.011   3.565  0.00  0.00     0.090 C 
ATOM    104  H68 GLN d   1      42.563  76.173   2.936  0.00  0.00     0.087 H 
BRANCH 103 105
ATOM    105  C   GLN d   1      41.069  74.658   3.225  0.00  0.00     0.241 C 
ATOM    106  O   GLN d   1      41.637  73.891   2.457  0.00  0.00    -0.271 OA
ATOM    107  N   GLN d   1      39.906  74.378   3.801  0.00  0.00    -0.346 N 
ATOM    108  H75 GLN d   1      39.494  75.057   4.409  0.00  0.00     0.163 HD
BRANCH 107 109
ATOM    109  CA  GLN d   1      39.207  73.117   3.580  0.00  0.00     0.089 C 
ATOM    110  H76 GLN d   1      39.855  72.311   3.954  0.00  0.00     0.087 H 
BRANCH 109 111
ATOM    111  C   GLN d   1      38.894  72.818   2.119  0.00  0.00     0.241 C 
ATOM    112  O   GLN d   1      38.913  71.663   1.698  0.00  0.00    -0.271 OA
ATOM    113  N   GLN d   1      38.593  73.856   1.349  0.00  0.00    -0.346 N 
ATOM    114  H86 GLN d   1      38.595  74.776   1.741  0.00  0.00     0.163 HD
BRANCH 113 115
ATOM    115  CA  GLN d   1      38.258  73.678  -0.063  0.00  0.00     0.089 C 
ATOM    116  H87 GLN d   1      37.655  72.761  -0.146  0.00  0.00     0.087 H 
BRANCH 115 117
ATOM    117  C   GLN d   1      39.472  73.510  -0.963  0.00  0.00     0.241 C 
ATOM    118  O   GLN d   1      39.348  73.073  -2.107  0.00  0.00    -0.271 OA
ATOM    119  N   GLN d   1      40.650  73.847  -0.447  0.00  0.00    -0.344 N 
ATOM    120  H97 GLN d   1      40.699  74.188   0.492  0.00  0.00     0.163 HD
BRANCH 119 121
ATOM    121  CA  GLN d   1      41.870  73.725  -1.234  0.00  0.00     0.113 C 
ATOM    122  H98 GLN d   1      41.611  73.240  -2.187  0.00  0.00     0.091 H 
BRANCH 121 123
ATOM    123  C   GLN d   1      42.918  72.875  -0.532  0.00  0.00     0.243 C 
ATOM    124  O   GLN d   1      44.011  72.665  -1.061  0.00  0.00    -0.271 OA
ATOM    125  N   GLN d   1      42.567  72.377   0.650  0.00  0.00    -0.345 N 
ATOM    126 4H10 GLN d   1      41.651  72.568   1.003  0.00  0.00     0.163 HD
BRANCH 125 127
ATOM    127  CA  GLN d   1      43.473  71.562   1.448  0.00  0.00     0.097 C 
ATOM    128 5H10 GLN d   1      44.180  72.234   1.956  0.00  0.00     0.089 H 
BRANCH 127 129
ATOM    129  C   GLN d   1      44.266  70.604   0.573  0.00  0.00     0.196 C 
ATOM    130  O   GLN d   1      43.649  69.678  -0.002  0.00  0.00    -0.646 OA
ATOM    131  OXT GLN d   1      45.499  70.806   0.462  0.00  0.00    -0.646 OA
ENDBRANCH 127 129
BRANCH 127 132
ATOM    132  CB  GLN d   1      42.705  70.771   2.514  0.00  0.00    -0.028 C 
ATOM    133 6H10 GLN d   1      42.528  69.752   2.139  0.00  0.00     0.037 H 
ATOM    134 7H10 GLN d   1      41.740  71.268   2.696  0.00  0.00     0.037 H 
BRANCH 132 135
ATOM    135  CG  GLN d   1      43.467  70.681   3.836  0.00  0.00     0.018 C 
ATOM    136 8H10 GLN d   1      43.098  71.473   4.504  0.00  0.00     0.049 H 
ATOM    137 9H10 GLN d   1      44.536  70.841   3.632  0.00  0.00     0.049 H 
BRANCH 135 138
ATOM    138  CD  GLN d   1      43.308  69.344   4.543  0.00  0.00     0.172 C 
ATOM    139  OE1 GLN d   1      44.138  69.047   5.434  0.00  0.00    -0.648 OA
ATOM    140  OE2 GLN d   1      42.363  68.592   4.219  0.00  0.00    -0.648 OA
ENDBRANCH 135 138
ENDBRANCH 132 135
ENDBRANCH 127 132
ENDBRANCH 125 127
ENDBRANCH 121 123
BRANCH 121 141
ATOM    141  CB  GLN d   1      42.476  75.113  -1.537  0.00  0.00     0.060 C 
ATOM    142  H99 GLN d   1      43.346  74.990  -2.198  0.00  0.00     0.086 H 
BRANCH 141 143
ATOM    143  OG1 GLN d   1      42.890  75.745  -0.321  0.00  0.00    -0.393 OA
ATOM    144 0H10 GLN d   1      42.139  75.850   0.252  0.00  0.00     0.210 HD
ENDBRANCH 141 143
BRANCH 141 145
ATOM    145  CG2 GLN d   1      41.450  75.987  -2.217  0.00  0.00    -0.050 C 
ATOM    146 1H10 GLN d   1      41.890  76.972  -2.429  0.00  0.00     0.031 H 
ATOM    147 2H10 GLN d   1      40.578  76.109  -1.558  0.00  0.00     0.031 H 
ATOM    148 3H10 GLN d   1      41.134  75.516  -3.160  0.00  0.00     0.031 H 
ENDBRANCH 141 145
ENDBRANCH 121 141
ENDBRANCH 119 121
ENDBRANCH 115 117
BRANCH 115 149
ATOM    149  CB  GLN d   1      37.409  74.856  -0.551  0.00  0.00    -0.035 C 
ATOM    150  H88 GLN d   1      37.397  74.839  -1.651  0.00  0.00     0.037 H 
ATOM    151  H89 GLN d   1      37.881  75.787  -0.204  0.00  0.00     0.037 H 
BRANCH 149 152
ATOM    152  CG  GLN d   1      35.957  74.841  -0.056  0.00  0.00    -0.059 C 
ATOM    153  H90 GLN d   1      35.953  74.644   1.026  0.00  0.00     0.038 H 
BRANCH 152 154
ATOM    154  CD1 GLN d   1      35.298  76.191  -0.301  0.00  0.00    -0.073 C 
ATOM    155  H91 GLN d   1      34.259  76.163   0.059  0.00  0.00     0.028 H 
ATOM    156  H92 GLN d   1      35.306  76.413  -1.378  0.00  0.00     0.028 H 
ATOM    157  H93 GLN d   1      35.852  76.973   0.239  0.00  0.00     0.028 H 
ENDBRANCH 152 154
BRANCH 152 158
ATOM    158  CD2 GLN d   1      35.201  73.721  -0.759  0.00  0.00    -0.073 C 
ATOM    159  H94 GLN d   1      35.701  72.761  -0.563  0.00  0.00     0.028 H 
ATOM    160  H95 GLN d   1      35.187  73.912  -1.842  0.00  0.00     0.028 H 
ATOM    161  H96 GLN d   1      34.169  73.681  -0.380  0.00  0.00     0.028 H 
ENDBRANCH 152 158
ENDBRANCH 149 152
ENDBRANCH 115 149
ENDBRANCH 113 115
ENDBRANCH 109 111
BRANCH 109 162
ATOM    162  CB  GLN d   1      37.901  73.103   4.377  0.00  0.00    -0.035 C 
ATOM    163  H77 GLN d   1      37.310  72.242   4.032  0.00  0.00     0.037 H 
ATOM    164  H78 GLN d   1      37.362  74.034   4.148  0.00  0.00     0.037 H 
BRANCH 162 165
ATOM    165  CG  GLN d   1      38.020  73.001   5.898  0.00  0.00    -0.059 C 
ATOM    166  H79 GLN d   1      38.805  73.690   6.243  0.00  0.00     0.038 H 
BRANCH 165 167
ATOM    167  CD1 GLN d   1      36.701  73.392   6.562  0.00  0.00    -0.073 C 
ATOM    168  H80 GLN d   1      36.803  73.314   7.654  0.00  0.00     0.028 H 
ATOM    169  H81 GLN d   1      35.903  72.717   6.219  0.00  0.00     0.028 H 
ATOM    170  H82 GLN d   1      36.447  74.427   6.291  0.00  0.00     0.028 H 
ENDBRANCH 165 167
BRANCH 165 171
ATOM    171  CD2 GLN d   1      38.414  71.581   6.267  0.00  0.00    -0.073 C 
ATOM    172  H83 GLN d   1      39.365  71.325   5.777  0.00  0.00     0.028 H 
ATOM    173  H84 GLN d   1      37.631  70.885   5.933  0.00  0.00     0.028 H 
ATOM    174  H85 GLN d   1      38.532  71.505   7.358  0.00  0.00     0.028 H 
ENDBRANCH 165 171
ENDBRANCH 162 165
ENDBRANCH 109 162
ENDBRANCH 107 109
ENDBRANCH 103 105
BRANCH 103 175
ATOM    175  CB  GLN d   1      42.101  76.015   5.038  0.00  0.00    -0.030 C 
ATOM    176  H69 GLN d   1      42.696  75.108   5.224  0.00  0.00     0.037 H 
ATOM    177  H70 GLN d   1      41.191  75.990   5.656  0.00  0.00     0.037 H 
BRANCH 175 178
ATOM    178  CG  GLN d   1      42.928  77.216   5.465  0.00  0.00     0.011 C 
ATOM    179  H71 GLN d   1      42.345  78.130   5.277  0.00  0.00     0.047 H 
ATOM    180  H72 GLN d   1      43.850  77.240   4.865  0.00  0.00     0.047 H 
BRANCH 178 181
ATOM    181  CD  GLN d   1      43.307  77.174   6.941  0.00  0.00     0.215 C 
ATOM    182  OE1 GLN d   1      43.946  78.095   7.453  0.00  0.00    -0.274 OA
ATOM    183  NE2 GLN d   1      42.912  76.108   7.630  0.00  0.00    -0.370 N 
ATOM    184  H73 GLN d   1      43.134  76.030   8.602  0.00  0.00     0.159 HD
ATOM    185  H74 GLN d   1      42.393  75.384   7.176  0.00  0.00     0.159 HD
ENDBRANCH 178 181
ENDBRANCH 175 178
ENDBRANCH 103 175
ENDBRANCH 101 103
ENDBRANCH  97  99
BRANCH  97 186
ATOM    186  CB  GLN d   1      40.000  79.763   1.904  0.00  0.00    -0.030 C 
ATOM    187  H61 GLN d   1      40.847  79.625   1.215  0.00  0.00     0.037 H 
ATOM    188  H62 GLN d   1      40.380  79.992   2.911  0.00  0.00     0.037 H 
BRANCH 186 189
ATOM    189  CG  GLN d   1      39.183  80.950   1.422  0.00  0.00     0.011 C 
ATOM    190  H63 GLN d   1      38.318  81.077   2.090  0.00  0.00     0.047 H 
ATOM    191  H64 GLN d   1      38.830  80.743   0.401  0.00  0.00     0.047 H 
BRANCH 189 192
ATOM    192  CD  GLN d   1      39.979  82.239   1.409  0.00  0.00     0.215 C 
ATOM    193  OE1 GLN d   1      40.171  82.850   0.359  0.00  0.00    -0.274 OA
ATOM    194  NE2 GLN d   1      40.448  82.658   2.576  0.00  0.00    -0.370 N 
ATOM    195  H65 GLN d   1      40.980  83.503   2.627  0.00  0.00     0.159 HD
ATOM    196  H66 GLN d   1      40.269  82.129   3.406  0.00  0.00     0.159 HD
ENDBRANCH 189 192
ENDBRANCH 186 189
ENDBRANCH  97 186
ENDBRANCH  95  97
ENDBRANCH   1  93
BRANCH   1 197
ATOM    197  CB  GLN d   1      35.411  78.590   4.188  0.00  0.00    -0.035 C 
ATOM    198  H50 GLN d   1      35.593  78.986   3.178  0.00  0.00     0.037 H 
ATOM    199  H51 GLN d   1      35.478  79.408   4.920  0.00  0.00     0.037 H 
BRANCH 197 200
ATOM    200  CG  GLN d   1      33.984  78.039   4.228  0.00  0.00    -0.059 C 
ATOM    201  H52 GLN d   1      33.881  77.256   3.463  0.00  0.00     0.038 H 
BRANCH 200 202
ATOM    202  CD1 GLN d   1      33.714  77.430   5.595  0.00  0.00    -0.073 C 
ATOM    203  H53 GLN d   1      32.688  77.034   5.624  0.00  0.00     0.028 H 
ATOM    204  H54 GLN d   1      33.831  78.202   6.370  0.00  0.00     0.028 H 
ATOM    205  H55 GLN d   1      34.428  76.614   5.780  0.00  0.00     0.028 H 
ENDBRANCH 200 202
BRANCH 200 206
ATOM    206  CD2 GLN d   1      32.988  79.151   3.929  0.00  0.00    -0.073 C 
ATOM    207  H56 GLN d   1      33.201  79.577   2.937  0.00  0.00     0.028 H 
ATOM    208  H57 GLN d   1      33.077  79.938   4.693  0.00  0.00     0.028 H 
ATOM    209  H58 GLN d   1      31.967  78.742   3.941  0.00  0.00     0.028 H 
ENDBRANCH 200 206
ENDBRANCH 197 200
ENDBRANCH   1 197
TORSDOF 65
