REMARK  11 active torsions:
REMARK  status: ('A' for Active; 'I' for Inactive)
REMARK    1  A    between atoms: C29_2  and  C26_4 
REMARK    2  A    between atoms: C26_4  and  C32_7 
REMARK    3  A    between atoms: C23_10  and  O22_11 
REMARK    4  A    between atoms: O22_11  and  C20_12 
REMARK       I    between atoms: C20_12  and  N17_14 
REMARK    5  A    between atoms: N17_14  and  C16_15 
REMARK    6  A    between atoms: C16_15  and  C15_16 
REMARK    7  A    between atoms: C15_16  and  N14_17 
REMARK       I    between atoms: N14_17  and  C12_18 
REMARK    8  A    between atoms: C12_18  and  O11_20 
REMARK    9  A    between atoms: O11_20  and  C3_21 
REMARK   10  A    between atoms: C6_26  and  C10_27 
REMARK   11  A    between atoms: C6_26  and  C7_28 
ROOT
ATOM      1  C16 CPJ d   1       5.792  17.915 -31.578  0.00  0.00     0.012 C 
ATOM      2  H10 CPJ d   1       5.115  18.195 -32.398  0.00  0.00     0.066 H 
ATOM      3  H11 CPJ d   1       6.152  18.823 -31.073  0.00  0.00     0.066 H 
ENDROOT
BRANCH   1   4
ATOM      4  N17 CPJ d   1       6.924  17.190 -32.120  0.00  0.00    -0.335 N 
ATOM      5  C20 CPJ d   1       6.808  16.175 -32.980  0.00  0.00     0.361 C 
ATOM      6  O21 CPJ d   1       5.737  15.749 -33.400  0.00  0.00    -0.239 OA
ATOM      7  H9  CPJ d   1       7.842  17.465 -31.834  0.00  0.00     0.164 HD
BRANCH   5   8
ATOM      8  O22 CPJ d   1       8.057  15.562 -33.413  0.00  0.00    -0.294 OA
BRANCH   8   9
ATOM      9  C23 CPJ d   1       7.893  14.496 -34.342  0.00  0.00     0.090 C 
ATOM     10  C28 CPJ d   1       7.752  15.125 -35.724  0.00  0.00     0.050 C 
ATOM     11  O27 CPJ d   1       8.908  15.921 -36.006  0.00  0.00    -0.344 OA
ATOM     12  H1  CPJ d   1       7.660  14.332 -36.480  0.00  0.00     0.078 H 
ATOM     13  H2  CPJ d   1       6.854  15.761 -35.748  0.00  0.00     0.078 H 
ATOM     14  C26 CPJ d   1      10.175  15.241 -35.894  0.00  0.00     0.252 C 
ATOM     15  O25 CPJ d   1      10.277  14.496 -34.665  0.00  0.00    -0.344 OA
ATOM     16  C24 CPJ d   1       9.161  13.657 -34.343  0.00  0.00     0.050 C 
ATOM     17  H6  CPJ d   1       9.309  13.212 -33.348  0.00  0.00     0.078 H 
ATOM     18  H7  CPJ d   1       9.073  12.857 -35.093  0.00  0.00     0.078 H 
ATOM     19  H8  CPJ d   1       7.015  13.883 -34.091  0.00  0.00     0.090 H 
BRANCH  14  20
ATOM     20  C29 CPJ d   1      11.280  16.274 -35.910  0.00  0.00     0.238 C 
ATOM     21  O31 CPJ d   1      11.223  17.211 -36.742  0.00  0.00    -0.644 OA
ATOM     22  O30 CPJ d   1      12.226  16.151 -35.100  0.00  0.00    -0.644 OA
ENDBRANCH  14  20
BRANCH  14  23
ATOM     23  C32 CPJ d   1      10.387  14.313 -37.094  0.00  0.00    -0.015 C 
ATOM     24  H3  CPJ d   1       9.597  13.548 -37.110  0.00  0.00     0.035 H 
ATOM     25  H4  CPJ d   1      11.369  13.824 -37.010  0.00  0.00     0.035 H 
ATOM     26  H5  CPJ d   1      10.348  14.900 -38.023  0.00  0.00     0.035 H 
ENDBRANCH  14  23
ENDBRANCH   8   9
ENDBRANCH   5   8
ENDBRANCH   1   4
BRANCH   1  27
ATOM     27  C15 CPJ d   1       5.040  17.055 -30.582  0.00  0.00     0.012 C 
ATOM     28  H12 CPJ d   1       5.713  16.816 -29.746  0.00  0.00     0.066 H 
ATOM     29  H13 CPJ d   1       4.732  16.125 -31.082  0.00  0.00     0.066 H 
BRANCH  27  30
ATOM     30  N14 CPJ d   1       3.862  17.709 -30.055  0.00  0.00    -0.335 N 
ATOM     31  C12 CPJ d   1       3.754  17.933 -28.751  0.00  0.00     0.361 C 
ATOM     32  O13 CPJ d   1       4.623  17.618 -27.945  0.00  0.00    -0.239 OA
ATOM     33  H14 CPJ d   1       3.129  17.992 -30.673  0.00  0.00     0.164 HD
BRANCH  31  34
ATOM     34  O11 CPJ d   1       2.540  18.580 -28.287  0.00  0.00    -0.294 OA
BRANCH  34  35
ATOM     35  C3  CPJ d   1       2.548  18.754 -26.872  0.00  0.00     0.090 C 
ATOM     36  C2  CPJ d   1       2.780  20.223 -26.537  0.00  0.00     0.050 C 
ATOM     37  O1  CPJ d   1       1.685  20.998 -27.027  0.00  0.00    -0.344 OA
ATOM     38  H16 CPJ d   1       3.712  20.565 -27.010  0.00  0.00     0.078 H 
ATOM     39  H17 CPJ d   1       2.856  20.343 -25.446  0.00  0.00     0.078 H 
ATOM     40  C6  CPJ d   1       0.385  20.574 -26.581  0.00  0.00     0.252 C 
ATOM     41  O5  CPJ d   1       0.171  19.172 -26.831  0.00  0.00    -0.344 OA
ATOM     42  C4  CPJ d   1       1.195  18.309 -26.326  0.00  0.00     0.050 C 
ATOM     43  H18 CPJ d   1       1.208  18.359 -25.227  0.00  0.00     0.078 H 
ATOM     44  H19 CPJ d   1       0.993  17.275 -26.643  0.00  0.00     0.078 H 
ATOM     45  H15 CPJ d   1       3.348  18.145 -26.426  0.00  0.00     0.090 H 
BRANCH  40  46
ATOM     46  C10 CPJ d   1       0.174  20.894 -25.100  0.00  0.00    -0.015 C 
ATOM     47  H20 CPJ d   1       0.342  21.968 -24.929  0.00  0.00     0.035 H 
ATOM     48  H21 CPJ d   1       0.884  20.311 -24.494  0.00  0.00     0.035 H 
ATOM     49  H22 CPJ d   1      -0.855  20.633 -24.811  0.00  0.00     0.035 H 
ENDBRANCH  40  46
BRANCH  40  50
ATOM     50  C7  CPJ d   1      -0.613  21.376 -27.369  0.00  0.00     0.238 C 
ATOM     51  O8  CPJ d   1      -1.634  20.815 -27.830  0.00  0.00    -0.644 OA
ATOM     52  O9  CPJ d   1      -0.377  22.590 -27.527  0.00  0.00    -0.644 OA
ENDBRANCH  40  50
ENDBRANCH  34  35
ENDBRANCH  31  34
ENDBRANCH  27  30
ENDBRANCH   1  27
TORSDOF 11
