REMARK  8 active torsions:
REMARK  status: ('A' for Active; 'I' for Inactive)
REMARK    1  A    between atoms: C29_2  and  C26_4 
REMARK    2  A    between atoms: C26_4  and  C32_7 
REMARK    3  A    between atoms: C23_10  and  O22_11 
REMARK    4  A    between atoms: O22_11  and  C20_12 
REMARK       I    between atoms: C20_12  and  N17_14 
REMARK       I    between atoms: N14_19  and  C12_20 
REMARK    5  A    between atoms: C12_20  and  O11_22 
REMARK    6  A    between atoms: O11_22  and  C3_23 
REMARK    7  A    between atoms: C6_28  and  C10_29 
REMARK    8  A    between atoms: C6_28  and  C7_30 
ROOT
ATOM      1  C20 CPK d   1     -27.503  79.903  71.319  0.00  0.00     0.491 C 
ATOM      2  O21 CPK d   1     -26.694  80.881  70.671  0.00  0.00    -0.155 OA
ATOM      3  N17 CPK d   1     -28.954  80.006  71.239  0.00  0.00     0.166 N 
ATOM      4  C16 CPK d   1     -29.611  79.886  72.536  0.00  0.00     0.145 C 
ATOM      5  C15 CPK d   1     -31.021  80.432  72.322  0.00  0.00     0.145 C 
ATOM      6  C18 CPK d   1     -29.455  79.266  70.088  0.00  0.00     0.145 C 
ATOM      7  C19 CPK d   1     -30.861  79.813  69.877  0.00  0.00     0.145 C 
ATOM      8  N14 CPK d   1     -31.530  79.701  71.168  0.00  0.00     0.166 N 
ATOM      9  C12 CPK d   1     -32.968  79.851  70.961  0.00  0.00     0.491 C 
ATOM     10  O13 CPK d   1     -33.777  78.686  70.902  0.00  0.00    -0.155 OA
ATOM     11  H9  CPK d   1     -29.079  80.479  73.294  0.00  0.00     0.083 H 
ATOM     12  H10 CPK d   1     -29.649  78.834  72.853  0.00  0.00     0.083 H 
ATOM     13  H11 CPK d   1     -30.991  81.512  72.115  0.00  0.00     0.083 H 
ATOM     14  H12 CPK d   1     -31.648  80.245  73.207  0.00  0.00     0.083 H 
ATOM     15  H13 CPK d   1     -29.484  78.187  70.300  0.00  0.00     0.083 H 
ATOM     16  H14 CPK d   1     -28.828  79.449  69.203  0.00  0.00     0.083 H 
ATOM     17  H15 CPK d   1     -31.392  79.220  69.118  0.00  0.00     0.083 H 
ATOM     18  H16 CPK d   1     -30.819  80.865  69.558  0.00  0.00     0.083 H 
ENDROOT
BRANCH   1  19
ATOM     19  O22 CPK d   1     -26.940  78.643  71.690  0.00  0.00    -0.314 OA
BRANCH  19  20
ATOM     20  C23 CPK d   1     -25.521  78.606  71.623  0.00  0.00     0.085 C 
ATOM     21  C28 CPK d   1     -25.109  77.184  71.268  0.00  0.00     0.050 C 
ATOM     22  O27 CPK d   1     -25.478  76.297  72.328  0.00  0.00    -0.344 OA
ATOM     23  H1  CPK d   1     -25.616  76.877  70.341  0.00  0.00     0.078 H 
ATOM     24  H2  CPK d   1     -24.020  77.145  71.121  0.00  0.00     0.078 H 
ATOM     25  C26 CPK d   1     -24.967  76.649  73.621  0.00  0.00     0.252 C 
ATOM     26  O25 CPK d   1     -25.291  78.007  73.954  0.00  0.00    -0.344 OA
ATOM     27  C24 CPK d   1     -24.921  78.979  72.975  0.00  0.00     0.050 C 
ATOM     28  H6  CPK d   1     -23.825  79.013  72.891  0.00  0.00     0.078 H 
ATOM     29  H7  CPK d   1     -25.297  79.967  73.281  0.00  0.00     0.078 H 
ATOM     30  H8  CPK d   1     -25.164  79.307  70.854  0.00  0.00     0.090 H 
BRANCH  25  31
ATOM     31  C29 CPK d   1     -25.583  75.771  74.680  0.00  0.00     0.238 C 
ATOM     32  O30 CPK d   1     -26.296  74.797  74.343  0.00  0.00    -0.644 OA
ATOM     33  O31 CPK d   1     -25.338  76.045  75.877  0.00  0.00    -0.644 OA
ENDBRANCH  25  31
BRANCH  25  34
ATOM     34  C32 CPK d   1     -23.463  76.394  73.660  0.00  0.00    -0.015 C 
ATOM     35  H3  CPK d   1     -22.966  77.016  72.901  0.00  0.00     0.035 H 
ATOM     36  H4  CPK d   1     -23.266  75.332  73.451  0.00  0.00     0.035 H 
ATOM     37  H5  CPK d   1     -23.073  76.650  74.656  0.00  0.00     0.035 H 
ENDBRANCH  25  34
ENDBRANCH  19  20
ENDBRANCH   1  19
BRANCH   9  38
ATOM     38  O11 CPK d   1     -33.589  81.124  71.182  0.00  0.00    -0.314 OA
BRANCH  38  39
ATOM     39  C3  CPK d   1     -35.011  81.096  71.029  0.00  0.00     0.085 C 
ATOM     40  C2  CPK d   1     -35.748  80.952  72.361  0.00  0.00     0.050 C 
ATOM     41  O1  CPK d   1     -35.674  82.152  73.137  0.00  0.00    -0.344 OA
ATOM     42  H18 CPK d   1     -35.294  80.129  72.933  0.00  0.00     0.078 H 
ATOM     43  H19 CPK d   1     -36.805  80.721  72.161  0.00  0.00     0.078 H 
ATOM     44  C6  CPK d   1     -36.054  83.367  72.475  0.00  0.00     0.252 C 
ATOM     45  O5  CPK d   1     -35.400  83.508  71.210  0.00  0.00    -0.344 OA
ATOM     46  C4  CPK d   1     -35.468  82.375  70.335  0.00  0.00     0.050 C 
ATOM     47  H20 CPK d   1     -36.508  82.246  69.999  0.00  0.00     0.078 H 
ATOM     48  H21 CPK d   1     -34.822  82.558  69.464  0.00  0.00     0.078 H 
ATOM     49  H17 CPK d   1     -35.272  80.234  70.397  0.00  0.00     0.090 H 
BRANCH  44  50
ATOM     50  C10 CPK d   1     -37.567  83.444  72.266  0.00  0.00    -0.015 C 
ATOM     51  H22 CPK d   1     -38.077  83.336  73.235  0.00  0.00     0.035 H 
ATOM     52  H23 CPK d   1     -37.886  82.635  71.592  0.00  0.00     0.035 H 
ATOM     53  H24 CPK d   1     -37.827  84.416  71.821  0.00  0.00     0.035 H 
ENDBRANCH  44  50
BRANCH  44  54
ATOM     54  C7  CPK d   1     -35.624  84.502  73.375  0.00  0.00     0.238 C 
ATOM     55  O8  CPK d   1     -36.060  84.540  74.547  0.00  0.00    -0.644 OA
ATOM     56  O9  CPK d   1     -34.839  85.373  72.939  0.00  0.00    -0.644 OA
ENDBRANCH  44  54
ENDBRANCH  38  39
ENDBRANCH   9  38
TORSDOF 8
