REMARK  26 active torsions:
REMARK  status: ('A' for Active; 'I' for Inactive)
REMARK    1  A    between atoms: C1_1  and  O3_3 
REMARK       I    between atoms: N8_8  and  C1_1 
REMARK    2  A    between atoms: O3_3  and  C4_4 
REMARK    3  A    between atoms: C4_4  and  C5_5 
REMARK    4  A    between atoms: C5_5  and  C6_6 
REMARK    5  A    between atoms: C5_5  and  C7_7 
REMARK    6  A    between atoms: C9_9  and  N8_8 
REMARK    7  A    between atoms: C9_9  and  C10_10 
REMARK    8  A    between atoms: C16_16  and  C9_9 
REMARK       I    between atoms: N18_18  and  C16_16 
REMARK    9  A    between atoms: C19_19  and  N18_18 
REMARK   10  A    between atoms: C19_19  and  C20_20 
REMARK   11  A    between atoms: C24_24  and  C19_19 
REMARK   12  A    between atoms: C20_20  and  C21_21 
REMARK   13  A    between atoms: C21_21  and  C22_22 
REMARK   14  A    between atoms: C21_21  and  C23_23 
REMARK       I    between atoms: N26_26  and  C24_24 
REMARK   15  A    between atoms: C27_27  and  N26_26 
REMARK   16  A    between atoms: C27_27  and  C28_28 
REMARK   17  A    between atoms: C32_32  and  C27_27 
REMARK   18  A    between atoms: C28_28  and  C29_29 
REMARK   19  A    between atoms: C29_29  and  C30_30 
REMARK   20  A    between atoms: C32_32  and  O31_31 
REMARK   21  A    between atoms: C38_38  and  C32_32 
REMARK   22  A    between atoms: N34_34  and  C35_35 
REMARK       I    between atoms: N34_34  and  C38_38 
REMARK   23  A    between atoms: C35_35  and  C36_36 
REMARK       I    between atoms: C36_36  and  N39_39 
REMARK   24  A    between atoms: N39_39  and  C40_40 
REMARK   25  A    between atoms: C40_40  and  C41_41 
REMARK   26  A    between atoms: C40_40  and  C47_47 
REMARK       I    between atoms: C47_47  and  N49_49 
ROOT
ATOM      1  C19 UNH d   1     196.008  -8.684  51.489  0.00  0.00     0.089 C 
ATOM      2  H24 UNH d   1     195.165  -8.220  52.022  0.00  0.00     0.087 H 
ENDROOT
BRANCH   1   3
ATOM      3  N18 UNH d   1     195.513  -9.318  50.280  0.00  0.00    -0.346 N 
ATOM      4  C16 UNH d   1     194.622  -8.712  49.506  0.00  0.00     0.241 C 
ATOM      5  O17 UNH d   1     194.150  -7.602  49.757  0.00  0.00    -0.271 OA
ATOM      6  H23 UNH d   1     195.849 -10.225  50.027  0.00  0.00     0.163 HD
BRANCH   4   7
ATOM      7  C9  UNH d   1     194.189  -9.466  48.264  0.00  0.00     0.095 C 
ATOM      8  H11 UNH d   1     194.662 -10.459  48.249  0.00  0.00     0.088 H 
BRANCH   7   9
ATOM      9  N8  UNH d   1     192.744  -9.627  48.264  0.00  0.00    -0.323 N 
ATOM     10  C1  UNH d   1     192.152 -10.531  49.032  0.00  0.00     0.361 C 
ATOM     11  O2  UNH d   1     192.782 -11.353  49.707  0.00  0.00    -0.239 OA
ATOM     12  H10 UNH d   1     192.186  -9.044  47.673  0.00  0.00     0.165 HD
BRANCH  10  13
ATOM     13  O3  UNH d   1     190.929 -10.364  48.922  0.00  0.00    -0.304 OA
BRANCH  13  14
ATOM     14  C4  UNH d   1     190.162 -11.116  49.806  0.00  0.00     0.033 C 
ATOM     15  H1  UNH d   1     190.705 -11.262  50.751  0.00  0.00     0.075 H 
ATOM     16  H2  UNH d   1     189.923 -12.095  49.365  0.00  0.00     0.075 H 
BRANCH  14  17
ATOM     17  C5  UNH d   1     188.887 -10.323  50.049  0.00  0.00    -0.040 C 
ATOM     18  H3  UNH d   1     189.016  -9.306  49.651  0.00  0.00     0.042 H 
BRANCH  17  19
ATOM     19  C6  UNH d   1     187.736 -10.990  49.321  0.00  0.00    -0.071 C 
ATOM     20  H4  UNH d   1     186.812 -10.419  49.495  0.00  0.00     0.028 H 
ATOM     21  H5  UNH d   1     187.609 -12.016  49.697  0.00  0.00     0.028 H 
ATOM     22  H6  UNH d   1     187.952 -11.019  48.243  0.00  0.00     0.028 H 
ENDBRANCH  17  19
BRANCH  17  23
ATOM     23  C7  UNH d   1     188.613 -10.230  51.537  0.00  0.00    -0.071 C 
ATOM     24  H7  UNH d   1     189.463  -9.743  52.037  0.00  0.00     0.028 H 
ATOM     25  H8  UNH d   1     188.476 -11.241  51.949  0.00  0.00     0.028 H 
ATOM     26  H9  UNH d   1     187.701  -9.639  51.706  0.00  0.00     0.028 H 
ENDBRANCH  17  23
ENDBRANCH  14  17
ENDBRANCH  13  14
ENDBRANCH  10  13
ENDBRANCH   7   9
BRANCH   7  27
ATOM     27  C10 UNH d   1     194.645  -8.669  47.051  0.00  0.00    -0.026 C 
ATOM     28  C11 UNH d   1     196.161  -8.505  47.041  0.00  0.00    -0.059 C 
ATOM     29  C12 UNH d   1     196.648  -7.727  45.840  0.00  0.00    -0.065 C 
ATOM     30  H13 UNH d   1     196.624  -9.503  47.027  0.00  0.00     0.033 H 
ATOM     31  H14 UNH d   1     196.465  -7.972  47.954  0.00  0.00     0.033 H 
ATOM     32  C13 UNH d   1     196.190  -8.401  44.551  0.00  0.00    -0.065 C 
ATOM     33  H15 UNH d   1     197.747  -7.685  45.856  0.00  0.00     0.033 H 
ATOM     34  H16 UNH d   1     196.241  -6.706  45.880  0.00  0.00     0.033 H 
ATOM     35  C14 UNH d   1     194.676  -8.614  44.525  0.00  0.00    -0.065 C 
ATOM     36  H17 UNH d   1     196.688  -9.378  44.464  0.00  0.00     0.033 H 
ATOM     37  H18 UNH d   1     196.475  -7.767  43.698  0.00  0.00     0.033 H 
ATOM     38  C15 UNH d   1     194.221  -9.362  45.760  0.00  0.00    -0.059 C 
ATOM     39  H19 UNH d   1     194.408  -9.196  43.631  0.00  0.00     0.033 H 
ATOM     40  H20 UNH d   1     194.174  -7.636  44.490  0.00  0.00     0.033 H 
ATOM     41  H21 UNH d   1     193.124  -9.436  45.743  0.00  0.00     0.033 H 
ATOM     42  H22 UNH d   1     194.657 -10.372  45.742  0.00  0.00     0.033 H 
ATOM     43  H12 UNH d   1     194.179  -7.673  47.092  0.00  0.00     0.043 H 
ENDBRANCH   7  27
ENDBRANCH   4   7
ENDBRANCH   1   3
BRANCH   1  44
ATOM     44  C20 UNH d   1     196.657  -9.714  52.406  0.00  0.00    -0.035 C 
ATOM     45  H25 UNH d   1     197.005  -9.188  53.307  0.00  0.00     0.037 H 
ATOM     46  H26 UNH d   1     197.520 -10.139  51.873  0.00  0.00     0.037 H 
BRANCH  44  47
ATOM     47  C21 UNH d   1     195.772 -10.876  52.859  0.00  0.00    -0.059 C 
ATOM     48  H27 UNH d   1     195.577 -11.537  52.002  0.00  0.00     0.038 H 
BRANCH  47  49
ATOM     49  C22 UNH d   1     196.490 -11.655  53.935  0.00  0.00    -0.073 C 
ATOM     50  H28 UNH d   1     195.858 -12.493  54.265  0.00  0.00     0.028 H 
ATOM     51  H29 UNH d   1     196.698 -10.994  54.789  0.00  0.00     0.028 H 
ATOM     52  H30 UNH d   1     197.437 -12.046  53.535  0.00  0.00     0.028 H 
ENDBRANCH  47  49
BRANCH  47  53
ATOM     53  C23 UNH d   1     194.461 -10.359  53.387  0.00  0.00    -0.073 C 
ATOM     54  H31 UNH d   1     193.945  -9.793  52.597  0.00  0.00     0.028 H 
ATOM     55  H32 UNH d   1     194.647  -9.700  54.248  0.00  0.00     0.028 H 
ATOM     56  H33 UNH d   1     193.833 -11.206  53.702  0.00  0.00     0.028 H 
ENDBRANCH  47  53
ENDBRANCH  44  47
ENDBRANCH   1  44
BRANCH   1  57
ATOM     57  C24 UNH d   1     197.006  -7.601  51.102  0.00  0.00     0.240 C 
ATOM     58  O25 UNH d   1     198.012  -7.877  50.445  0.00  0.00    -0.271 OA
ATOM     59  N26 UNH d   1     196.697  -6.362  51.473  0.00  0.00    -0.352 N 
ATOM     60  H34 UNH d   1     195.851  -6.209  51.984  0.00  0.00     0.163 HD
BRANCH  59  61
ATOM     61  C27 UNH d   1     197.545  -5.219  51.162  0.00  0.00     0.045 C 
ATOM     62  H35 UNH d   1     198.325  -5.594  50.483  0.00  0.00     0.077 H 
BRANCH  61  63
ATOM     63  C28 UNH d   1     196.762  -4.194  50.333  0.00  0.00    -0.044 C 
ATOM     64  H36 UNH d   1     197.174  -3.195  50.539  0.00  0.00     0.036 H 
ATOM     65  H37 UNH d   1     195.708  -4.228  50.647  0.00  0.00     0.036 H 
BRANCH  63  66
ATOM     66  C29 UNH d   1     196.823  -4.437  48.832  0.00  0.00    -0.067 C 
ATOM     67  H38 UNH d   1     197.396  -5.353  48.629  0.00  0.00     0.032 H 
ATOM     68  H39 UNH d   1     197.310  -3.583  48.338  0.00  0.00     0.032 H 
BRANCH  66  69
ATOM     69  C30 UNH d   1     195.442  -4.589  48.318  0.00  0.00    -0.076 C 
ATOM     70  H40 UNH d   1     195.472  -4.765  47.233  0.00  0.00     0.027 H 
ATOM     71  H41 UNH d   1     194.871  -3.672  48.525  0.00  0.00     0.027 H 
ATOM     72  H42 UNH d   1     194.958  -5.442  48.815  0.00  0.00     0.027 H 
ENDBRANCH  66  69
ENDBRANCH  63  66
ENDBRANCH  61  63
BRANCH  61  73
ATOM     73  C32 UNH d   1     198.306  -4.728  52.381  0.00  0.00     0.131 C 
ATOM     74  H44 UNH d   1     197.658  -4.075  52.984  0.00  0.00     0.101 H 
BRANCH  73  75
ATOM     75  O31 UNH d   1     198.750  -5.818  53.179  0.00  0.00    -0.384 OA
ATOM     76  H43 UNH d   1     197.999  -6.322  53.471  0.00  0.00     0.210 HD
ENDBRANCH  73  75
BRANCH  73  77
ATOM     77  C38 UNH d   1     199.510  -3.949  51.881  0.00  0.00     0.248 C 
ATOM     78  O33 UNH d   1     199.377  -2.811  51.447  0.00  0.00    -0.271 OA
ATOM     79  N34 UNH d   1     200.688  -4.548  51.934  0.00  0.00    -0.350 N 
ATOM     80  H45 UNH d   1     200.721  -5.508  52.212  0.00  0.00     0.163 HD
BRANCH  79  81
ATOM     81  C35 UNH d   1     201.935  -3.882  51.609  0.00  0.00     0.069 C 
ATOM     82  H46 UNH d   1     202.737  -4.324  52.218  0.00  0.00     0.078 H 
ATOM     83  H47 UNH d   1     201.835  -2.814  51.853  0.00  0.00     0.078 H 
BRANCH  81  84
ATOM     84  C36 UNH d   1     202.313  -4.008  50.154  0.00  0.00     0.236 C 
ATOM     85  O37 UNH d   1     201.548  -4.508  49.323  0.00  0.00    -0.272 OA
ATOM     86  N39 UNH d   1     203.507  -3.519  49.849  0.00  0.00    -0.342 N 
ATOM     87  H48 UNH d   1     204.055  -3.103  50.575  0.00  0.00     0.163 HD
BRANCH  86  88
ATOM     88  C40 UNH d   1     204.050  -3.563  48.504  0.00  0.00     0.115 C 
ATOM     89  H49 UNH d   1     203.581  -4.391  47.952  0.00  0.00     0.095 H 
BRANCH  88  90
ATOM     90  C41 UNH d   1     203.855  -2.278  47.743  0.00  0.00    -0.026 A 
ATOM     91  C42 UNH d   1     203.931  -1.046  48.387  0.00  0.00    -0.074 A 
ATOM     92  C43 UNH d   1     203.791   0.134  47.681  0.00  0.00    -0.082 A 
ATOM     93  H50 UNH d   1     204.102  -1.012  49.457  0.00  0.00     0.084 H 
ATOM     94  C44 UNH d   1     203.568   0.093  46.306  0.00  0.00    -0.083 A 
ATOM     95  H51 UNH d   1     203.854   1.087  48.194  0.00  0.00     0.083 H 
ATOM     96  C45 UNH d   1     203.485  -1.132  45.645  0.00  0.00    -0.082 A 
ATOM     97  H52 UNH d   1     203.459   1.016  45.749  0.00  0.00     0.083 H 
ATOM     98  C46 UNH d   1     203.629  -2.310  46.365  0.00  0.00    -0.074 A 
ATOM     99  H53 UNH d   1     203.309  -1.164  44.576  0.00  0.00     0.083 H 
ATOM    100  H54 UNH d   1     203.565  -3.263  45.853  0.00  0.00     0.084 H 
ENDBRANCH  88  90
BRANCH  88 101
ATOM    101  C47 UNH d   1     205.556  -3.776  48.609  0.00  0.00     0.242 C 
ATOM    102  O48 UNH d   1     206.209  -3.269  49.533  0.00  0.00    -0.271 OA
ATOM    103  N49 UNH d   1     206.102  -4.529  47.660  0.00  0.00    -0.368 N 
ATOM    104  H55 UNH d   1     207.086  -4.709  47.669  0.00  0.00     0.159 HD
ATOM    105  H56 UNH d   1     205.529  -4.916  46.937  0.00  0.00     0.159 HD
ENDBRANCH  88 101
ENDBRANCH  86  88
ENDBRANCH  81  84
ENDBRANCH  79  81
ENDBRANCH  73  77
ENDBRANCH  61  73
ENDBRANCH  59  61
ENDBRANCH   1  57
TORSDOF 26
