REMARK  14 active torsions:
REMARK  status: ('A' for Active; 'I' for Inactive)
REMARK    1  A    between atoms: C11_11  and  C12_12 
REMARK    2  A    between atoms: C29_29  and  C21_21 
REMARK       I    between atoms: N31_31  and  C29_29 
REMARK    3  A    between atoms: C32_32  and  N31_31 
REMARK    4  A    between atoms: C32_32  and  C33_33 
REMARK    5  A    between atoms: C37_37  and  C32_32 
REMARK    6  A    between atoms: C33_33  and  C34_34 
REMARK    7  A    between atoms: C34_34  and  C35_35 
REMARK    8  A    between atoms: C37_37  and  O36_36 
REMARK    9  A    between atoms: C43_43  and  C37_37 
REMARK   10  A    between atoms: N39_39  and  C40_40 
REMARK       I    between atoms: N39_39  and  C43_43 
REMARK   11  A    between atoms: C40_40  and  C41_41 
REMARK       I    between atoms: C41_41  and  N44_44 
REMARK   12  A    between atoms: N44_44  and  C45_45 
REMARK   13  A    between atoms: C45_45  and  C46_46 
REMARK   14  A    between atoms: C45_45  and  C52_52 
ROOT
ATOM      1  C1  FNH d   1     192.986 -10.828  49.013  0.00  0.00     0.218 C 
ATOM      2  O2  FNH d   1     193.724 -11.462  49.783  0.00  0.00    -0.274 OA
ATOM      3  C3  FNH d   1     191.509 -11.200  48.863  0.00  0.00     0.009 C 
ATOM      4  C4  FNH d   1     190.558 -10.097  49.293  0.00  0.00    -0.057 C 
ATOM      5  C5  FNH d   1     189.782 -10.507  50.534  0.00  0.00    -0.065 C 
ATOM      6  C6  FNH d   1     190.719 -10.879  51.682  0.00  0.00    -0.065 C 
ATOM      7  C7  FNH d   1     190.019 -10.826  53.047  0.00  0.00    -0.065 C 
ATOM      8  C8  FNH d   1     191.022 -10.999  54.196  0.00  0.00    -0.061 C 
ATOM      9  C9  FNH d   1     192.207 -10.087  53.958  0.00  0.00    -0.041 C 
ATOM     10  N10 FNH d   1     193.409  -9.789  48.294  0.00  0.00    -0.347 N 
ATOM     11  C11 FNH d   1     194.801  -9.341  48.313  0.00  0.00     0.092 C 
ATOM     12  C18 FNH d   1     195.173  -8.560  49.568  0.00  0.00     0.241 C 
ATOM     13  O19 FNH d   1     194.756  -7.409  49.727  0.00  0.00    -0.271 OA
ATOM     14  N20 FNH d   1     195.949  -9.175  50.458  0.00  0.00    -0.346 N 
ATOM     15  C21 FNH d   1     196.383  -8.481  51.670  0.00  0.00     0.093 C 
ATOM     16  C22 FNH d   1     196.930  -9.468  52.715  0.00  0.00    -0.014 C 
ATOM     17  C23 FNH d   1     195.882 -10.376  53.288  0.00  0.00    -0.055 A 
ATOM     18  C24 FNH d   1     194.590  -9.927  53.455  0.00  0.00    -0.071 A 
ATOM     19  C28 FNH d   1     196.156 -11.715  53.553  0.00  0.00    -0.077 A 
ATOM     20  C27 FNH d   1     195.134 -12.581  53.963  0.00  0.00    -0.082 A 
ATOM     21  C26 FNH d   1     193.828 -12.098  54.105  0.00  0.00    -0.077 A 
ATOM     22  C25 FNH d   1     193.571 -10.758  53.856  0.00  0.00    -0.058 A 
ATOM     23  H1  FNH d   1     191.310 -12.090  49.478  0.00  0.00     0.047 H 
ATOM     24  H2  FNH d   1     191.315 -11.434  47.806  0.00  0.00     0.047 H 
ATOM     25  H3  FNH d   1     189.850  -9.892  48.476  0.00  0.00     0.033 H 
ATOM     26  H4  FNH d   1     191.136  -9.188  49.513  0.00  0.00     0.033 H 
ATOM     27  H5  FNH d   1     189.152 -11.375  50.291  0.00  0.00     0.033 H 
ATOM     28  H6  FNH d   1     189.144  -9.668  50.850  0.00  0.00     0.033 H 
ATOM     29  H7  FNH d   1     191.564 -10.175  51.691  0.00  0.00     0.033 H 
ATOM     30  H8  FNH d   1     191.093 -11.900  51.516  0.00  0.00     0.033 H 
ATOM     31  H9  FNH d   1     189.273 -11.633  53.099  0.00  0.00     0.033 H 
ATOM     32  H10 FNH d   1     189.516  -9.854  53.154  0.00  0.00     0.033 H 
ATOM     33  H11 FNH d   1     191.363 -12.044  54.234  0.00  0.00     0.033 H 
ATOM     34  H12 FNH d   1     190.540 -10.736  55.149  0.00  0.00     0.033 H 
ATOM     35  H13 FNH d   1     192.249  -9.369  54.791  0.00  0.00     0.040 H 
ATOM     36  H14 FNH d   1     192.029  -9.547  53.017  0.00  0.00     0.040 H 
ATOM     37  H15 FNH d   1     192.752  -9.299  47.722  0.00  0.00     0.163 HD
ATOM     38  H16 FNH d   1     195.437 -10.237  48.267  0.00  0.00     0.088 H 
ATOM     39  H28 FNH d   1     196.237 -10.119  50.297  0.00  0.00     0.163 HD
ATOM     40  H29 FNH d   1     195.530  -7.943  52.108  0.00  0.00     0.088 H 
ATOM     41  H30 FNH d   1     197.378  -8.891  53.538  0.00  0.00     0.043 H 
ATOM     42  H31 FNH d   1     197.704 -10.087  52.237  0.00  0.00     0.043 H 
ATOM     43  H32 FNH d   1     194.370  -8.883  53.264  0.00  0.00     0.085 H 
ATOM     44  H33 FNH d   1     197.167 -12.090  53.441  0.00  0.00     0.084 H 
ATOM     45  H34 FNH d   1     195.354 -13.622  54.170  0.00  0.00     0.083 H 
ATOM     46  H35 FNH d   1     193.027 -12.763  54.406  0.00  0.00     0.084 H 
ENDROOT
BRANCH  15  47
ATOM     47  C29 FNH d   1     197.455  -7.479  51.249  0.00  0.00     0.241 C 
ATOM     48  O30 FNH d   1     198.518  -7.859  50.748  0.00  0.00    -0.271 OA
ATOM     49  N31 FNH d   1     197.150  -6.196  51.411  0.00  0.00    -0.352 N 
ATOM     50  H36 FNH d   1     196.263  -5.948  51.802  0.00  0.00     0.163 HD
BRANCH  49  51
ATOM     51  C32 FNH d   1     198.085  -5.140  51.029  0.00  0.00     0.045 C 
ATOM     52  H37 FNH d   1     198.877  -5.649  50.461  0.00  0.00     0.077 H 
BRANCH  51  53
ATOM     53  C33 FNH d   1     197.430  -4.165  50.033  0.00  0.00    -0.044 C 
ATOM     54  H38 FNH d   1     198.199  -3.844  49.315  0.00  0.00     0.036 H 
ATOM     55  H39 FNH d   1     197.069  -3.293  50.597  0.00  0.00     0.036 H 
BRANCH  53  56
ATOM     56  C34 FNH d   1     196.250  -4.739  49.241  0.00  0.00    -0.067 C 
ATOM     57  H40 FNH d   1     195.316  -4.390  49.706  0.00  0.00     0.032 H 
ATOM     58  H41 FNH d   1     196.298  -5.837  49.293  0.00  0.00     0.032 H 
BRANCH  56  59
ATOM     59  C35 FNH d   1     196.240  -4.328  47.779  0.00  0.00    -0.076 C 
ATOM     60  H42 FNH d   1     195.369  -4.776  47.278  0.00  0.00     0.027 H 
ATOM     61  H43 FNH d   1     197.162  -4.679  47.293  0.00  0.00     0.027 H 
ATOM     62  H44 FNH d   1     196.181  -3.232  47.707  0.00  0.00     0.027 H 
ENDBRANCH  56  59
ENDBRANCH  53  56
ENDBRANCH  51  53
BRANCH  51  63
ATOM     63  C37 FNH d   1     198.847  -4.436  52.225  0.00  0.00     0.131 C 
ATOM     64  H46 FNH d   1     198.157  -3.894  52.889  0.00  0.00     0.101 H 
BRANCH  63  65
ATOM     65  O36 FNH d   1     199.633  -5.424  52.916  0.00  0.00    -0.384 OA
ATOM     66  H45 FNH d   1     199.061  -6.104  53.252  0.00  0.00     0.210 HD
ENDBRANCH  63  65
BRANCH  63  67
ATOM     67  C43 FNH d   1     199.944  -3.527  51.605  0.00  0.00     0.248 C 
ATOM     68  O38 FNH d   1     199.552  -2.509  51.050  0.00  0.00    -0.271 OA
ATOM     69  N39 FNH d   1     201.235  -3.843  51.684  0.00  0.00    -0.350 N 
ATOM     70  H47 FNH d   1     201.780  -3.415  52.405  0.00  0.00     0.163 HD
BRANCH  69  71
ATOM     71  C40 FNH d   1     201.903  -4.774  50.785  0.00  0.00     0.069 C 
ATOM     72  H48 FNH d   1     201.124  -5.362  50.279  0.00  0.00     0.078 H 
ATOM     73  H49 FNH d   1     202.524  -5.441  51.401  0.00  0.00     0.078 H 
BRANCH  71  74
ATOM     74  C41 FNH d   1     202.795  -4.182  49.713  0.00  0.00     0.236 C 
ATOM     75  O42 FNH d   1     202.493  -4.297  48.526  0.00  0.00    -0.272 OA
ATOM     76  N44 FNH d   1     203.882  -3.538  50.140  0.00  0.00    -0.341 N 
ATOM     77  H50 FNH d   1     204.029  -3.478  51.127  0.00  0.00     0.163 HD
BRANCH  76  78
ATOM     78  C45 FNH d   1     204.879  -2.911  49.262  0.00  0.00     0.122 C 
ATOM     79  H51 FNH d   1     205.281  -2.106  49.895  0.00  0.00     0.097 H 
BRANCH  78  80
ATOM     80  C46 FNH d   1     204.466  -2.155  47.931  0.00  0.00    -0.025 A 
ATOM     81  C47 FNH d   1     204.265  -2.660  46.609  0.00  0.00    -0.074 A 
ATOM     82  C48 FNH d   1     203.956  -1.841  45.511  0.00  0.00    -0.082 A 
ATOM     83  H52 FNH d   1     204.356  -3.728  46.446  0.00  0.00     0.084 H 
ATOM     84  C49 FNH d   1     203.838  -0.464  45.714  0.00  0.00    -0.083 A 
ATOM     85  H54 FNH d   1     203.812  -2.269  44.526  0.00  0.00     0.083 H 
ATOM     86  C50 FNH d   1     204.024   0.086  46.996  0.00  0.00    -0.082 A 
ATOM     87  H56 FNH d   1     203.602   0.185  44.879  0.00  0.00     0.083 H 
ATOM     88  C51 FNH d   1     204.331  -0.752  48.075  0.00  0.00    -0.074 A 
ATOM     89  H55 FNH d   1     203.930   1.155  47.148  0.00  0.00     0.083 H 
ATOM     90  H53 FNH d   1     204.470  -0.311  49.056  0.00  0.00     0.084 H 
ENDBRANCH  78  80
BRANCH  78  91
ATOM     91  C52 FNH d   1     206.076  -3.821  48.968  0.00  0.00     0.201 C 
ATOM     92  O53 FNH d   1     205.915  -4.937  48.453  0.00  0.00    -0.646 OA
ATOM     93  O54 FNH d   1     207.221  -3.449  49.256  0.00  0.00    -0.646 OA
ENDBRANCH  78  91
ENDBRANCH  76  78
ENDBRANCH  71  74
ENDBRANCH  69  71
ENDBRANCH  63  67
ENDBRANCH  51  63
ENDBRANCH  49  51
ENDBRANCH  15  47
BRANCH  11  94
ATOM     94  C12 FNH d   1     195.116  -8.443  47.079  0.00  0.00    -0.026 C 
ATOM     95  C13 FNH d   1     196.603  -8.067  47.037  0.00  0.00    -0.059 C 
ATOM     96  C14 FNH d   1     196.981  -7.248  45.806  0.00  0.00    -0.065 C 
ATOM     97  H18 FNH d   1     197.198  -8.992  47.038  0.00  0.00     0.033 H 
ATOM     98  H19 FNH d   1     196.840  -7.478  47.935  0.00  0.00     0.033 H 
ATOM     99  C15 FNH d   1     196.592  -7.979  44.516  0.00  0.00    -0.065 C 
ATOM    100  H22 FNH d   1     198.068  -7.077  45.808  0.00  0.00     0.033 H 
ATOM    101  H23 FNH d   1     196.457  -6.281  45.843  0.00  0.00     0.033 H 
ATOM    102  C16 FNH d   1     195.112  -8.357  44.516  0.00  0.00    -0.065 C 
ATOM    103  H26 FNH d   1     197.195  -8.894  44.427  0.00  0.00     0.033 H 
ATOM    104  H27 FNH d   1     196.794  -7.322  43.657  0.00  0.00     0.033 H 
ATOM    105  C17 FNH d   1     194.768  -9.163  45.766  0.00  0.00    -0.059 C 
ATOM    106  H24 FNH d   1     194.504  -7.441  44.497  0.00  0.00     0.033 H 
ATOM    107  H25 FNH d   1     194.892  -8.961  43.623  0.00  0.00     0.033 H 
ATOM    108  H20 FNH d   1     193.688  -9.371  45.759  0.00  0.00     0.033 H 
ATOM    109  H21 FNH d   1     195.324 -10.111  45.732  0.00  0.00     0.033 H 
ATOM    110  H17 FNH d   1     194.515  -7.524  47.154  0.00  0.00     0.043 H 
ENDBRANCH  11  94
TORSDOF 14
