REMARK  23 active torsions:
REMARK  status: ('A' for Active; 'I' for Inactive)
REMARK    1  A    between atoms: C1_1  and  O3_3 
REMARK       I    between atoms: N8_8  and  C1_1 
REMARK    2  A    between atoms: O3_3  and  C4_4 
REMARK    3  A    between atoms: C4_4  and  C5_5 
REMARK    4  A    between atoms: C5_5  and  C6_6 
REMARK    5  A    between atoms: C5_5  and  C7_7 
REMARK    6  A    between atoms: C9_9  and  N8_8 
REMARK    7  A    between atoms: C9_9  and  C10_10 
REMARK    8  A    between atoms: C16_16  and  C9_9 
REMARK       I    between atoms: N18_18  and  C16_16 
REMARK    9  A    between atoms: C19_19  and  N18_18 
REMARK   10  A    between atoms: C20_20  and  C19_19 
REMARK   11  A    between atoms: C19_19  and  C22_22 
REMARK       I    between atoms: N26_26  and  C20_20 
REMARK   12  A    between atoms: C22_22  and  C23_23 
REMARK   13  A    between atoms: C27_27  and  N26_26 
REMARK   14  A    between atoms: C27_27  and  C28_28 
REMARK   15  A    between atoms: C33_33  and  C27_27 
REMARK   16  A    between atoms: C28_28  and  C29_29 
REMARK   17  A    between atoms: C33_33  and  O32_32 
REMARK   18  A    between atoms: O39_39  and  C33_33 
REMARK   19  A    between atoms: C35_35  and  N36_36 
REMARK       I    between atoms: C35_35  and  O39_39 
REMARK   20  A    between atoms: N36_36  and  C37_37 
REMARK       I    between atoms: C37_37  and  N40_40 
REMARK   21  A    between atoms: N40_40  and  C41_41 
REMARK   22  A    between atoms: C41_41  and  C42_42 
REMARK   23  A    between atoms: C41_41  and  C48_48 
ROOT
ATOM      1  C19 BNH d   1     195.127  -8.778  51.369  0.00  0.00     0.089 C 
ATOM      2  H24 BNH d   1     194.304  -8.278  51.900  0.00  0.00     0.087 H 
ENDROOT
BRANCH   1   3
ATOM      3  N18 BNH d   1     194.599  -9.399  50.158  0.00  0.00    -0.346 N 
ATOM      4  C16 BNH d   1     193.716  -8.781  49.382  0.00  0.00     0.241 C 
ATOM      5  O17 BNH d   1     193.293  -7.644  49.599  0.00  0.00    -0.271 OA
ATOM      6  H23 BNH d   1     194.911 -10.315  49.906  0.00  0.00     0.163 HD
BRANCH   4   7
ATOM      7  C9  BNH d   1     193.260  -9.543  48.150  0.00  0.00     0.095 C 
ATOM      8  H11 BNH d   1     193.725 -10.540  48.145  0.00  0.00     0.088 H 
BRANCH   7   9
ATOM      9  N8  BNH d   1     191.807  -9.709  48.129  0.00  0.00    -0.323 N 
ATOM     10  C1  BNH d   1     191.180 -10.615  48.878  0.00  0.00     0.361 C 
ATOM     11  O2  BNH d   1     191.778 -11.499  49.504  0.00  0.00    -0.239 OA
ATOM     12  H10 BNH d   1     191.264  -9.120  47.530  0.00  0.00     0.165 HD
BRANCH  10  13
ATOM     13  O3  BNH d   1     189.913 -10.524  48.924  0.00  0.00    -0.304 OA
BRANCH  13  14
ATOM     14  C4  BNH d   1     189.044 -11.398  49.670  0.00  0.00     0.033 C 
ATOM     15  H1  BNH d   1     189.690 -11.995  50.331  0.00  0.00     0.075 H 
ATOM     16  H2  BNH d   1     188.558 -12.059  48.938  0.00  0.00     0.075 H 
BRANCH  14  17
ATOM     17  C5  BNH d   1     187.929 -10.822  50.549  0.00  0.00    -0.040 C 
ATOM     18  H3  BNH d   1     187.014 -11.404  50.362  0.00  0.00     0.042 H 
BRANCH  17  19
ATOM     19  C6  BNH d   1     188.274 -10.943  52.027  0.00  0.00    -0.071 C 
ATOM     20  H4  BNH d   1     187.456 -10.522  52.630  0.00  0.00     0.028 H 
ATOM     21  H5  BNH d   1     189.203 -10.391  52.233  0.00  0.00     0.028 H 
ATOM     22  H6  BNH d   1     188.412 -12.003  52.286  0.00  0.00     0.028 H 
ENDBRANCH  17  19
BRANCH  17  23
ATOM     23  C7  BNH d   1     187.652  -9.387  50.194  0.00  0.00    -0.071 C 
ATOM     24  H7  BNH d   1     187.405  -9.315  49.125  0.00  0.00     0.028 H 
ATOM     25  H8  BNH d   1     188.543  -8.778  50.406  0.00  0.00     0.028 H 
ATOM     26  H9  BNH d   1     186.805  -9.018  50.792  0.00  0.00     0.028 H 
ENDBRANCH  17  23
ENDBRANCH  14  17
ENDBRANCH  13  14
ENDBRANCH  10  13
ENDBRANCH   7   9
BRANCH   7  27
ATOM     27  C10 BNH d   1     193.741  -8.754  46.938  0.00  0.00    -0.026 C 
ATOM     28  C11 BNH d   1     195.260  -8.580  46.969  0.00  0.00    -0.059 C 
ATOM     29  C13 BNH d   1     195.798  -7.845  45.755  0.00  0.00    -0.065 C 
ATOM     30  H13 BNH d   1     195.726  -9.575  47.011  0.00  0.00     0.033 H 
ATOM     31  H14 BNH d   1     195.529  -8.011  47.871  0.00  0.00     0.033 H 
ATOM     32  C15 BNH d   1     195.370  -8.542  44.468  0.00  0.00    -0.065 C 
ATOM     33  H17 BNH d   1     196.897  -7.822  45.805  0.00  0.00     0.033 H 
ATOM     34  H18 BNH d   1     195.409  -6.816  45.755  0.00  0.00     0.033 H 
ATOM     35  C14 BNH d   1     193.853  -8.716  44.411  0.00  0.00    -0.065 C 
ATOM     36  H21 BNH d   1     195.847  -9.532  44.421  0.00  0.00     0.033 H 
ATOM     37  H22 BNH d   1     195.694  -7.938  43.608  0.00  0.00     0.033 H 
ATOM     38  C12 BNH d   1     193.356  -9.453  45.639  0.00  0.00    -0.059 C 
ATOM     39  H19 BNH d   1     193.377  -7.726  44.366  0.00  0.00     0.033 H 
ATOM     40  H20 BNH d   1     193.588  -9.291  43.512  0.00  0.00     0.033 H 
ATOM     41  H15 BNH d   1     192.259  -9.523  45.588  0.00  0.00     0.033 H 
ATOM     42  H16 BNH d   1     193.788 -10.464  45.642  0.00  0.00     0.033 H 
ATOM     43  H12 BNH d   1     193.268  -7.761  46.960  0.00  0.00     0.043 H 
ENDBRANCH   7  27
ENDBRANCH   4   7
ENDBRANCH   1   3
BRANCH   1  44
ATOM     44  C20 BNH d   1     196.183  -7.745  51.002  0.00  0.00     0.240 C 
ATOM     45  O21 BNH d   1     197.162  -8.060  50.317  0.00  0.00    -0.271 OA
ATOM     46  N26 BNH d   1     195.977  -6.511  51.454  0.00  0.00    -0.352 N 
ATOM     47  H32 BNH d   1     195.163  -6.325  52.004  0.00  0.00     0.163 HD
BRANCH  46  48
ATOM     48  C27 BNH d   1     196.907  -5.419  51.170  0.00  0.00     0.046 C 
ATOM     49  H33 BNH d   1     197.714  -5.832  50.547  0.00  0.00     0.077 H 
BRANCH  48  50
ATOM     50  C28 BNH d   1     196.198  -4.324  50.354  0.00  0.00    -0.040 C 
ATOM     51  H34 BNH d   1     196.833  -3.426  50.338  0.00  0.00     0.036 H 
ATOM     52  H35 BNH d   1     195.238  -4.086  50.837  0.00  0.00     0.036 H 
BRANCH  50  53
ATOM     53  C29 BNH d   1     195.926  -4.774  48.889  0.00  0.00    -0.052 A 
ATOM     54  C30 BNH d   1     195.156  -3.869  47.921  0.00  0.00    -0.061 A 
ATOM     55  C31 BNH d   1     194.493  -5.147  48.464  0.00  0.00    -0.061 A 
ATOM     56  H37 BNH d   1     195.457  -3.813  46.864  0.00  0.00     0.033 H 
ATOM     57  H38 BNH d   1     194.803  -2.882  48.255  0.00  0.00     0.033 H 
ATOM     58  H39 BNH d   1     193.667  -5.075  49.187  0.00  0.00     0.033 H 
ATOM     59  H40 BNH d   1     194.322  -6.005  47.797  0.00  0.00     0.033 H 
ATOM     60  H36 BNH d   1     196.781  -5.362  48.523  0.00  0.00     0.040 H 
ENDBRANCH  50  53
ENDBRANCH  48  50
BRANCH  48  61
ATOM     61  C33 BNH d   1     197.567  -4.828  52.431  0.00  0.00     0.131 C 
ATOM     62  H42 BNH d   1     196.871  -4.162  52.963  0.00  0.00     0.101 H 
BRANCH  61  63
ATOM     63  O32 BNH d   1     198.006  -5.870  53.287  0.00  0.00    -0.384 OA
ATOM     64  H41 BNH d   1     197.262  -6.401  53.544  0.00  0.00     0.210 HD
ENDBRANCH  61  63
BRANCH  61  65
ATOM     65  O39 BNH d   1     198.786  -4.070  51.937  0.00  0.00     0.248 C 
ATOM     66  C35 BNH d   1     199.936  -4.728  51.977  0.00  0.00    -0.350 N 
ATOM     67  H43 BNH d   1     199.921  -5.694  52.234  0.00  0.00     0.163 HD
ATOM     68  O34 BNH d   1     198.699  -2.911  51.530  0.00  0.00    -0.271 OA
BRANCH  66  69
ATOM     69  N36 BNH d   1     201.212  -4.119  51.667  0.00  0.00     0.069 C 
ATOM     70  H44 BNH d   1     201.998  -4.688  52.185  0.00  0.00     0.078 H 
ATOM     71  H45 BNH d   1     201.199  -3.086  52.044  0.00  0.00     0.078 H 
BRANCH  69  72
ATOM     72  C37 BNH d   1     201.552  -4.079  50.197  0.00  0.00     0.236 C 
ATOM     73  C38 BNH d   1     200.718  -4.328  49.322  0.00  0.00    -0.272 OA
ATOM     74  N40 BNH d   1     202.803  -3.720  49.939  0.00  0.00    -0.341 N 
ATOM     75  H46 BNH d   1     203.398  -3.495  50.711  0.00  0.00     0.163 HD
BRANCH  74  76
ATOM     76  C41 BNH d   1     203.358  -3.635  48.599  0.00  0.00     0.122 C 
ATOM     77  H47 BNH d   1     203.018  -4.526  48.051  0.00  0.00     0.097 H 
BRANCH  76  78
ATOM     78  C42 BNH d   1     203.004  -2.440  47.745  0.00  0.00    -0.025 A 
ATOM     79  C43 BNH d   1     203.024  -1.147  48.286  0.00  0.00    -0.074 A 
ATOM     80  C45 BNH d   1     202.747  -0.066  47.505  0.00  0.00    -0.082 A 
ATOM     81  H48 BNH d   1     203.262  -1.006  49.334  0.00  0.00     0.084 H 
ATOM     82  C47 BNH d   1     202.447  -0.264  46.160  0.00  0.00    -0.083 A 
ATOM     83  H50 BNH d   1     202.760   0.933  47.924  0.00  0.00     0.083 H 
ATOM     84  C46 BNH d   1     202.422  -1.546  45.615  0.00  0.00    -0.082 A 
ATOM     85  H52 BNH d   1     202.230   0.590  45.529  0.00  0.00     0.083 H 
ATOM     86  C44 BNH d   1     202.701  -2.644  46.401  0.00  0.00    -0.074 A 
ATOM     87  H51 BNH d   1     202.182  -1.681  44.567  0.00  0.00     0.083 H 
ATOM     88  H49 BNH d   1     202.685  -3.644  45.982  0.00  0.00     0.084 H 
ENDBRANCH  76  78
BRANCH  76  89
ATOM     89  C48 BNH d   1     204.880  -3.694  48.758  0.00  0.00     0.201 C 
ATOM     90  O49 BNH d   1     205.419  -3.348  49.822  0.00  0.00    -0.646 OA
ATOM     91  O50 BNH d   1     205.596  -4.089  47.833  0.00  0.00    -0.646 OA
ENDBRANCH  76  89
ENDBRANCH  74  76
ENDBRANCH  69  72
ENDBRANCH  66  69
ENDBRANCH  61  65
ENDBRANCH  48  61
ENDBRANCH  46  48
ENDBRANCH   1  44
BRANCH   1  92
ATOM     92  C22 BNH d   1     195.743  -9.829  52.287  0.00  0.00    -0.035 C 
ATOM     93  H25 BNH d   1     196.139  -9.341  53.190  0.00  0.00     0.037 H 
ATOM     94  H26 BNH d   1     196.560 -10.343  51.760  0.00  0.00     0.037 H 
BRANCH  92  95
ATOM     95  C23 BNH d   1     194.682 -10.840  52.683  0.00  0.00    -0.052 A 
ATOM     96  C24 BNH d   1     193.566 -10.374  53.615  0.00  0.00    -0.061 A 
ATOM     97  C25 BNH d   1     194.677 -11.308  54.134  0.00  0.00    -0.061 A 
ATOM     98  H28 BNH d   1     192.543 -10.755  53.483  0.00  0.00     0.033 H 
ATOM     99  H29 BNH d   1     193.527  -9.326  53.947  0.00  0.00     0.033 H 
ATOM    100  H30 BNH d   1     195.432 -10.928  54.838  0.00  0.00     0.033 H 
ATOM    101  H31 BNH d   1     194.447 -12.357  54.374  0.00  0.00     0.033 H 
ATOM    102  H27 BNH d   1     194.476 -11.538  51.858  0.00  0.00     0.040 H 
ENDBRANCH  92  95
ENDBRANCH   1  92
TORSDOF 23
