REMARK WARNING: 32 MAX_TORS EXCEEDED!!!
REMARK  51 active torsions:
REMARK  status: ('A' for Active; 'I' for Inactive)
REMARK       I    between atoms: C1_3  and  NA_1 
REMARK    1  A    between atoms: C2_2  and  C1_3 
REMARK    2  A    between atoms: C3_6  and  C2_2 
REMARK    3  A    between atoms: C2_2  and  NB_7 
REMARK    4  A    between atoms: NC_5  and  C3_6 
REMARK    5  A    between atoms: C6_18  and  NC_5 
REMARK       I    between atoms: C4_10  and  ND_8 
REMARK    6  A    between atoms: C5_9  and  C4_10 
REMARK    7  A    between atoms: C6_18  and  C5_9 
REMARK    8  A    between atoms: C9_13  and  CA_20 
REMARK    9  A    between atoms: C12_21  and  C10_14 
REMARK   10  A    between atoms: C7_16  and  C6_18 
REMARK       I    between atoms: NH_23  and  C12_21 
REMARK   11  A    between atoms: C13_24  and  NH_23 
REMARK   12  A    between atoms: C13_24  and  C30_25 
REMARK   13  A    between atoms: C14_27  and  C13_24 
REMARK       I    between atoms: C30_25  and  NK_34 
REMARK   14  A    between atoms: C14_27  and  C27_28 
REMARK   15  A    between atoms: OH1_29  and  C14_27 
REMARK   16  A    between atoms: C63_79  and  OH1_29 
REMARK   17  A    between atoms: NK_34  and  C31_39 
REMARK   18  A    between atoms: C34_35  and  C36_36 
REMARK   19  A    between atoms: C33_41  and  C34_35 
REMARK   20  A    between atoms: C34_35  and  CC_42 
REMARK       I    between atoms: C36_36  and  NL_43 
REMARK   21  A    between atoms: C33_41  and  OH2_38 
REMARK   22  A    between atoms: C31_39  and  CB_40 
REMARK   23  A    between atoms: C31_39  and  C33_41 
REMARK   24  A    between atoms: NL_43  and  C37_44 
REMARK   25  A    between atoms: C37_44  and  C40_45 
REMARK   26  A    between atoms: C37_44  and  C38_47 
REMARK       I    between atoms: C40_45  and  NM_50 
REMARK   27  A    between atoms: C38_47  and  OH3_48 
REMARK   28  A    between atoms: C38_47  and  CD_49 
REMARK   29  A    between atoms: NM_50  and  C41_55 
REMARK   30  A    between atoms: C42_51  and  C43_54 
REMARK   31  A    between atoms: C41_55  and  C42_51 
REMARK   32  A    between atoms: C48_61  and  C49_52 
REMARK       I    between atoms: C49_52  and  NP_65 
REMARK   33  A    between atoms: C45_58  and  C46_63 
REMARK   34  A    between atoms: NP_65  and  C50_66 
REMARK   35  A    between atoms: C50_66  and  C51_67 
REMARK   36  A    between atoms: C51_67  and  C52_68 
REMARK   37  A    between atoms: C52_68  and  S53_69 
REMARK   38  A    between atoms: S53_69  and  C55_70 
REMARK   39  A    between atoms: S53_69  and  C54_71 
REMARK   40  A    between atoms: C59_82  and  O59_72 
REMARK   41  A    between atoms: C58_81  and  O58_73 
REMARK   42  A    between atoms: C61_74  and  O61_75 
REMARK   43  A    between atoms: C60_77  and  C61_74 
REMARK   44  A    between atoms: O56_76  and  C57_80 
REMARK   45  A    between atoms: C64_88  and  O56_76 
REMARK   46  A    between atoms: C69_83  and  O69_91 
REMARK   47  A    between atoms: C68_84  and  O68_89 
REMARK   48  A    between atoms: C67_85  and  O67_90 
REMARK   49  A    between atoms: C65_86  and  C66_96 
REMARK   50  A    between atoms: O68_89  and  C70_93 
REMARK       I    between atoms: C70_93  and  NQ_92 
REMARK   51  A    between atoms: C66_96  and  O66_95 
ROOT
ATOM      1  C13 BLM d   1      37.638 -11.347   6.675  0.00  0.00     0.120 C 
ATOM      2  H22 BLM d   1      37.682 -12.421   6.439  0.00  0.00     0.092 H 
ENDROOT
BRANCH   1   3
ATOM      3  NH  BLM d   1      37.133 -11.236   8.042  0.00  0.00    -0.340 N 
ATOM      4  C12 BLM d   1      37.559 -12.110   9.045  0.00  0.00     0.271 C 
ATOM      5  O12 BLM d   1      38.384 -13.013   8.876  0.00  0.00    -0.266 OA
ATOM      6  H21 BLM d   1      36.470 -10.521   8.264  0.00  0.00     0.163 HD
BRANCH   4   7
ATOM      7  C10 BLM d   1      37.004 -11.909  10.351  0.00  0.00     0.136 A 
ATOM      8  C9  BLM d   1      37.156 -12.515  11.494  0.00  0.00     0.018 A 
ATOM      9  C8  BLM d   1      36.384 -12.017  12.717  0.00  0.00     0.131 A 
ATOM     10  NE  BLM d   1      35.522 -10.852  12.501  0.00  0.00    -0.214 NA
ATOM     11  NF  BLM d   1      36.466 -12.600  13.921  0.00  0.00    -0.383 N 
ATOM     12  C7  BLM d   1      35.426 -10.316  11.413  0.00  0.00     0.160 A 
ATOM     13  NG  BLM d   1      36.088 -10.743  10.302  0.00  0.00    -0.225 NA
ATOM     14  H16 BLM d   1      35.925 -12.225  14.713  0.00  0.00     0.157 HD
ATOM     15  H17 BLM d   1      37.070 -13.423  14.054  0.00  0.00     0.157 HD
BRANCH   8  16
ATOM     16  CA  BLM d   1      38.101 -13.688  11.677  0.00  0.00    -0.045 C 
ATOM     17  H18 BLM d   1      38.060 -14.032  12.721  0.00  0.00     0.033 H 
ATOM     18  H19 BLM d   1      39.127 -13.374  11.434  0.00  0.00     0.033 H 
ATOM     19  H20 BLM d   1      37.801 -14.508  11.009  0.00  0.00     0.033 H 
ENDBRANCH   8  16
BRANCH  12  20
ATOM     20  C6  BLM d   1      34.596  -9.050  11.158  0.00  0.00     0.168 C 
ATOM     21  H15 BLM d   1      35.290  -8.198  11.106  0.00  0.00     0.097 H 
BRANCH  20  22
ATOM     22  NC  BLM d   1      33.974  -9.178   9.849  0.00  0.00    -0.061 N 
ATOM     23  H4  BLM d   1      33.613  -8.269   9.604  0.00  0.00     0.278 HD
ATOM     24  H5  BLM d   1      34.702  -9.436   9.201  0.00  0.00     0.278 HD
BRANCH  22  25
ATOM     25  C3  BLM d   1      32.886 -10.132   9.670  0.00  0.00     0.117 C 
ATOM     26  H6  BLM d   1      33.134 -11.066  10.195  0.00  0.00     0.079 H 
ATOM     27  H7  BLM d   1      31.962  -9.710  10.090  0.00  0.00     0.079 H 
BRANCH  25  28
ATOM     28  C2  BLM d   1      32.672 -10.432   8.177  0.00  0.00     0.198 C 
ATOM     29  H3  BLM d   1      31.773 -11.055   8.061  0.00  0.00     0.101 H 
BRANCH  28  30
ATOM     30  C1  BLM d   1      32.485  -9.184   7.322  0.00  0.00     0.247 C 
ATOM     31  NA  BLM d   1      32.545  -9.313   5.949  0.00  0.00    -0.368 N 
ATOM     32  H1  BLM d   1      32.425  -8.510   5.366  0.00  0.00     0.159 HD
ATOM     33  H2  BLM d   1      32.708 -10.210   5.538  0.00  0.00     0.159 HD
ATOM     34  O1  BLM d   1      32.298  -8.066   7.756  0.00  0.00    -0.271 OA
ENDBRANCH  28  30
BRANCH  28  35
ATOM     35  NB  BLM d   1      33.888 -11.225   7.761  0.00  0.00    -0.065 N 
ATOM     36  H8  BLM d   1      33.817 -11.460   6.783  0.00  0.00     0.275 HD
ATOM     37  H9  BLM d   1      33.941 -12.071   8.307  0.00  0.00     0.275 HD
ATOM     38  H10 BLM d   1      34.718 -10.674   7.915  0.00  0.00     0.275 HD
ENDBRANCH  28  35
ENDBRANCH  25  28
ENDBRANCH  22  25
ENDBRANCH  20  22
BRANCH  20  39
ATOM     39  C5  BLM d   1      33.623  -8.749  12.320  0.00  0.00     0.042 C 
ATOM     40  H13 BLM d   1      32.927  -9.600  12.364  0.00  0.00     0.051 H 
ATOM     41  H14 BLM d   1      34.235  -8.728  13.234  0.00  0.00     0.051 H 
BRANCH  39  42
ATOM     42  C4  BLM d   1      32.773  -7.511  12.358  0.00  0.00     0.217 C 
ATOM     43  ND  BLM d   1      31.599  -7.506  13.024  0.00  0.00    -0.370 N 
ATOM     44  H11 BLM d   1      31.039  -6.678  13.044  0.00  0.00     0.159 HD
ATOM     45  H12 BLM d   1      31.289  -8.331  13.497  0.00  0.00     0.159 HD
ATOM     46  O4  BLM d   1      33.122  -6.429  11.743  0.00  0.00    -0.274 OA
ENDBRANCH  39  42
ENDBRANCH  20  39
ENDBRANCH  12  20
ENDBRANCH   4   7
ENDBRANCH   1   3
BRANCH   1  47
ATOM     47  C30 BLM d   1      39.044 -10.787   6.528  0.00  0.00     0.243 C 
ATOM     48  O30 BLM d   1      39.830 -11.261   5.705  0.00  0.00    -0.271 OA
ATOM     49  NK  BLM d   1      39.373  -9.762   7.326  0.00  0.00    -0.352 N 
ATOM     50  H27 BLM d   1      38.692  -9.418   7.973  0.00  0.00     0.163 HD
BRANCH  49  51
ATOM     51  C31 BLM d   1      40.684  -9.131   7.287  0.00  0.00     0.034 C 
ATOM     52  H30 BLM d   1      41.221  -9.449   6.381  0.00  0.00     0.075 H 
BRANCH  51  53
ATOM     53  CB  BLM d   1      41.451  -9.582   8.520  0.00  0.00    -0.055 C 
ATOM     54  H31 BLM d   1      42.450  -9.121   8.520  0.00  0.00     0.030 H 
ATOM     55  H32 BLM d   1      41.553 -10.677   8.508  0.00  0.00     0.030 H 
ATOM     56  H33 BLM d   1      40.905  -9.274   9.424  0.00  0.00     0.030 H 
ENDBRANCH  51  53
BRANCH  51  57
ATOM     57  C33 BLM d   1      40.536  -7.599   7.273  0.00  0.00     0.066 C 
ATOM     58  H34 BLM d   1      40.332  -7.267   8.302  0.00  0.00     0.087 H 
BRANCH  57  59
ATOM     59  C34 BLM d   1      39.491  -6.943   6.338  0.00  0.00     0.047 C 
ATOM     60  H28 BLM d   1      38.512  -7.407   6.531  0.00  0.00     0.058 H 
BRANCH  59  61
ATOM     61  C36 BLM d   1      39.410  -5.455   6.659  0.00  0.00     0.224 C 
ATOM     62  O36 BLM d   1      39.806  -4.582   5.877  0.00  0.00    -0.273 OA
ATOM     63  NL  BLM d   1      38.859  -5.143   7.835  0.00  0.00    -0.345 N 
ATOM     64  H38 BLM d   1      38.509  -5.875   8.420  0.00  0.00     0.163 HD
BRANCH  63  65
ATOM     65  C37 BLM d   1      38.756  -3.766   8.283  0.00  0.00     0.113 C 
ATOM     66  H39 BLM d   1      39.044  -3.106   7.452  0.00  0.00     0.091 H 
BRANCH  65  67
ATOM     67  C40 BLM d   1      39.693  -3.528   9.458  0.00  0.00     0.243 C 
ATOM     68  O40 BLM d   1      40.296  -4.455  10.009  0.00  0.00    -0.271 OA
ATOM     69  NM  BLM d   1      39.812  -2.270   9.863  0.00  0.00    -0.359 N 
ATOM     70  H45 BLM d   1      39.325  -1.556   9.360  0.00  0.00     0.162 HD
BRANCH  69  71
ATOM     71  C41 BLM d   1      40.619  -1.891  11.004  0.00  0.00     0.001 C 
ATOM     72  H48 BLM d   1      40.897  -0.830  10.924  0.00  0.00     0.064 H 
ATOM     73  H49 BLM d   1      41.529  -2.508  11.034  0.00  0.00     0.064 H 
BRANCH  71  74
ATOM     74  C42 BLM d   1      39.804  -2.114  12.283  0.00  0.00    -0.004 C 
ATOM     75  H46 BLM d   1      39.614  -3.192  12.392  0.00  0.00     0.045 H 
ATOM     76  H47 BLM d   1      40.395  -1.758  13.139  0.00  0.00     0.045 H 
BRANCH  74  77
ATOM     77  C43 BLM d   1      38.487  -1.397  12.284  0.00  0.00     0.077 A 
ATOM     78  S43 BLM d   1      38.311   0.250  12.750  0.00  0.00    -0.084 SA
ATOM     79  C44 BLM d   1      36.627   0.095  12.723  0.00  0.00    -0.013 A 
ATOM     80  C45 BLM d   1      36.286  -1.210  12.352  0.00  0.00     0.100 A 
ATOM     81  H50 BLM d   1      35.918   0.888  12.958  0.00  0.00     0.098 H 
ATOM     82  NN  BLM d   1      37.381  -2.025  12.088  0.00  0.00    -0.243 NA
BRANCH  80  83
ATOM     83  C46 BLM d   1      34.938  -1.643  12.284  0.00  0.00     0.127 A 
ATOM     84  NO  BLM d   1      33.920  -0.909  12.536  0.00  0.00    -0.233 NA
ATOM     85  C48 BLM d   1      32.726  -1.561  12.374  0.00  0.00     0.132 A 
ATOM     86  C47 BLM d   1      32.839  -2.851  11.943  0.00  0.00    -0.010 A 
ATOM     87  S46 BLM d   1      34.528  -3.266  11.774  0.00  0.00    -0.077 SA
ATOM     88  H51 BLM d   1      32.004  -3.519  11.736  0.00  0.00     0.099 H 
BRANCH  85  89
ATOM     89  C49 BLM d   1      31.427  -0.841  12.643  0.00  0.00     0.270 C 
ATOM     90  O49 BLM d   1      31.457   0.277  13.144  0.00  0.00    -0.266 OA
ATOM     91  NP  BLM d   1      30.335  -1.563  12.413  0.00  0.00    -0.356 N 
ATOM     92  H52 BLM d   1      30.428  -2.502  12.081  0.00  0.00     0.162 HD
BRANCH  91  93
ATOM     93  C50 BLM d   1      29.017  -1.016  12.634  0.00  0.00    -0.004 C 
ATOM     94  H53 BLM d   1      28.989  -0.579  13.643  0.00  0.00     0.064 H 
ATOM     95  H54 BLM d   1      28.287  -1.836  12.569  0.00  0.00     0.064 H 
BRANCH  93  96
ATOM     96  C51 BLM d   1      28.620   0.052  11.643  0.00  0.00    -0.043 C 
ATOM     97  H55 BLM d   1      28.257  -0.426  10.721  0.00  0.00     0.036 H 
ATOM     98  H56 BLM d   1      29.496   0.676  11.412  0.00  0.00     0.036 H 
BRANCH  96  99
ATOM     99  C52 BLM d   1      27.509   0.937  12.225  0.00  0.00    -0.031 C 
ATOM    100  H57 BLM d   1      27.868   1.377  13.167  0.00  0.00     0.047 H 
ATOM    101  H58 BLM d   1      26.628   0.309  12.426  0.00  0.00     0.047 H 
BRANCH  99 102
ATOM    102  S53 BLM d   1      27.025   2.269  11.115  0.00  0.00    -0.228 SA
BRANCH 102 103
ATOM    103  C55 BLM d   1      25.689   3.104  11.922  0.00  0.00    -0.043 C 
ATOM    104  H59 BLM d   1      25.343   3.937  11.292  0.00  0.00     0.040 H 
ATOM    105  H60 BLM d   1      26.033   3.496  12.890  0.00  0.00     0.040 H 
ATOM    106  H61 BLM d   1      24.861   2.399  12.085  0.00  0.00     0.040 H 
ENDBRANCH 102 103
BRANCH 102 107
ATOM    107  C54 BLM d   1      26.241   1.507   9.722  0.00  0.00    -0.043 C 
ATOM    108  H62 BLM d   1      26.990   0.951   9.139  0.00  0.00     0.040 H 
ATOM    109  H63 BLM d   1      25.785   2.282   9.089  0.00  0.00     0.040 H 
ATOM    110  H64 BLM d   1      25.462   0.815  10.073  0.00  0.00     0.040 H 
ENDBRANCH 102 107
ENDBRANCH  99 102
ENDBRANCH  96  99
ENDBRANCH  93  96
ENDBRANCH  91  93
ENDBRANCH  85  89
ENDBRANCH  80  83
ENDBRANCH  74  77
ENDBRANCH  71  74
ENDBRANCH  69  71
ENDBRANCH  65  67
BRANCH  65 111
ATOM    111  C38 BLM d   1      37.321  -3.415   8.724  0.00  0.00     0.060 C 
ATOM    112  H40 BLM d   1      37.267  -2.337   8.936  0.00  0.00     0.086 H 
BRANCH 111 113
ATOM    113  OH3 BLM d   1      37.069  -4.144   9.922  0.00  0.00    -0.393 OA
ATOM    114  H41 BLM d   1      37.151  -5.074   9.748  0.00  0.00     0.210 HD
ENDBRANCH 111 113
BRANCH 111 115
ATOM    115  CD  BLM d   1      36.282  -3.740   7.669  0.00  0.00    -0.050 C 
ATOM    116  H42 BLM d   1      35.283  -3.468   8.042  0.00  0.00     0.031 H 
ATOM    117  H43 BLM d   1      36.309  -4.817   7.447  0.00  0.00     0.031 H 
ATOM    118  H44 BLM d   1      36.499  -3.171   6.753  0.00  0.00     0.031 H 
ENDBRANCH 111 115
ENDBRANCH  65 111
ENDBRANCH  63  65
ENDBRANCH  59  61
BRANCH  59 119
ATOM    119  CC  BLM d   1      39.825  -7.125   4.859  0.00  0.00    -0.062 C 
ATOM    120  H35 BLM d   1      39.051  -6.640   4.246  0.00  0.00     0.028 H 
ATOM    121  H36 BLM d   1      39.862  -8.198   4.621  0.00  0.00     0.028 H 
ATOM    122  H37 BLM d   1      40.802  -6.668   4.645  0.00  0.00     0.028 H 
ENDBRANCH  59 119
ENDBRANCH  57  59
BRANCH  57 123
ATOM    123  OH2 BLM d   1      41.790  -7.105   6.814  0.00  0.00    -0.393 OA
ATOM    124  H29 BLM d   1      42.487  -7.469   7.347  0.00  0.00     0.210 HD
ENDBRANCH  57 123
ENDBRANCH  51  57
ENDBRANCH  49  51
ENDBRANCH   1  47
BRANCH   1 125
ATOM    125  C14 BLM d   1      36.716 -10.681   5.629  0.00  0.00     0.110 C 
ATOM    126  H23 BLM d   1      37.261 -10.655   4.674  0.00  0.00     0.097 H 
BRANCH 125 127
ATOM    127  C27 BLM d   1      36.307  -9.246   5.943  0.00  0.00     0.059 A 
ATOM    128  NJ  BLM d   1      36.096  -8.781   7.162  0.00  0.00    -0.351 N 
ATOM    129  C29 BLM d   1      35.695  -7.534   6.998  0.00  0.00     0.064 A 
ATOM    130  H24 BLM d   1      36.218  -9.285   8.052  0.00  0.00     0.166 HD
ATOM    131  NI  BLM d   1      35.660  -7.235   5.710  0.00  0.00    -0.254 NA
ATOM    132  H26 BLM d   1      35.432  -6.852   7.805  0.00  0.00     0.143 H 
ATOM    133  C28 BLM d   1      36.038  -8.276   5.014  0.00  0.00     0.028 A 
ATOM    134  H25 BLM d   1      36.121  -8.354   3.931  0.00  0.00     0.117 H 
ENDBRANCH 125 127
BRANCH 125 135
ATOM    135  OH1 BLM d   1      35.580 -11.518   5.475  0.00  0.00    -0.345 OA
BRANCH 135 136
ATOM    136  C63 BLM d   1      35.522 -12.344   4.323  0.00  0.00     0.160 C 
ATOM    137  O62 BLM d   1      35.143 -11.505   3.224  0.00  0.00    -0.348 OA
ATOM    138  C60 BLM d   1      33.770 -11.166   3.031  0.00  0.00     0.089 C 
ATOM    139  C59 BLM d   1      32.896 -12.427   3.004  0.00  0.00     0.090 C 
ATOM    140  H70 BLM d   1      33.435 -10.544   3.874  0.00  0.00     0.090 H 
ATOM    141  C58 BLM d   1      33.073 -13.242   4.295  0.00  0.00     0.092 C 
ATOM    142  H74 BLM d   1      31.843 -12.125   2.905  0.00  0.00     0.091 H 
ATOM    143  C57 BLM d   1      34.572 -13.555   4.555  0.00  0.00     0.116 C 
ATOM    144  H73 BLM d   1      32.535 -14.194   4.178  0.00  0.00     0.091 H 
ATOM    145  H72 BLM d   1      34.867 -14.368   3.875  0.00  0.00     0.095 H 
ATOM    146  H71 BLM d   1      36.526 -12.745   4.121  0.00  0.00     0.133 H 
BRANCH 138 147
ATOM    147  C61 BLM d   1      33.675 -10.333   1.749  0.00  0.00     0.043 C 
ATOM    148  H67 BLM d   1      34.173 -10.871   0.929  0.00  0.00     0.078 H 
ATOM    149  H68 BLM d   1      32.616 -10.177   1.495  0.00  0.00     0.078 H 
BRANCH 147 150
ATOM    150  O61 BLM d   1      34.294  -9.092   1.931  0.00  0.00    -0.398 OA
ATOM    151  H69 BLM d   1      33.864  -8.625   2.638  0.00  0.00     0.209 HD
ENDBRANCH 147 150
ENDBRANCH 138 147
BRANCH 139 152
ATOM    152  O59 BLM d   1      33.248 -13.263   1.915  0.00  0.00    -0.390 OA
ATOM    153  H65 BLM d   1      34.158 -13.523   1.998  0.00  0.00     0.210 HD
ENDBRANCH 139 152
BRANCH 141 154
ATOM    154  O58 BLM d   1      32.524 -12.551   5.398  0.00  0.00    -0.390 OA
ATOM    155  H66 BLM d   1      32.600 -13.089   6.177  0.00  0.00     0.210 HD
ENDBRANCH 141 154
BRANCH 143 156
ATOM    156  O56 BLM d   1      34.777 -13.969   5.896  0.00  0.00    -0.346 OA
BRANCH 156 157
ATOM    157  C64 BLM d   1      35.236 -15.285   6.115  0.00  0.00     0.159 C 
ATOM    158  C69 BLM d   1      34.815 -15.683   7.550  0.00  0.00     0.111 C 
ATOM    159  C68 BLM d   1      36.037 -15.750   8.481  0.00  0.00     0.106 C 
ATOM    160  H75 BLM d   1      34.116 -14.928   7.940  0.00  0.00     0.094 H 
ATOM    161  C67 BLM d   1      37.122 -16.664   7.869  0.00  0.00     0.090 C 
ATOM    162  H76 BLM d   1      36.439 -14.727   8.522  0.00  0.00     0.092 H 
ATOM    163  C65 BLM d   1      37.517 -16.248   6.428  0.00  0.00     0.089 C 
ATOM    164  H77 BLM d   1      36.746 -17.698   7.849  0.00  0.00     0.091 H 
ATOM    165  O64 BLM d   1      36.649 -15.252   5.888  0.00  0.00    -0.348 OA
ATOM    166  H78 BLM d   1      38.535 -15.833   6.468  0.00  0.00     0.090 H 
ATOM    167  H79 BLM d   1      34.773 -15.982   5.402  0.00  0.00     0.133 H 
BRANCH 158 168
ATOM    168  O69 BLM d   1      34.163 -16.935   7.502  0.00  0.00    -0.388 OA
ATOM    169  H81 BLM d   1      33.901 -17.188   8.379  0.00  0.00     0.210 HD
ENDBRANCH 158 168
BRANCH 159 170
ATOM    170  O68 BLM d   1      35.845 -16.154   9.825  0.00  0.00    -0.293 OA
BRANCH 170 171
ATOM    171  C70 BLM d   1      34.863 -15.734  10.628  0.00  0.00     0.358 C 
ATOM    172  NQ  BLM d   1      34.113 -16.775  11.114  0.00  0.00    -0.346 N 
ATOM    173  H82 BLM d   1      33.345 -16.594  11.728  0.00  0.00     0.161 HD
ATOM    174  H83 BLM d   1      34.334 -17.715  10.854  0.00  0.00     0.161 HD
ATOM    175  O70 BLM d   1      34.578 -14.606  10.934  0.00  0.00    -0.239 OA
ENDBRANCH 170 171
ENDBRANCH 159 170
BRANCH 161 176
ATOM    176  O67 BLM d   1      38.272 -16.590   8.684  0.00  0.00    -0.390 OA
ATOM    177  H80 BLM d   1      38.046 -16.842   9.572  0.00  0.00     0.210 HD
ENDBRANCH 161 176
BRANCH 163 178
ATOM    178  C66 BLM d   1      37.519 -17.454   5.476  0.00  0.00     0.043 C 
ATOM    179  H85 BLM d   1      37.387 -17.105   4.441  0.00  0.00     0.078 H 
ATOM    180  H86 BLM d   1      36.695 -18.133   5.742  0.00  0.00     0.078 H 
BRANCH 178 181
ATOM    181  O66 BLM d   1      38.737 -18.133   5.588  0.00  0.00    -0.398 OA
ATOM    182  H84 BLM d   1      38.738 -18.879   4.999  0.00  0.00     0.209 HD
ENDBRANCH 178 181
ENDBRANCH 163 178
ENDBRANCH 156 157
ENDBRANCH 143 156
ENDBRANCH 135 136
ENDBRANCH 125 135
ENDBRANCH   1 125
TORSDOF 51
