REMARK  1 active torsions:
REMARK  status: ('A' for Active; 'I' for Inactive)
REMARK    1  A    between atoms: C18_18  and  C15_8 
ROOT
ATOM      1  C8  BYM d   1      45.662  14.382  29.998  0.00  0.00     0.112 A 
ATOM      2  C9  BYM d   1      45.918  13.313  29.245  0.00  0.00     0.111 A 
ATOM      3  C11 BYM d   1      44.329  14.608  30.581  0.00  0.00    -0.038 A 
ATOM      4  C13 BYM d   1      44.887  12.305  28.959  0.00  0.00    -0.047 A 
ATOM      5  C14 BYM d   1      47.801  14.297  29.652  0.00  0.00     0.498 C 
ATOM      6  C15 BYM d   1      43.335  13.684  30.340  0.00  0.00    -0.032 A 
ATOM      7  C16 BYM d   1      43.651  12.483  29.480  0.00  0.00    -0.070 A 
ATOM      8  O10 BYM d   1      46.760  15.197  30.136  0.00  0.00    -0.256 OA
ATOM      9  O12 BYM d   1      47.211  13.278  28.804  0.00  0.00    -0.256 OA
ATOM     10  F17 BYM d   1      48.429  13.723  30.745  0.00  0.00    -0.147 F 
ATOM     11  F19 BYM d   1      48.736  14.975  28.906  0.00  0.00    -0.147 F 
ATOM     12  H1  BYM d   1      44.133  15.484  31.188  0.00  0.00     0.089 H 
ATOM     13  H2  BYM d   1      45.111  11.440  28.346  0.00  0.00     0.087 H 
ATOM     14  H3  BYM d   1      42.876  11.753  29.277  0.00  0.00     0.084 H 
ENDROOT
BRANCH   6  15
ATOM     15  C18 BYM d   1      41.939  13.797  30.882  0.00  0.00    -0.051 C 
ATOM     16  C5  BYM d   1      41.532  14.365  32.045  0.00  0.00     0.079 A 
ATOM     17  C1  BYM d   1      40.170  14.192  32.572  0.00  0.00     0.266 A 
ATOM     18  S4  BYM d   1      42.468  15.390  33.151  0.00  0.00    -0.024 SA
ATOM     19  N2  BYM d   1      39.942  14.870  33.792  0.00  0.00    -0.283 N 
ATOM     20  O7  BYM d   1      39.297  13.525  32.017  0.00  0.00    -0.267 OA
ATOM     21  C3  BYM d   1      41.086  15.569  34.236  0.00  0.00     0.291 A 
ATOM     22  H4  BYM d   1      39.071  14.856  34.283  0.00  0.00     0.172 HD
ATOM     23  O6  BYM d   1      41.101  16.232  35.272  0.00  0.00    -0.260 OA
ATOM     24  H5  BYM d   1      41.153  13.368  30.262  0.00  0.00     0.087 H 
ENDBRANCH   6  15
TORSDOF 1
