REMARK  11 active torsions:
REMARK  status: ('A' for Active; 'I' for Inactive)
REMARK    1  A    between atoms: C7_11  and  C7M_12 
REMARK    2  A    between atoms: C8_13  and  C8M_14 
REMARK    3  A    between atoms: N10_17  and  C1_19 
REMARK    4  A    between atoms: C1_19  and  C2_20 
REMARK    5  A    between atoms: C2_20  and  O2_21 
REMARK    6  A    between atoms: C2_20  and  C3_22 
REMARK    7  A    between atoms: C3_22  and  O3_23 
REMARK    8  A    between atoms: C3_22  and  C4_24 
REMARK    9  A    between atoms: C4_24  and  O4_25 
REMARK   10  A    between atoms: C4_24  and  C5_26 
REMARK   11  A    between atoms: C5_26  and  O5_27 
ROOT
ATOM      1  N1  RBF d   1      76.154  45.228  42.498  0.00  0.00    -0.292 N 
ATOM      2  C2  RBF d   1      76.047  44.010  43.167  0.00  0.00     0.328 A 
ATOM      3  O2  RBF d   1      77.056  43.374  43.310  0.00  0.00    -0.247 OA
ATOM      4  N3  RBF d   1      74.792  43.673  43.587  0.00  0.00    -0.273 N 
ATOM      5  C4  RBF d   1      73.583  44.383  43.439  0.00  0.00     0.282 A 
ATOM      6  O4  RBF d   1      72.537  43.946  43.872  0.00  0.00    -0.265 OA
ATOM      7  C4A RBF d   1      73.754  45.712  42.695  0.00  0.00     0.169 A 
ATOM      8  N5  RBF d   1      72.686  46.479  42.487  0.00  0.00    -0.237 NA
ATOM      9  C5A RBF d   1      72.854  47.706  41.794  0.00  0.00     0.085 A 
ATOM     10  C6  RBF d   1      71.651  48.503  41.594  0.00  0.00    -0.047 A 
ATOM     11  C7  RBF d   1      71.840  49.708  40.899  0.00  0.00    -0.054 A 
ATOM     12  C8  RBF d   1      73.184  50.097  40.424  0.00  0.00    -0.054 A 
ATOM     13  C9  RBF d   1      74.341  49.371  40.603  0.00  0.00    -0.048 A 
ATOM     14  C9A RBF d   1      74.140  48.127  41.319  0.00  0.00     0.065 A 
ATOM     15  N10 RBF d   1      75.278  47.244  41.584  0.00  0.00    -0.326 N 
ATOM     16  C10 RBF d   1      75.079  46.069  42.252  0.00  0.00     0.147 A 
ATOM     17  H1  RBF d   1      77.058  45.512  42.177  0.00  0.00     0.172 HD
ATOM     18  H2  RBF d   1      74.720  42.799  44.068  0.00  0.00     0.173 HD
ATOM     19  H3  RBF d   1      70.679  48.188  41.956  0.00  0.00     0.088 H 
ATOM     20  H10 RBF d   1      75.309  49.699  40.243  0.00  0.00     0.087 H 
ENDROOT
BRANCH  15  21
ATOM     21  C1  RBF d   1      76.560  47.773  41.068  0.00  0.00     0.028 C 
ATOM     22  H11 RBF d   1      77.356  47.580  41.803  0.00  0.00     0.069 H 
ATOM     23  H12 RBF d   1      76.467  48.857  40.904  0.00  0.00     0.069 H 
BRANCH  21  24
ATOM     24  C2  RBF d   1      76.917  47.086  39.738  0.00  0.00     0.078 C 
ATOM     25  H13 RBF d   1      76.055  47.120  39.056  0.00  0.00     0.089 H 
BRANCH  24  26
ATOM     26  O2  RBF d   1      77.358  45.721  40.010  0.00  0.00    -0.391 OA
ATOM     27  H14 RBF d   1      78.122  45.743  40.575  0.00  0.00     0.210 HD
ENDBRANCH  24  26
BRANCH  24  28
ATOM     28  C3  RBF d   1      78.127  47.641  39.107  0.00  0.00     0.088 C 
ATOM     29  H15 RBF d   1      78.355  47.025  38.225  0.00  0.00     0.091 H 
BRANCH  28  30
ATOM     30  O3  RBF d   1      79.240  47.582  40.011  0.00  0.00    -0.390 OA
ATOM     31  H16 RBF d   1      80.010  47.944  39.588  0.00  0.00     0.210 HD
ENDBRANCH  28  30
BRANCH  28  32
ATOM     32  C4  RBF d   1      77.972  49.072  38.653  0.00  0.00     0.083 C 
ATOM     33  H17 RBF d   1      77.797  49.684  39.550  0.00  0.00     0.090 H 
BRANCH  32  34
ATOM     34  O4  RBF d   1      76.917  49.402  37.745  0.00  0.00    -0.391 OA
ATOM     35  H18 RBF d   1      76.946  50.332  37.552  0.00  0.00     0.210 HD
ENDBRANCH  32  34
BRANCH  32  36
ATOM     36  C5  RBF d   1      79.393  49.426  38.062  0.00  0.00     0.043 C 
ATOM     37  H19 RBF d   1      79.291  50.154  37.243  0.00  0.00     0.078 H 
ATOM     38  H20 RBF d   1      79.883  48.516  37.685  0.00  0.00     0.078 H 
BRANCH  36  39
ATOM     39  O5  RBF d   1      80.168  49.996  39.138  0.00  0.00    -0.398 OA
ATOM     40  H21 RBF d   1      80.245  49.362  39.842  0.00  0.00     0.209 HD
ENDBRANCH  36  39
ENDBRANCH  32  36
ENDBRANCH  28  32
ENDBRANCH  24  28
ENDBRANCH  21  24
ENDBRANCH  15  21
BRANCH  12  41
ATOM     41  C8M RBF d   1      73.361  51.440  39.638  0.00  0.00    -0.051 C 
ATOM     42  H7  RBF d   1      74.419  51.568  39.364  0.00  0.00     0.033 H 
ATOM     43  H8  RBF d   1      73.042  52.281  40.272  0.00  0.00     0.033 H 
ATOM     44  H9  RBF d   1      72.746  51.415  38.726  0.00  0.00     0.033 H 
ENDBRANCH  12  41
BRANCH  11  45
ATOM     45  C7M RBF d   1      70.690  50.669  40.596  0.00  0.00    -0.051 C 
ATOM     46  H4  RBF d   1      69.753  50.260  41.003  0.00  0.00     0.033 H 
ATOM     47  H5  RBF d   1      70.593  50.794  39.507  0.00  0.00     0.033 H 
ATOM     48  H6  RBF d   1      70.896  51.645  41.060  0.00  0.00     0.033 H 
ENDBRANCH  11  45
TORSDOF 11
