REMARK  1 active torsions:
REMARK  status: ('A' for Active; 'I' for Inactive)
REMARK    1  A    between atoms: C5_11  and  C3_3 
ROOT
ATOM      1  C1  QYT d   1      43.677  12.642  29.722  0.00  0.00    -0.052 A 
ATOM      2  C2  QYT d   1      42.736  13.297  30.661  0.00  0.00    -0.071 A 
ATOM      3  C3  QYT d   1      43.145  14.346  31.472  0.00  0.00    -0.032 A 
ATOM      4  C13 QYT d   1      45.417  14.209  30.513  0.00  0.00     0.086 A 
ATOM      5  C14 QYT d   1      44.961  13.078  29.665  0.00  0.00     0.085 A 
ATOM      6  C16 QYT d   1      47.130  12.887  28.766  0.00  0.00     0.020 A 
ATOM      7  N18 QYT d   1      46.762  14.619  30.419  0.00  0.00    -0.257 NA
ATOM      8  C4  QYT d   1      44.562  14.814  31.368  0.00  0.00    -0.043 A 
ATOM      9  N15 QYT d   1      45.898  12.473  28.812  0.00  0.00    -0.257 NA
ATOM     10  C17 QYT d   1      47.587  14.028  29.618  0.00  0.00     0.020 A 
ATOM     11  H1  QYT d   1      43.345  11.826  29.090  0.00  0.00     0.087 H 
ATOM     12  H2  QYT d   1      41.710  12.951  30.715  0.00  0.00     0.084 H 
ATOM     13  H3  QYT d   1      47.834  12.399  28.102  0.00  0.00     0.117 H 
ATOM     14  H4  QYT d   1      44.904  15.641  31.980  0.00  0.00     0.088 H 
ATOM     15  H7  QYT d   1      48.617  14.362  29.564  0.00  0.00     0.117 H 
ENDROOT
BRANCH   3  16
ATOM     16  C5  QYT d   1      42.243  15.040  32.481  0.00  0.00    -0.051 C 
ATOM     17  C6  QYT d   1      40.935  14.799  32.717  0.00  0.00     0.079 A 
ATOM     18  C7  QYT d   1      40.238  15.263  33.900  0.00  0.00     0.266 A 
ATOM     19  S8  QYT d   1      39.803  13.908  31.691  0.00  0.00    -0.024 SA
ATOM     20  N9  QYT d   1      38.861  14.891  33.923  0.00  0.00    -0.283 N 
ATOM     21  O10 QYT d   1      40.772  15.916  34.802  0.00  0.00    -0.267 OA
ATOM     22  C11 QYT d   1      38.488  14.147  32.776  0.00  0.00     0.291 A 
ATOM     23  H6  QYT d   1      38.232  15.128  34.663  0.00  0.00     0.172 HD
ATOM     24  O12 QYT d   1      37.343  13.713  32.567  0.00  0.00    -0.260 OA
ATOM     25  H5  QYT d   1      42.705  15.821  33.083  0.00  0.00     0.087 H 
ENDBRANCH   3  16
TORSDOF 1
