REMARK  11 active torsions:
REMARK  status: ('A' for Active; 'I' for Inactive)
REMARK    1  A    between atoms: C1_1  and  C2_2 
REMARK    2  A    between atoms: C2_2  and  C17_27 
REMARK    3  A    between atoms: C3_3  and  C16_23 
REMARK    4  A    between atoms: N1_4  and  S2_8 
REMARK    5  A    between atoms: S2_8  and  C6_11 
REMARK    6  A    between atoms: C9_14  and  O3_17 
REMARK    7  A    between atoms: O3_17  and  C12_18 
REMARK    8  A    between atoms: C12_18  and  C13_19 
REMARK    9  A    between atoms: C14_20  and  C15_21 
REMARK   10  A    between atoms: C15_21  and  N2_22 
REMARK       I    between atoms: C16_23  and  N3_25 
REMARK   11  A    between atoms: N3_25  and  O5_26 
ROOT
ATOM      1  S2  4NH d   1      -5.579  13.998 115.699  0.00  0.00     0.261 S 
ATOM      2  O1  4NH d   1      -4.705  15.153 115.755  0.00  0.00    -0.200 OA
ATOM      3  O2  4NH d   1      -6.683  13.867 116.632  0.00  0.00    -0.200 OA
ENDROOT
BRANCH   1   4
ATOM      4  N1  4NH d   1      -6.200  13.742 114.069  0.00  0.00    -0.291 N 
ATOM      5  C3  4NH d   1      -5.697  14.477 112.833  0.00  0.00     0.116 C 
ATOM      6  C2  4NH d   1      -6.846  15.278 112.141  0.00  0.00     0.031 C 
ATOM      7  H4  4NH d   1      -4.931  15.196 113.158  0.00  0.00     0.091 H 
ATOM      8  S1  4NH d   1      -8.206  14.121 111.664  0.00  0.00    -0.155 SA
ATOM      9  C5  4NH d   1      -8.550  13.394 113.283  0.00  0.00    -0.007 C 
ATOM     10  C4  4NH d   1      -7.308  12.731 113.846  0.00  0.00     0.014 C 
ATOM     11  H7  4NH d   1      -8.881  14.185 113.972  0.00  0.00     0.051 H 
ATOM     12  H8  4NH d   1      -9.346  12.642 113.180  0.00  0.00     0.051 H 
ATOM     13  H5  4NH d   1      -7.559  12.256 114.806  0.00  0.00     0.066 H 
ATOM     14  H6  4NH d   1      -6.958  11.965 113.138  0.00  0.00     0.066 H 
BRANCH   5  15
ATOM     15  C16 4NH d   1      -5.049  13.515 111.846  0.00  0.00     0.266 C 
ATOM     16  O4  4NH d   1      -5.689  12.697 111.188  0.00  0.00    -0.269 OA
ATOM     17  N3  4NH d   1      -3.684  13.667 111.777  0.00  0.00    -0.236 N 
ATOM     18  H20 4NH d   1      -3.196  14.344 112.328  0.00  0.00     0.197 HD
BRANCH  17  19
ATOM     19  O5  4NH d   1      -3.019  12.813 110.886  0.00  0.00    -0.287 OA
ATOM     20  H21 4NH d   1      -3.347  12.957 110.006  0.00  0.00     0.244 HD
ENDBRANCH  17  19
ENDBRANCH   5  15
BRANCH   6  21
ATOM     21  C1  4NH d   1      -7.489  16.272 113.128  0.00  0.00    -0.058 C 
ATOM     22  H1  4NH d   1      -8.294  16.824 112.620  0.00  0.00     0.029 H 
ATOM     23  H2  4NH d   1      -6.726  16.980 113.484  0.00  0.00     0.029 H 
ATOM     24  H3  4NH d   1      -7.906  15.721 113.984  0.00  0.00     0.029 H 
ENDBRANCH   6  21
BRANCH   6  25
ATOM     25  C17 4NH d   1      -6.413  16.043 110.876  0.00  0.00    -0.058 C 
ATOM     26  H22 4NH d   1      -7.279  16.576 110.456  0.00  0.00     0.029 H 
ATOM     27  H23 4NH d   1      -6.024  15.332 110.133  0.00  0.00     0.029 H 
ATOM     28  H24 4NH d   1      -5.628  16.768 111.136  0.00  0.00     0.029 H 
ENDBRANCH   6  25
ENDBRANCH   1   4
BRANCH   1  29
ATOM     29  C6  4NH d   1      -4.505  12.608 115.914  0.00  0.00     0.079 A 
ATOM     30  C7  4NH d   1      -5.030  11.342 116.156  0.00  0.00    -0.058 A 
ATOM     31  C8  4NH d   1      -4.162  10.258 116.323  0.00  0.00    -0.049 A 
ATOM     32  H9  4NH d   1      -6.103  11.197 116.215  0.00  0.00     0.086 H 
ATOM     33  C9  4NH d   1      -2.779  10.443 116.249  0.00  0.00     0.070 A 
ATOM     34  H10 4NH d   1      -4.564   9.269 116.511  0.00  0.00     0.087 H 
ATOM     35  C10 4NH d   1      -2.271  11.726 116.005  0.00  0.00    -0.049 A 
ATOM     36  C11 4NH d   1      -3.129  12.811 115.837  0.00  0.00    -0.058 A 
ATOM     37  H11 4NH d   1      -1.199  11.876 115.946  0.00  0.00     0.087 H 
ATOM     38  H12 4NH d   1      -2.730  13.801 115.649  0.00  0.00     0.086 H 
BRANCH  33  39
ATOM     39  O3  4NH d   1      -1.826   9.469 116.394  0.00  0.00    -0.340 OA
BRANCH  39  40
ATOM     40  C12 4NH d   1      -2.045   8.432 117.353  0.00  0.00     0.080 C 
ATOM     41  H13 4NH d   1      -1.311   7.630 117.187  0.00  0.00     0.094 H 
ATOM     42  H14 4NH d   1      -3.061   8.032 117.222  0.00  0.00     0.094 H 
BRANCH  40  43
ATOM     43  C13 4NH d   1      -1.902   8.933 118.725  0.00  0.00    -0.078 C 
ATOM     44  C14 4NH d   1      -1.785   9.343 119.848  0.00  0.00    -0.077 C 
BRANCH  44  45
ATOM     45  C15 4NH d   1      -1.642   9.841 121.213  0.00  0.00     0.134 C 
ATOM     46  H15 4NH d   1      -1.365  10.905 121.188  0.00  0.00     0.095 H 
ATOM     47  H16 4NH d   1      -0.858   9.270 121.731  0.00  0.00     0.095 H 
BRANCH  45  48
ATOM     48  N2  4NH d   1      -2.928   9.683 121.937  0.00  0.00    -0.069 N 
ATOM     49  H17 4NH d   1      -2.828  10.027 122.879  0.00  0.00     0.275 HD
ATOM     50  H18 4NH d   1      -3.183   8.708 121.961  0.00  0.00     0.275 HD
ATOM     51  H19 4NH d   1      -3.647  10.207 121.463  0.00  0.00     0.275 HD
ENDBRANCH  45  48
ENDBRANCH  44  45
ENDBRANCH  40  43
ENDBRANCH  39  40
ENDBRANCH  33  39
ENDBRANCH   1  29
TORSDOF 11
