REMARK  4 active torsions:
REMARK  status: ('A' for Active; 'I' for Inactive)
REMARK    1  A    between atoms: C10_11  and  C19_20 
REMARK    2  A    between atoms: C13_14  and  C18_19 
REMARK    3  A    between atoms: C17_18  and  C20_21 
REMARK    4  A    between atoms: C20_21  and  C21_23 
ROOT
ATOM      1  C1  STR d   1      17.565  50.436  18.385  0.00  0.00    -0.048 C 
ATOM      2  C2  STR d   1      16.560  50.336  19.596  0.00  0.00    -0.005 C 
ATOM      3  C3  STR d   1      15.521  49.227  19.369  0.00  0.00     0.149 C 
ATOM      4  O3  STR d   1      14.424  49.333  19.923  0.00  0.00    -0.293 OA
ATOM      5  C4  STR d   1      15.822  48.046  18.531  0.00  0.00    -0.036 C 
ATOM      6  C5  STR d   1      16.971  47.916  17.889  0.00  0.00    -0.068 C 
ATOM      7  C6  STR d   1      17.249  46.623  17.085  0.00  0.00    -0.043 C 
ATOM      8  C7  STR d   1      17.909  46.936  15.729  0.00  0.00    -0.058 C 
ATOM      9  C8  STR d   1      19.152  47.925  15.806  0.00  0.00    -0.045 C 
ATOM     10  C9  STR d   1      18.658  49.266  16.444  0.00  0.00    -0.040 C 
ATOM     11  C10 STR d   1      18.116  49.041  17.899  0.00  0.00    -0.016 C 
ATOM     12  C11 STR d   1      19.819  50.355  16.474  0.00  0.00    -0.060 C 
ATOM     13  C12 STR d   1      20.353  50.554  15.012  0.00  0.00    -0.057 C 
ATOM     14  C13 STR d   1      20.910  49.209  14.404  0.00  0.00    -0.030 C 
ATOM     15  C14 STR d   1      19.696  48.212  14.394  0.00  0.00    -0.043 C 
ATOM     16  C15 STR d   1      20.226  47.012  13.564  0.00  0.00    -0.060 C 
ATOM     17  C16 STR d   1      21.060  47.732  12.405  0.00  0.00    -0.054 C 
ATOM     18  C17 STR d   1      21.204  49.234  12.860  0.00  0.00     0.011 C 
ATOM     19  H1  STR d   1      18.419  51.058  18.693  0.00  0.00     0.035 H 
ATOM     20  H2  STR d   1      17.046  50.917  17.543  0.00  0.00     0.035 H 
ATOM     21  H3  STR d   1      16.038  51.298  19.709  0.00  0.00     0.044 H 
ATOM     22  H4  STR d   1      17.125  50.115  20.513  0.00  0.00     0.044 H 
ATOM     23  H5  STR d   1      15.075  47.259  18.440  0.00  0.00     0.089 H 
ATOM     24  H6  STR d   1      16.298  46.100  16.908  0.00  0.00     0.039 H 
ATOM     25  H7  STR d   1      17.920  45.976  17.669  0.00  0.00     0.039 H 
ATOM     26  H8  STR d   1      17.150  47.391  15.075  0.00  0.00     0.034 H 
ATOM     27  H9  STR d   1      18.252  45.988  15.288  0.00  0.00     0.034 H 
ATOM     28  H10 STR d   1      19.946  47.481  16.425  0.00  0.00     0.041 H 
ATOM     29  H11 STR d   1      17.836  49.654  15.825  0.00  0.00     0.042 H 
ATOM     30  H12 STR d   1      20.636  50.008  17.123  0.00  0.00     0.033 H 
ATOM     31  H13 STR d   1      19.424  51.307  16.858  0.00  0.00     0.033 H 
ATOM     32  H14 STR d   1      21.161  51.300  15.027  0.00  0.00     0.034 H 
ATOM     33  H15 STR d   1      19.530  50.917  14.379  0.00  0.00     0.034 H 
ATOM     34  H16 STR d   1      18.866  48.667  13.835  0.00  0.00     0.041 H 
ATOM     35  H17 STR d   1      19.398  46.420  13.148  0.00  0.00     0.033 H 
ATOM     36  H18 STR d   1      20.872  46.362  14.173  0.00  0.00     0.033 H 
ATOM     37  H19 STR d   1      20.521  47.670  11.448  0.00  0.00     0.034 H 
ATOM     38  H20 STR d   1      22.051  47.266  12.298  0.00  0.00     0.034 H 
ATOM     39  H21 STR d   1      20.436  49.838  12.355  0.00  0.00     0.052 H 
ENDROOT
BRANCH  18  40
ATOM     40  C20 STR d   1      22.574  49.849  12.519  0.00  0.00     0.128 C 
ATOM     41  O20 STR d   1      23.469  49.141  12.117  0.00  0.00    -0.298 OA
BRANCH  40  42
ATOM     42  C21 STR d   1      22.774  51.325  12.677  0.00  0.00    -0.021 C 
ATOM     43  H28 STR d   1      23.803  51.588  12.391  0.00  0.00     0.037 H 
ATOM     44  H29 STR d   1      22.601  51.608  13.726  0.00  0.00     0.037 H 
ATOM     45  H30 STR d   1      22.065  51.862  12.030  0.00  0.00     0.037 H 
ENDBRANCH  40  42
ENDBRANCH  18  40
BRANCH  14  46
ATOM     46  C18 STR d   1      22.159  48.679  15.226  0.00  0.00    -0.068 C 
ATOM     47  H22 STR d   1      21.917  48.675  16.299  0.00  0.00     0.028 H 
ATOM     48  H23 STR d   1      23.022  49.337  15.047  0.00  0.00     0.028 H 
ATOM     49  H24 STR d   1      22.404  47.657  14.902  0.00  0.00     0.028 H 
ENDBRANCH  14  46
BRANCH  11  50
ATOM     50  C19 STR d   1      19.240  48.502  18.918  0.00  0.00    -0.065 C 
ATOM     51  H25 STR d   1      18.796  48.366  19.915  0.00  0.00     0.028 H 
ATOM     52  H26 STR d   1      20.061  49.232  18.978  0.00  0.00     0.028 H 
ATOM     53  H27 STR d   1      19.631  47.539  18.557  0.00  0.00     0.028 H 
ENDBRANCH  11  50
TORSDOF 4
