REMARK  4 active torsions:
REMARK  status: ('A' for Active; 'I' for Inactive)
REMARK    1  A    between atoms: O12_1  and  C8_2 
REMARK    2  A    between atoms: C6_3  and  O7_4 
REMARK    3  A    between atoms: C4_6  and  C1_7 
REMARK    4  A    between atoms: C9_11  and  O11_12 
ROOT
ATOM      1  C8  SKM d   1      56.626   9.926  29.879  0.00  0.00     0.088 C 
ATOM      2  C6  SKM d   1      57.902  10.256  29.110  0.00  0.00     0.067 C 
ATOM      3  C5  SKM d   1      57.768  11.689  28.568  0.00  0.00    -0.008 C 
ATOM      4  C4  SKM d   1      56.517  12.062  27.973  0.00  0.00     0.020 C 
ATOM      5  C10 SKM d   1      55.358  11.271  28.149  0.00  0.00    -0.061 C 
ATOM      6  C9  SKM d   1      55.403   9.980  28.934  0.00  0.00     0.080 C 
ATOM      7  H2  SKM d   1      56.498  10.675  30.674  0.00  0.00     0.091 H 
ATOM      8  H3  SKM d   1      58.022   9.553  28.272  0.00  0.00     0.087 H 
ATOM      9  H5  SKM d   1      58.549  11.826  27.805  0.00  0.00     0.044 H 
ATOM     10  H6  SKM d   1      57.951  12.376  29.407  0.00  0.00     0.044 H 
ATOM     11  H7  SKM d   1      54.416  11.598  27.711  0.00  0.00     0.082 H 
ATOM     12  H8  SKM d   1      54.495   9.921  29.552  0.00  0.00     0.093 H 
ENDROOT
BRANCH   1  13
ATOM     13  O12 SKM d   1      56.679   8.638  30.474  0.00  0.00    -0.390 OA
ATOM     14  H1  SKM d   1      57.409   8.601  31.081  0.00  0.00     0.210 HD
ENDBRANCH   1  13
BRANCH   2  15
ATOM     15  O7  SKM d   1      59.044  10.158  29.975  0.00  0.00    -0.393 OA
ATOM     16  H4  SKM d   1      58.948  10.770  30.695  0.00  0.00     0.210 HD
ENDBRANCH   2  15
BRANCH   6  17
ATOM     17  O11 SKM d   1      55.406   8.883  28.037  0.00  0.00    -0.389 OA
ATOM     18  H9  SKM d   1      55.434   8.072  28.531  0.00  0.00     0.210 HD
ENDBRANCH   6  17
BRANCH   4  19
ATOM     19  C1  SKM d   1      56.395  13.350  27.171  0.00  0.00     0.205 C 
ATOM     20  O2  SKM d   1      55.497  13.399  26.296  0.00  0.00    -0.644 OA
ATOM     21  O3  SKM d   1      57.122  14.307  27.441  0.00  0.00    -0.644 OA
ENDBRANCH   4  19
TORSDOF 4
