REMARK  4 active torsions:
REMARK  status: ('A' for Active; 'I' for Inactive)
REMARK    1  A    between atoms: O12_1  and  C8_2 
REMARK    2  A    between atoms: C6_3  and  O7_4 
REMARK    3  A    between atoms: C4_6  and  C1_7 
REMARK    4  A    between atoms: C9_11  and  O11_12 
ROOT
ATOM      1  C8  SKM d   1      55.997   9.967  29.758  0.00  0.00     0.088 C 
ATOM      2  C6  SKM d   1      57.266  10.412  29.043  0.00  0.00     0.067 C 
ATOM      3  C5  SKM d   1      57.065  11.853  28.537  0.00  0.00    -0.008 C 
ATOM      4  C4  SKM d   1      55.810  12.134  27.889  0.00  0.00     0.020 C 
ATOM      5  C10 SKM d   1      54.708  11.269  28.011  0.00  0.00    -0.061 C 
ATOM      6  C9  SKM d   1      54.813   9.979  28.788  0.00  0.00     0.080 C 
ATOM      7  H2  SKM d   1      55.795  10.673  30.577  0.00  0.00     0.091 H 
ATOM      8  H3  SKM d   1      57.470   9.746  28.191  0.00  0.00     0.087 H 
ATOM      9  H5  SKM d   1      57.869  12.071  27.819  0.00  0.00     0.044 H 
ATOM     10  H6  SKM d   1      57.154  12.527  29.402  0.00  0.00     0.044 H 
ATOM     11  H7  SKM d   1      53.764  11.534  27.537  0.00  0.00     0.082 H 
ATOM     12  H8  SKM d   1      53.898   9.882  29.391  0.00  0.00     0.093 H 
ENDROOT
BRANCH   1  13
ATOM     13  O12 SKM d   1      56.127   8.647  30.312  0.00  0.00    -0.390 OA
ATOM     14  H1  SKM d   1      56.841   8.637  30.939  0.00  0.00     0.210 HD
ENDBRANCH   1  13
BRANCH   2  15
ATOM     15  O7  SKM d   1      58.351  10.359  29.960  0.00  0.00    -0.393 OA
ATOM     16  H4  SKM d   1      58.174  10.938  30.692  0.00  0.00     0.210 HD
ENDBRANCH   2  15
BRANCH   6  17
ATOM     17  O11 SKM d   1      54.861   8.840  27.867  0.00  0.00    -0.389 OA
ATOM     18  H9  SKM d   1      54.927   8.034  28.365  0.00  0.00     0.210 HD
ENDBRANCH   6  17
BRANCH   4  19
ATOM     19  C1  SKM d   1      55.649  13.379  27.072  0.00  0.00     0.205 C 
ATOM     20  O2  SKM d   1      54.731  13.391  26.208  0.00  0.00    -0.644 OA
ATOM     21  O3  SKM d   1      56.356  14.330  27.349  0.00  0.00    -0.644 OA
ENDBRANCH   4  19
TORSDOF 4
