REMARK  10 active torsions:
REMARK  status: ('A' for Active; 'I' for Inactive)
REMARK    1  A    between atoms: N1_1  and  C1_9 
REMARK    2  A    between atoms: C2_10  and  O2_11 
REMARK    3  A    between atoms: C3_12  and  O3_15 
REMARK    4  A    between atoms: C4_13  and  C5_16 
REMARK    5  A    between atoms: C5_16  and  O5_17 
REMARK    6  A    between atoms: O5_17  and  PA_18 
REMARK    7  A    between atoms: PA_18  and  O3A_21 
REMARK    8  A    between atoms: O3A_21  and  PB_22 
REMARK    9  A    between atoms: PB_22  and  O3B_25 
REMARK   10  A    between atoms: O3B_25  and  PG_26 
ROOT
ATOM      1  C1  CTP d   1       9.873  -2.496  16.834  0.00  0.00     0.141 C 
ATOM      2  C2  CTP d   1       9.996  -3.396  18.014  0.00  0.00     0.105 C 
ATOM      3  C3  CTP d   1      11.414  -3.093  18.525  0.00  0.00     0.091 C 
ATOM      4  C4  CTP d   1      12.065  -2.301  17.396  0.00  0.00     0.089 C 
ATOM      5  O4  CTP d   1      11.210  -2.527  16.270  0.00  0.00    -0.353 OA
ATOM      6  H5  CTP d   1       9.566  -1.491  17.159  0.00  0.00     0.123 H 
ATOM      7  H6  CTP d   1       9.870  -4.455  17.744  0.00  0.00     0.093 H 
ATOM      8  H8  CTP d   1      11.972  -4.013  18.750  0.00  0.00     0.091 H 
ATOM      9  H9  CTP d   1      12.095  -1.230  17.646  0.00  0.00     0.090 H 
ENDROOT
BRANCH   4  10
ATOM     10  C5  CTP d   1      13.501  -2.793  17.120  0.00  0.00     0.058 C 
ATOM     11  H11 CTP d   1      13.494  -3.882  16.967  0.00  0.00     0.079 H 
ATOM     12  H12 CTP d   1      14.146  -2.547  17.976  0.00  0.00     0.079 H 
BRANCH  10  13
ATOM     13  O5  CTP d   1      13.990  -2.158  15.964  0.00  0.00    -0.287 OA
BRANCH  13  14
ATOM     14  PA  CTP d   1      15.398  -1.374  15.943  0.00  0.00     0.417 P 
ATOM     15  O1A CTP d   1      16.041  -1.323  17.286  0.00  0.00    -0.624 OA
ATOM     16  O2A CTP d   1      15.244  -0.096  15.209  0.00  0.00    -0.624 OA
BRANCH  14  17
ATOM     17  O3A CTP d   1      16.350  -2.397  15.107  0.00  0.00    -0.180 OA
BRANCH  17  18
ATOM     18  PB  CTP d   1      16.008  -3.886  14.433  0.00  0.00     0.428 P 
ATOM     19  O1B CTP d   1      14.551  -4.100  14.238  0.00  0.00    -0.624 OA
ATOM     20  O2B CTP d   1      16.749  -4.963  15.110  0.00  0.00    -0.624 OA
BRANCH  18  21
ATOM     21  O3B CTP d   1      16.618  -3.689  12.943  0.00  0.00    -0.173 OA
BRANCH  21  22
ATOM     22  PG  CTP d   1      18.093  -2.999  12.545  0.00  0.00     0.431 P 
ATOM     23  O1G CTP d   1      19.097  -2.972  13.639  0.00  0.00    -0.616 OA
ATOM     24  O2G CTP d   1      17.758  -1.549  11.936  0.00  0.00    -0.616 OA
ATOM     25  O3G CTP d   1      18.599  -3.883  11.314  0.00  0.00    -0.616 OA
ENDBRANCH  21  22
ENDBRANCH  18  21
ENDBRANCH  17  18
ENDBRANCH  14  17
ENDBRANCH  13  14
ENDBRANCH  10  13
ENDBRANCH   4  10
BRANCH   3  26
ATOM     26  O3  CTP d   1      11.314  -2.265  19.680  0.00  0.00    -0.390 OA
ATOM     27  H10 CTP d   1      10.784  -1.503  19.477  0.00  0.00     0.210 HD
ENDBRANCH   3  26
BRANCH   2  28
ATOM     28  O2  CTP d   1       9.040  -3.006  19.009  0.00  0.00    -0.388 OA
ATOM     29  H7  CTP d   1       9.208  -2.109  19.273  0.00  0.00     0.210 HD
ENDBRANCH   2  28
BRANCH   1  30
ATOM     30  N1  CTP d   1       9.027  -2.940  15.718  0.00  0.00    -0.280 N 
ATOM     31  C2  CTP d   1       7.852  -2.178  15.411  0.00  0.00     0.330 A 
ATOM     32  N3  CTP d   1       7.067  -2.561  14.364  0.00  0.00    -0.293 N 
ATOM     33  O2  CTP d   1       7.552  -1.185  16.062  0.00  0.00    -0.246 OA
ATOM     34  C4  CTP d   1       7.412  -3.684  13.622  0.00  0.00     0.125 A 
ATOM     35  H1  CTP d   1       6.248  -2.037  14.132  0.00  0.00     0.172 HD
ATOM     36  C5  CTP d   1       8.552  -4.432  13.952  0.00  0.00    -0.024 A 
ATOM     37  N4  CTP d   1       6.643  -4.043  12.593  0.00  0.00    -0.284 NA
ATOM     38  C6  CTP d   1       9.364  -4.062  15.002  0.00  0.00    -0.009 A 
ATOM     39  H2  CTP d   1       8.799  -5.318  13.370  0.00  0.00     0.091 H 
ATOM     40  H3  CTP d   1      10.249  -4.644  15.257  0.00  0.00     0.112 H 
ATOM     41  H4  CTP d   1       6.881  -4.855  12.046  0.00  0.00     0.188 HD
ENDBRANCH   1  30
TORSDOF 10
