REMARK  5 active torsions:
REMARK  status: ('A' for Active; 'I' for Inactive)
REMARK    1  A    between atoms: N9_10  and  C1'_11 
REMARK    2  A    between atoms: C2'_12  and  O2'_13 
REMARK    3  A    between atoms: C3'_14  and  O3'_15 
REMARK    4  A    between atoms: C4'_16  and  C5'_18 
REMARK    5  A    between atoms: C5'_18  and  O5'_19 
ROOT
ATOM      1  C1' HPR d   1       5.905  18.979  37.901  0.00  0.00     0.139 C 
ATOM      2  C2' HPR d   1       6.290  17.745  37.085  0.00  0.00     0.105 C 
ATOM      3  C3' HPR d   1       7.679  18.048  36.542  0.00  0.00     0.091 C 
ATOM      4  C4' HPR d   1       8.199  19.168  37.440  0.00  0.00     0.088 C 
ATOM      5  O4' HPR d   1       7.047  19.850  37.956  0.00  0.00    -0.353 OA
ATOM      6  H4  HPR d   1       5.654  18.661  38.924  0.00  0.00     0.122 H 
ATOM      7  H5  HPR d   1       5.556  17.464  36.315  0.00  0.00     0.093 H 
ATOM      8  H7  HPR d   1       7.612  18.398  35.502  0.00  0.00     0.091 H 
ATOM      9  H9  HPR d   1       8.767  18.727  38.272  0.00  0.00     0.090 H 
ENDROOT
BRANCH   1  10
ATOM     10  N9  HPR d   1       4.784  19.628  37.362  0.00  0.00    -0.294 N 
ATOM     11  C4  HPR d   1       3.714  20.071  38.051  0.00  0.00     0.164 A 
ATOM     12  N3  HPR d   1       3.544  20.191  39.381  0.00  0.00    -0.224 NA
ATOM     13  C5  HPR d   1       2.758  20.416  37.167  0.00  0.00     0.145 A 
ATOM     14  C2  HPR d   1       2.380  20.662  39.812  0.00  0.00     0.065 A 
ATOM     15  N1  HPR d   1       1.374  21.025  39.015  0.00  0.00    -0.341 N 
ATOM     16  H2  HPR d   1       2.237  20.758  40.887  0.00  0.00     0.143 H 
ATOM     17  C6  HPR d   1       1.495  20.962  37.615  0.00  0.00     0.277 A 
ATOM     18  H1  HPR d   1       0.518  21.348  39.420  0.00  0.00     0.164 HD
ATOM     19  O6  HPR d   1       1.259  22.241  37.034  0.00  0.00    -0.192 OA
ATOM     20  N7  HPR d   1       3.209  20.179  35.916  0.00  0.00    -0.239 NA
ATOM     21  C8  HPR d   1       4.445  19.698  36.073  0.00  0.00     0.070 A 
ATOM     22  H3  HPR d   1       5.095  19.400  35.252  0.00  0.00     0.144 H 
ENDBRANCH   1  10
BRANCH   2  23
ATOM     23  O2' HPR d   1       6.518  16.749  38.075  0.00  0.00    -0.388 OA
ATOM     24  H6  HPR d   1       6.766  15.935  37.653  0.00  0.00     0.210 HD
ENDBRANCH   2  23
BRANCH   3  25
ATOM     25  O3' HPR d   1       8.521  16.894  36.583  0.00  0.00    -0.390 OA
ATOM     26  H8  HPR d   1       8.607  16.598  37.482  0.00  0.00     0.210 HD
ENDBRANCH   3  25
BRANCH   4  27
ATOM     27  C5' HPR d   1       9.111  20.136  36.698  0.00  0.00     0.043 C 
ATOM     28  H10 HPR d   1      10.116  19.694  36.634  0.00  0.00     0.078 H 
ATOM     29  H11 HPR d   1       9.160  21.078  37.264  0.00  0.00     0.078 H 
BRANCH  27  30
ATOM     30  O5' HPR d   1       8.650  20.420  35.374  0.00  0.00    -0.398 OA
ATOM     31  H12 HPR d   1       8.611  19.613  34.874  0.00  0.00     0.209 HD
ENDBRANCH  27  30
ENDBRANCH   4  27
TORSDOF 5
