REMARK  2 active torsions:
REMARK  status: ('A' for Active; 'I' for Inactive)
REMARK    1  A    between atoms: C1_1  and  C2_2 
REMARK    2  A    between atoms: C7_6  and  C12_9 
ROOT
ATOM      1  C1  R20 d   1      19.618  30.746  16.243  0.00  0.00    -0.004 A 
ATOM      2  C3  R20 d   1      18.294  31.289  16.302  0.00  0.00    -0.065 A 
ATOM      3  C4  R20 d   1      20.714  31.656  16.097  0.00  0.00    -0.071 A 
ATOM      4  C7  R20 d   1      18.069  32.708  16.261  0.00  0.00    -0.061 A 
ATOM      5  C8  R20 d   1      20.488  33.066  16.057  0.00  0.00    -0.082 A 
ATOM      6  C11 R20 d   1      19.164  33.586  16.121  0.00  0.00    -0.077 A 
ATOM      7  H1  R20 d   1      17.446  30.618  16.379  0.00  0.00     0.085 H 
ATOM      8  H2  R20 d   1      21.724  31.271  16.016  0.00  0.00     0.084 H 
ATOM      9  H4  R20 d   1      21.330  33.744  15.977  0.00  0.00     0.083 H 
ATOM     10  H5  R20 d   1      18.998  34.656  16.062  0.00  0.00     0.084 H 
ENDROOT
BRANCH   1  11
ATOM     11  C2  R20 d   1      19.835  29.291  16.294  0.00  0.00     0.101 A 
ATOM     12  C5  R20 d   1      20.975  28.497  16.183  0.00  0.00     0.022 A 
ATOM     13  N9  R20 d   1      20.652  27.175  16.312  0.00  0.00    -0.291 N 
ATOM     14  H3  R20 d   1      21.982  28.877  16.017  0.00  0.00     0.117 H 
ATOM     15  N10 R20 d   1      19.332  27.092  16.507  0.00  0.00     0.002 NA
ATOM     16  H9  R20 d   1      21.309  26.383  16.267  0.00  0.00     0.183 HD
ATOM     17  N6  R20 d   1      18.835  28.354  16.501  0.00  0.00    -0.158 NA
ENDBRANCH   1  11
BRANCH   4  18
ATOM     18  C12 R20 d   1      16.672  33.257  16.334  0.00  0.00    -0.051 C 
ATOM     19  H6  R20 d   1      15.957  32.428  16.442  0.00  0.00     0.033 H 
ATOM     20  H7  R20 d   1      16.449  33.816  15.413  0.00  0.00     0.033 H 
ATOM     21  H8  R20 d   1      16.587  33.929  17.201  0.00  0.00     0.033 H 
ENDBRANCH   4  18
TORSDOF 2
