REMARK  9 active torsions:
REMARK  status: ('A' for Active; 'I' for Inactive)
REMARK    1  A    between atoms: N_1  and  CA_2 
REMARK    2  A    between atoms: CA_2  and  C_3 
REMARK    3  A    between atoms: CA_2  and  CB_6 
REMARK    4  A    between atoms: CB_6  and  CG_7 
REMARK    5  A    between atoms: CG_7  and  CD_8 
REMARK    6  A    between atoms: CD_8  and  CE_9 
REMARK    7  A    between atoms: CE_9  and  B_10 
REMARK    8  A    between atoms: B_10  and  O2_11 
REMARK    9  A    between atoms: B_10  and  O1_12 
ROOT
ATOM      1  CG  ABH d   1      66.261  12.664  29.509  0.00  0.00    -0.063 C 
ATOM      2  H7  ABH d   1      67.185  12.405  28.972  0.00  0.00     0.033 H 
ATOM      3  H8  ABH d   1      66.455  12.668  30.592  0.00  0.00     0.033 H 
ENDROOT
BRANCH   1   4
ATOM      4  CB  ABH d   1      65.272  11.576  29.240  0.00  0.00    -0.029 C 
ATOM      5  H5  ABH d   1      64.344  11.872  29.752  0.00  0.00     0.036 H 
ATOM      6  H6  ABH d   1      65.106  11.575  28.153  0.00  0.00     0.036 H 
BRANCH   4   7
ATOM      7  CA  ABH d   1      65.532  10.109  29.636  0.00  0.00     0.182 C 
ATOM      8  H4  ABH d   1      64.801   9.458  29.135  0.00  0.00     0.101 H 
BRANCH   7   9
ATOM      9  N   ABH d   1      65.442   9.929  31.111  0.00  0.00    -0.065 N 
ATOM     10  H1  ABH d   1      64.515  10.171  31.423  0.00  0.00     0.275 HD
ATOM     11  H2  ABH d   1      66.116  10.526  31.564  0.00  0.00     0.275 HD
ATOM     12  H3  ABH d   1      65.634   8.967  31.345  0.00  0.00     0.275 HD
ENDBRANCH   7   9
BRANCH   7  13
ATOM     13  C   ABH d   1      66.981   9.721  29.213  0.00  0.00     0.204 C 
ATOM     14  O   ABH d   1      67.372   9.713  28.085  0.00  0.00    -0.646 OA
ATOM     15  OT  ABH d   1      67.796   9.345  30.198  0.00  0.00    -0.646 OA
ENDBRANCH   7  13
ENDBRANCH   4   7
ENDBRANCH   1   4
BRANCH   1  16
ATOM     16  CD  ABH d   1      65.895  14.080  29.114  0.00  0.00    -0.068 C 
ATOM     17  H9  ABH d   1      64.956  14.364  29.612  0.00  0.00     0.032 H 
ATOM     18  H10 ABH d   1      65.761  14.129  28.023  0.00  0.00     0.032 H 
BRANCH  16  19
ATOM     19  CE  ABH d   1      66.997  15.047  29.529  0.00  0.00    -0.035 C 
ATOM     20  H11 ABH d   1      67.735  15.051  28.714  0.00  0.00     0.028 H 
ATOM     21  H12 ABH d   1      67.456  14.630  30.437  0.00  0.00     0.028 H 
BRANCH  19  22
ATOM     22  B   ABH d   1      66.668  16.541  29.841  0.00  0.00     0.490 B 
BRANCH  22  23
ATOM     23  O2  ABH d   1      67.837  17.376  30.088  0.00  0.00    -0.438 OA
ATOM     24  H13 ABH d   1      68.287  17.066  30.865  0.00  0.00     0.184 HD
ENDBRANCH  22  23
BRANCH  22  25
ATOM     25  O1  ABH d   1      65.880  16.708  31.039  0.00  0.00    -0.438 OA
ATOM     26  H14 ABH d   1      66.382  16.416  31.791  0.00  0.00     0.184 HD
ENDBRANCH  22  25
ENDBRANCH  19  22
ENDBRANCH  16  19
ENDBRANCH   1  16
TORSDOF 9
