REMARK  13 active torsions:
REMARK  status: ('A' for Active; 'I' for Inactive)
REMARK    1  A    between atoms: C1_1  and  O4_4 
REMARK    2  A    between atoms: O4_4  and  C8_8 
REMARK    3  A    between atoms: C5_5  and  O10_10 
REMARK    4  A    between atoms: C6_6  and  N11_11 
REMARK    5  A    between atoms: O10_10  and  C15_15 
REMARK    6  A    between atoms: N11_11  and  C16_16 
REMARK    7  A    between atoms: C12_12  and  C18_18 
REMARK    8  A    between atoms: C16_16  and  C22_22 
REMARK    9  A    between atoms: C16_16  and  C23_23 
REMARK   10  A    between atoms: C22_22  and  C29_29 
REMARK   11  A    between atoms: C27_27  and  C31_31 
REMARK   12  A    between atoms: C29_29  and  C32_32 
REMARK   13  A    between atoms: C31_31  and  N33_33 
ROOT
ATOM      1  C1  03R d   1      31.103   7.354   7.198  0.00  0.00     0.214 A 
ATOM      2  N2  03R d   1      30.615   7.415   8.491  0.00  0.00    -0.194 NA
ATOM      3  C3  03R d   1      32.318   8.017   6.903  0.00  0.00     0.199 A 
ATOM      4  C5  03R d   1      31.294   8.112   9.469  0.00  0.00     0.214 A 
ATOM      5  C6  03R d   1      33.017   8.722   7.892  0.00  0.00     0.115 A 
ATOM      6  F7  03R d   1      32.769   7.962   5.687  0.00  0.00    -0.199 F 
ATOM      7  C9  03R d   1      32.494   8.745   9.158  0.00  0.00     0.199 A 
ATOM      8  F14 03R d   1      33.091   9.393  10.110  0.00  0.00    -0.199 F 
ENDROOT
BRANCH   5   9
ATOM      9  N11 03R d   1      34.174   9.364   7.572  0.00  0.00    -0.381 N 
ATOM     10  H1  03R d   1      34.873   8.799   7.070  0.00  0.00     0.160 HD
BRANCH   9  11
ATOM     11  C16 03R d   1      34.555  10.741   7.844  0.00  0.00     0.006 C 
ATOM     12  H3  03R d   1      34.818  11.187   6.874  0.00  0.00     0.071 H 
BRANCH  11  13
ATOM     13  C22 03R d   1      35.797  10.826   8.739  0.00  0.00    -0.043 C 
ATOM     14  H8  03R d   1      35.446  11.027   9.762  0.00  0.00     0.036 H 
ATOM     15  H9  03R d   1      36.395  11.678   8.383  0.00  0.00     0.036 H 
BRANCH  13  16
ATOM     16  C29 03R d   1      36.745   9.604   8.815  0.00  0.00    -0.039 C 
ATOM     17  H15 03R d   1      37.780   9.973   8.759  0.00  0.00     0.040 H 
ATOM     18  H16 03R d   1      36.538   8.959   7.948  0.00  0.00     0.040 H 
BRANCH  16  19
ATOM     19  C32 03R d   1      36.619   8.782  10.036  0.00  0.00    -0.058 A 
ATOM     20  C35 03R d   1      35.629   7.772  10.126  0.00  0.00    -0.077 A 
ATOM     21  C37 03R d   1      35.503   6.990  11.286  0.00  0.00    -0.082 A 
ATOM     22  H22 03R d   1      34.961   7.601   9.290  0.00  0.00     0.084 H 
ATOM     23  C39 03R d   1      36.369   7.207  12.381  0.00  0.00    -0.083 A 
ATOM     24  H24 03R d   1      34.742   6.220  11.341  0.00  0.00     0.083 H 
ATOM     25  C38 03R d   1      37.360   8.207  12.308  0.00  0.00    -0.082 A 
ATOM     26  H26 03R d   1      36.272   6.605  13.277  0.00  0.00     0.083 H 
ATOM     27  C36 03R d   1      37.485   8.991  11.143  0.00  0.00    -0.077 A 
ATOM     28  H25 03R d   1      38.026   8.373  13.147  0.00  0.00     0.083 H 
ATOM     29  H23 03R d   1      38.248   9.759  11.091  0.00  0.00     0.084 H 
ENDBRANCH  16  19
ENDBRANCH  13  16
ENDBRANCH  11  13
BRANCH  11  30
ATOM     30  C23 03R d   1      33.421  11.616   8.450  0.00  0.00    -0.057 C 
ATOM     31  H10 03R d   1      33.797  12.636   8.622  0.00  0.00     0.030 H 
ATOM     32  H11 03R d   1      33.092  11.180   9.405  0.00  0.00     0.030 H 
ATOM     33  H12 03R d   1      32.572  11.651   7.752  0.00  0.00     0.030 H 
ENDBRANCH  11  30
ENDBRANCH   9  11
ENDBRANCH   5   9
BRANCH   1  34
ATOM     34  O4  03R d   1      30.537   6.682   6.153  0.00  0.00    -0.288 OA
BRANCH  34  35
ATOM     35  C8  03R d   1      29.338   6.033   6.102  0.00  0.00     0.095 A 
ATOM     36  C12 03R d   1      28.033   6.532   6.503  0.00  0.00     0.074 A 
ATOM     37  C17 03R d   1      26.931   5.640   6.453  0.00  0.00    -0.064 A 
ATOM     38  C24 03R d   1      27.087   4.316   6.011  0.00  0.00    -0.082 A 
ATOM     39  H4  03R d   1      25.951   5.986   6.761  0.00  0.00     0.085 H 
ATOM     40  C19 03R d   1      28.353   3.851   5.590  0.00  0.00    -0.080 A 
ATOM     41  H13 03R d   1      26.233   3.648   5.993  0.00  0.00     0.083 H 
ATOM     42  C13 03R d   1      29.468   4.702   5.642  0.00  0.00    -0.049 A 
ATOM     43  H5  03R d   1      28.463   2.836   5.226  0.00  0.00     0.083 H 
ATOM     44  H2  03R d   1      30.438   4.335   5.327  0.00  0.00     0.087 H 
BRANCH  36  45
ATOM     45  C18 03R d   1      27.773   7.859   6.862  0.00  0.00     0.212 C 
ATOM     46  O25 03R d   1      26.842   8.147   7.638  0.00  0.00    -0.644 OA
ATOM     47  O26 03R d   1      28.507   8.881   6.385  0.00  0.00    -0.644 OA
ENDBRANCH  36  45
ENDBRANCH  34  35
ENDBRANCH   1  34
BRANCH   4  48
ATOM     48  O10 03R d   1      30.966   8.345  10.746  0.00  0.00    -0.289 OA
BRANCH  48  49
ATOM     49  C15 03R d   1      29.997   7.958  11.572  0.00  0.00     0.079 A 
ATOM     50  C20 03R d   1      30.306   7.402  12.836  0.00  0.00    -0.037 A 
ATOM     51  C27 03R d   1      29.282   7.079  13.762  0.00  0.00     0.010 A 
ATOM     52  H6  03R d   1      31.341   7.220  13.100  0.00  0.00     0.089 H 
ATOM     53  C30 03R d   1      27.959   7.342  13.369  0.00  0.00    -0.069 A 
ATOM     54  C28 03R d   1      27.650   7.891  12.119  0.00  0.00    -0.079 A 
ATOM     55  H17 03R d   1      27.152   7.112  14.056  0.00  0.00     0.085 H 
ATOM     56  C21 03R d   1      28.657   8.198  11.240  0.00  0.00    -0.050 A 
ATOM     57  H14 03R d   1      26.617   8.073  11.846  0.00  0.00     0.083 H 
ATOM     58  H7  03R d   1      28.413   8.632  10.277  0.00  0.00     0.087 H 
BRANCH  51  59
ATOM     59  C31 03R d   1      29.546   6.541  15.041  0.00  0.00     0.102 C 
ATOM     60  N34 03R d   1      30.212   5.385  15.249  0.00  0.00    -0.385 N 
ATOM     61  H20 03R d   1      30.561   4.840  14.447  0.00  0.00     0.157 HD
ATOM     62  H21 03R d   1      30.371   5.048  16.209  0.00  0.00     0.157 HD
BRANCH  59  63
ATOM     63  N33 03R d   1      29.137   7.167  16.161  0.00  0.00    -0.385 N 
ATOM     64  H18 03R d   1      29.340   6.757  17.084  0.00  0.00     0.157 HD
ATOM     65  H19 03R d   1      28.621   8.056  16.095  0.00  0.00     0.157 HD
ENDBRANCH  59  63
ENDBRANCH  51  59
ENDBRANCH  48  49
ENDBRANCH   4  48
TORSDOF 13
