REMARK  8 active torsions:
REMARK  status: ('A' for Active; 'I' for Inactive)
REMARK    1  A    between atoms: N08_6  and  C01_1 
REMARK    2  A    between atoms: C11_9  and  N08_6 
REMARK    3  A    between atoms: N08_6  and  C19_13 
REMARK    4  A    between atoms: C10_8  and  C09_7 
REMARK    5  A    between atoms: C10_8  and  C11_9 
REMARK    6  A    between atoms: C14_10  and  C17_11 
REMARK    7  A    between atoms: C14_10  and  C18_12 
REMARK    8  A    between atoms: C31_14  and  C32_15 
ROOT
ATOM      1  N08 SAZ d   1      38.847  73.163  34.199  0.00  0.00    -0.070 N 
ATOM      2  H9  SAZ d   1      38.166  73.475  33.525  0.00  0.00     0.279 HD
ENDROOT
BRANCH   1   3
ATOM      3  C01 SAZ d   1      38.110  72.213  35.158  0.00  0.00     0.107 C 
ATOM      4  C02 SAZ d   1      38.679  70.741  35.255  0.00  0.00    -0.035 C 
ATOM      5  C05 SAZ d   1      38.041  70.076  36.518  0.00  0.00    -0.043 C 
ATOM      6  H2  SAZ d   1      39.774  70.767  35.356  0.00  0.00     0.036 H 
ATOM      7  H3  SAZ d   1      38.408  70.173  34.353  0.00  0.00     0.036 H 
ATOM      8  C31 SAZ d   1      36.509  70.284  36.591  0.00  0.00    -0.087 C 
ATOM      9  H6  SAZ d   1      38.499  70.515  37.417  0.00  0.00     0.039 H 
ATOM     10  H7  SAZ d   1      38.249  68.996  36.490  0.00  0.00     0.039 H 
ATOM     11  C07 SAZ d   1      35.865  71.205  35.796  0.00  0.00    -0.099 C 
ATOM     12  C03 SAZ d   1      36.601  72.112  34.778  0.00  0.00    -0.023 C 
ATOM     13  H8  SAZ d   1      34.784  71.301  35.887  0.00  0.00     0.077 H 
ATOM     14  H4  SAZ d   1      36.506  71.682  33.770  0.00  0.00     0.042 H 
ATOM     15  H5  SAZ d   1      36.152  73.116  34.792  0.00  0.00     0.042 H 
ATOM     16  H1  SAZ d   1      38.185  72.658  36.161  0.00  0.00     0.085 H 
BRANCH   8  17
ATOM     17  C32 SAZ d   1      35.768  69.436  37.572  0.00  0.00    -0.055 C 
ATOM     18  H24 SAZ d   1      34.696  69.677  37.528  0.00  0.00     0.033 H 
ATOM     19  H25 SAZ d   1      36.147  69.632  38.586  0.00  0.00     0.033 H 
ATOM     20  H26 SAZ d   1      35.916  68.374  37.324  0.00  0.00     0.033 H 
ENDBRANCH   8  17
ENDBRANCH   1   3
BRANCH   1  21
ATOM     21  C11 SAZ d   1      39.421  74.355  34.881  0.00  0.00     0.086 C 
ATOM     22  H13 SAZ d   1      39.821  75.023  34.104  0.00  0.00     0.076 H 
ATOM     23  H14 SAZ d   1      40.243  74.007  35.525  0.00  0.00     0.076 H 
BRANCH  21  24
ATOM     24  C10 SAZ d   1      38.446  75.194  35.770  0.00  0.00    -0.027 C 
ATOM     25  H11 SAZ d   1      38.733  76.253  35.690  0.00  0.00     0.041 H 
ATOM     26  H12 SAZ d   1      37.426  75.061  35.381  0.00  0.00     0.041 H 
BRANCH  24  27
ATOM     27  C09 SAZ d   1      38.446  74.815  37.232  0.00  0.00    -0.100 C 
ATOM     28  C14 SAZ d   1      37.423  74.445  38.042  0.00  0.00    -0.091 C 
ATOM     29  H10 SAZ d   1      39.423  74.843  37.712  0.00  0.00     0.077 H 
BRANCH  28  30
ATOM     30  C17 SAZ d   1      35.956  74.314  37.682  0.00  0.00    -0.055 C 
ATOM     31  H15 SAZ d   1      35.388  73.994  38.568  0.00  0.00     0.033 H 
ATOM     32  H16 SAZ d   1      35.840  73.567  36.883  0.00  0.00     0.033 H 
ATOM     33  H17 SAZ d   1      35.576  75.286  37.334  0.00  0.00     0.033 H 
ENDBRANCH  28  30
BRANCH  28  34
ATOM     34  C18 SAZ d   1      37.701  74.106  39.473  0.00  0.00    -0.055 C 
ATOM     35  H18 SAZ d   1      38.776  74.219  39.674  0.00  0.00     0.033 H 
ATOM     36  H19 SAZ d   1      37.398  73.067  39.669  0.00  0.00     0.033 H 
ATOM     37  H20 SAZ d   1      37.133  74.783  40.127  0.00  0.00     0.033 H 
ENDBRANCH  28  34
ENDBRANCH  24  27
ENDBRANCH  21  24
ENDBRANCH   1  21
BRANCH   1  38
ATOM     38  C19 SAZ d   1      39.971  72.576  33.473  0.00  0.00     0.067 C 
ATOM     39  H21 SAZ d   1      39.631  71.679  32.934  0.00  0.00     0.068 H 
ATOM     40  H22 SAZ d   1      40.762  72.298  34.185  0.00  0.00     0.068 H 
ATOM     41  H23 SAZ d   1      40.365  73.308  32.753  0.00  0.00     0.068 H 
ENDBRANCH   1  38
TORSDOF 8
