REMARK  20 active torsions:
REMARK  status: ('A' for Active; 'I' for Inactive)
REMARK    1  A    between atoms: O1_19  and  C1_1 
REMARK    2  A    between atoms: C10_2  and  C20_5 
REMARK    3  A    between atoms: O10_20  and  C10_2 
REMARK    4  A    between atoms: C21_6  and  C11_3 
REMARK    5  A    between atoms: C11_3  and  O11_21 
REMARK    6  A    between atoms: C2_4  and  O2_22 
REMARK    7  A    between atoms: C20_5  and  O1_19 
REMARK    8  A    between atoms: C21_6  and  O10_20 
REMARK    9  A    between atoms: C3_7  and  O3_25 
REMARK   10  A    between atoms: C30_8  and  O30_26 
REMARK   11  A    between atoms: C31_9  and  O31_27 
REMARK   12  A    between atoms: C4_10  and  O4_28 
REMARK   13  A    between atoms: C40_11  and  O40_29 
REMARK   14  A    between atoms: C41_12  and  O41_30 
REMARK   15  A    between atoms: C5_13  and  C6_16 
REMARK   16  A    between atoms: C50_14  and  C60_17 
REMARK   17  A    between atoms: C51_15  and  C61_18 
REMARK   18  A    between atoms: C6_16  and  O6_34 
REMARK   19  A    between atoms: C60_17  and  O60_32 
REMARK   20  A    between atoms: C61_18  and  O61_33 
ROOT
ATOM      1  C20 DQR d   1       6.692  73.122  -3.081  0.00  0.00     0.217 C 
ATOM      2  C30 DQR d   1       5.715  73.182  -1.913  0.00  0.00     0.118 C 
ATOM      3  C40 DQR d   1       4.864  74.397  -2.243  0.00  0.00     0.092 C 
ATOM      4  C50 DQR d   1       5.008  74.593  -3.768  0.00  0.00     0.089 C 
ATOM      5  O20 DQR d   1       6.245  73.956  -4.128  0.00  0.00    -0.341 OA
ATOM      6  H8  DQR d   1       5.103  72.269  -1.869  0.00  0.00     0.095 H 
ATOM      7  H11 DQR d   1       5.265  75.281  -1.726  0.00  0.00     0.091 H 
ATOM      8  H14 DQR d   1       4.167  74.098  -4.276  0.00  0.00     0.090 H 
ENDROOT
BRANCH   1   9
ATOM      9  C10 DQR d   1       6.583  71.719  -3.682  0.00  0.00     0.078 C 
ATOM     10  H2  DQR d   1       7.253  71.652  -4.552  0.00  0.00     0.083 H 
ATOM     11  H3  DQR d   1       5.545  71.551  -4.005  0.00  0.00     0.083 H 
BRANCH   9  12
ATOM     12  O10 DQR d   1       6.952  70.679  -2.721  0.00  0.00    -0.345 OA
BRANCH  12  13
ATOM     13  C21 DQR d   1       7.138  69.281  -3.154  0.00  0.00     0.215 C 
ATOM     14  C31 DQR d   1       5.784  68.528  -3.356  0.00  0.00     0.118 C 
ATOM     15  C41 DQR d   1       5.441  68.795  -4.799  0.00  0.00     0.092 C 
ATOM     16  H9  DQR d   1       5.932  67.451  -3.187  0.00  0.00     0.095 H 
ATOM     17  C51 DQR d   1       6.816  68.866  -5.500  0.00  0.00     0.089 C 
ATOM     18  H12 DQR d   1       4.938  69.769  -4.890  0.00  0.00     0.091 H 
ATOM     19  O21 DQR d   1       7.778  69.168  -4.429  0.00  0.00    -0.341 OA
ATOM     20  H15 DQR d   1       7.044  67.889  -5.950  0.00  0.00     0.090 H 
BRANCH  13  21
ATOM     21  C11 DQR d   1       8.033  68.646  -2.100  0.00  0.00     0.071 C 
ATOM     22  H4  DQR d   1       7.535  68.725  -1.122  0.00  0.00     0.082 H 
ATOM     23  H5  DQR d   1       8.986  69.194  -2.072  0.00  0.00     0.082 H 
BRANCH  21  24
ATOM     24  O11 DQR d   1       8.304  67.279  -2.361  0.00  0.00    -0.395 OA
ATOM     25  H22 DQR d   1       8.741  67.199  -3.200  0.00  0.00     0.209 HD
ENDBRANCH  21  24
ENDBRANCH  13  21
BRANCH  14  26
ATOM     26  O31 DQR d   1       4.731  68.972  -2.516  0.00  0.00    -0.387 OA
ATOM     27  H26 DQR d   1       3.933  68.508  -2.739  0.00  0.00     0.210 HD
ENDBRANCH  14  26
BRANCH  15  28
ATOM     28  O41 DQR d   1       4.563  67.804  -5.316  0.00  0.00    -0.390 OA
ATOM     29  H29 DQR d   1       3.745  67.825  -4.834  0.00  0.00     0.210 HD
ENDBRANCH  15  28
BRANCH  17  30
ATOM     30  C61 DQR d   1       6.908  69.927  -6.586  0.00  0.00     0.043 C 
ATOM     31  H20 DQR d   1       6.705  70.915  -6.148  0.00  0.00     0.078 H 
ATOM     32  H21 DQR d   1       6.165  69.713  -7.369  0.00  0.00     0.078 H 
BRANCH  30  33
ATOM     33  O61 DQR d   1       8.211  69.923  -7.159  0.00  0.00    -0.398 OA
ATOM     34  H31 DQR d   1       8.386  69.070  -7.538  0.00  0.00     0.209 HD
ENDBRANCH  30  33
ENDBRANCH  17  30
ENDBRANCH  12  13
ENDBRANCH   9  12
ENDBRANCH   1   9
BRANCH   1  35
ATOM     35  O1  DQR d   1       8.002  73.510  -2.616  0.00  0.00    -0.318 OA
BRANCH  35  36
ATOM     36  C1  DQR d   1       9.070  73.606  -3.559  0.00  0.00     0.162 C 
ATOM     37  C2  DQR d   1      10.373  73.038  -2.969  0.00  0.00     0.110 C 
ATOM     38  C3  DQR d   1      10.990  73.992  -1.953  0.00  0.00     0.092 C 
ATOM     39  H6  DQR d   1      11.096  72.941  -3.792  0.00  0.00     0.094 H 
ATOM     40  C4  DQR d   1      11.218  75.366  -2.581  0.00  0.00     0.090 C 
ATOM     41  H7  DQR d   1      10.304  74.111  -1.101  0.00  0.00     0.091 H 
ATOM     42  C5  DQR d   1       9.853  75.908  -3.058  0.00  0.00     0.089 C 
ATOM     43  H10 DQR d   1      11.894  75.266  -3.443  0.00  0.00     0.091 H 
ATOM     44  O5  DQR d   1       9.278  74.957  -4.043  0.00  0.00    -0.348 OA
ATOM     45  H13 DQR d   1       9.183  75.985  -2.189  0.00  0.00     0.090 H 
ATOM     46  H1  DQR d   1       8.796  72.986  -4.426  0.00  0.00     0.133 H 
BRANCH  37  47
ATOM     47  O2  DQR d   1      10.137  71.729  -2.461  0.00  0.00    -0.388 OA
ATOM     48  H23 DQR d   1       9.541  71.780  -1.723  0.00  0.00     0.210 HD
ENDBRANCH  37  47
BRANCH  38  49
ATOM     49  O3  DQR d   1      12.209  73.391  -1.489  0.00  0.00    -0.390 OA
ATOM     50  H24 DQR d   1      12.017  72.542  -1.108  0.00  0.00     0.210 HD
ENDBRANCH  38  49
BRANCH  40  51
ATOM     51  O4  DQR d   1      11.806  76.263  -1.630  0.00  0.00    -0.390 OA
ATOM     52  H27 DQR d   1      12.644  75.917  -1.346  0.00  0.00     0.210 HD
ENDBRANCH  40  51
BRANCH  42  53
ATOM     53  C6  DQR d   1       9.961  77.269  -3.709  0.00  0.00     0.043 C 
ATOM     54  H16 DQR d   1      10.603  77.215  -4.600  0.00  0.00     0.078 H 
ATOM     55  H17 DQR d   1      10.379  77.998  -2.999  0.00  0.00     0.078 H 
BRANCH  53  56
ATOM     56  O6  DQR d   1       8.371  77.719  -4.152  0.00  0.00    -0.398 OA
ATOM     57  H32 DQR d   1       8.019  77.078  -4.758  0.00  0.00     0.209 HD
ENDBRANCH  53  56
ENDBRANCH  42  53
ENDBRANCH  35  36
ENDBRANCH   1  35
BRANCH   2  58
ATOM     58  O30 DQR d   1       6.382  73.364  -0.664  0.00  0.00    -0.387 OA
ATOM     59  H25 DQR d   1       6.942  74.130  -0.714  0.00  0.00     0.210 HD
ENDBRANCH   2  58
BRANCH   3  60
ATOM     60  O40 DQR d   1       3.513  74.211  -1.818  0.00  0.00    -0.390 OA
ATOM     61  H28 DQR d   1       3.492  74.097  -0.875  0.00  0.00     0.210 HD
ENDBRANCH   3  60
BRANCH   4  62
ATOM     62  C60 DQR d   1       5.042  76.035  -4.199  0.00  0.00     0.043 C 
ATOM     63  H18 DQR d   1       5.891  76.547  -3.722  0.00  0.00     0.078 H 
ATOM     64  H19 DQR d   1       4.104  76.533  -3.910  0.00  0.00     0.078 H 
BRANCH  62  65
ATOM     65  O60 DQR d   1       5.191  76.071  -5.616  0.00  0.00    -0.398 OA
ATOM     66  H30 DQR d   1       6.000  75.637  -5.859  0.00  0.00     0.209 HD
ENDBRANCH  62  65
ENDBRANCH   4  62
TORSDOF 20
