REMARK  7 active torsions:
REMARK  status: ('A' for Active; 'I' for Inactive)
REMARK    1  A    between atoms: C3_3  and  C7_7 
REMARK    2  A    between atoms: C7_7  and  C8_8 
REMARK    3  A    between atoms: C8_8  and  C11_9 
REMARK    4  A    between atoms: C11_9  and  N14_10 
REMARK    5  A    between atoms: N14_10  and  O22_11 
REMARK    6  A    between atoms: N14_10  and  C24_12 
REMARK    7  A    between atoms: C24_12  and  O25_13 
ROOT
ATOM      1  C8  SB7 d   1      27.479  -4.755   5.807  0.00  0.00    -0.033 C 
ATOM      2  H8  SB7 d   1      26.942  -5.697   5.621  0.00  0.00     0.036 H 
ATOM      3  H9  SB7 d   1      28.364  -4.954   6.429  0.00  0.00     0.036 H 
ENDROOT
BRANCH   1   4
ATOM      4  C7  SB7 d   1      26.549  -3.794   6.561  0.00  0.00    -0.039 C 
ATOM      5  H6  SB7 d   1      27.082  -2.846   6.726  0.00  0.00     0.040 H 
ATOM      6  H7  SB7 d   1      25.657  -3.611   5.944  0.00  0.00     0.040 H 
BRANCH   4   7
ATOM      7  C3  SB7 d   1      26.108  -4.338   7.896  0.00  0.00    -0.058 A 
ATOM      8  C2  SB7 d   1      25.406  -5.582   7.992  0.00  0.00    -0.077 A 
ATOM      9  C1  SB7 d   1      24.980  -6.110   9.240  0.00  0.00    -0.082 A 
ATOM     10  H2  SB7 d   1      25.193  -6.137   7.086  0.00  0.00     0.084 H 
ATOM     11  C6  SB7 d   1      25.243  -5.408  10.430  0.00  0.00    -0.083 A 
ATOM     12  H1  SB7 d   1      24.451  -7.056   9.275  0.00  0.00     0.083 H 
ATOM     13  C5  SB7 d   1      26.008  -4.049  10.338  0.00  0.00    -0.082 A 
ATOM     14  H5  SB7 d   1      24.922  -5.801  11.388  0.00  0.00     0.083 H 
ATOM     15  C4  SB7 d   1      26.398  -3.591   9.070  0.00  0.00    -0.077 A 
ATOM     16  H4  SB7 d   1      26.232  -3.475  11.230  0.00  0.00     0.083 H 
ATOM     17  H3  SB7 d   1      26.930  -2.651   8.984  0.00  0.00     0.084 H 
ENDBRANCH   4   7
ENDBRANCH   1   4
BRANCH   1  18
ATOM     18  C11 SB7 d   1      27.938  -4.172   4.462  0.00  0.00     0.121 C 
ATOM     19  H10 SB7 d   1      27.260  -3.358   4.164  0.00  0.00     0.087 H 
ATOM     20  H11 SB7 d   1      27.923  -4.961   3.696  0.00  0.00     0.087 H 
BRANCH  18  21
ATOM     21  N14 SB7 d   1      29.302  -3.648   4.599  0.00  0.00    -0.043 N 
ATOM     22  H12 SB7 d   1      29.307  -3.388   3.625  0.00  0.00     0.347 HD
BRANCH  21  23
ATOM     23  O22 SB7 d   1      30.401  -4.477   4.378  0.00  0.00    -0.195 OA
ATOM     24  H13 SB7 d   1      31.201  -3.982   4.508  0.00  0.00     0.257 HD
ENDBRANCH  21  23
BRANCH  21  25
ATOM     25  C24 SB7 d   1      29.460  -2.346   4.952  0.00  0.00     0.198 C 
ATOM     26  H14 SB7 d   1      28.932  -2.235   5.911  0.00  0.00     0.130 H 
ATOM     27  H15 SB7 d   1      28.938  -1.766   4.177  0.00  0.00     0.130 H 
BRANCH  25  28
ATOM     28  O25 SB7 d   1      30.708  -1.701   5.131  0.00  0.00    -0.369 OA
ATOM     29  H16 SB7 d   1      30.563  -0.795   5.376  0.00  0.00     0.212 HD
ENDBRANCH  25  28
ENDBRANCH  21  25
ENDBRANCH  18  21
ENDBRANCH   1  18
TORSDOF 7
