REMARK  7 active torsions:
REMARK  status: ('A' for Active; 'I' for Inactive)
REMARK    1  A    between atoms: C3_3  and  C7_7 
REMARK    2  A    between atoms: C7_7  and  C8_8 
REMARK    3  A    between atoms: C8_8  and  C11_9 
REMARK    4  A    between atoms: C11_9  and  N14_10 
REMARK    5  A    between atoms: N14_10  and  O22_11 
REMARK    6  A    between atoms: N14_10  and  C24_12 
REMARK    7  A    between atoms: C24_12  and  O25_13 
ROOT
ATOM      1  C8  SB7 d   1      43.521   5.757  14.222  0.00  0.00    -0.033 C 
ATOM      2  H8  SB7 d   1      43.762   6.057  13.192  0.00  0.00     0.036 H 
ATOM      3  H9  SB7 d   1      43.085   6.611  14.760  0.00  0.00     0.036 H 
ENDROOT
BRANCH   1   4
ATOM      4  C7  SB7 d   1      44.844   5.392  14.922  0.00  0.00    -0.039 C 
ATOM      5  H6  SB7 d   1      44.618   5.111  15.961  0.00  0.00     0.040 H 
ATOM      6  H7  SB7 d   1      45.286   4.532  14.397  0.00  0.00     0.040 H 
BRANCH   4   7
ATOM      7  C3  SB7 d   1      45.873   6.520  14.944  0.00  0.00    -0.058 A 
ATOM      8  C2  SB7 d   1      45.664   7.780  14.243  0.00  0.00    -0.077 A 
ATOM      9  C1  SB7 d   1      46.642   8.810  14.256  0.00  0.00    -0.082 A 
ATOM     10  H2  SB7 d   1      44.740   7.935  13.698  0.00  0.00     0.084 H 
ATOM     11  C6  SB7 d   1      47.847   8.620  14.949  0.00  0.00    -0.083 A 
ATOM     12  H1  SB7 d   1      46.458   9.741  13.732  0.00  0.00     0.083 H 
ATOM     13  C5  SB7 d   1      48.078   7.276  15.701  0.00  0.00    -0.082 A 
ATOM     14  H5  SB7 d   1      48.604   9.396  14.961  0.00  0.00     0.083 H 
ATOM     15  C4  SB7 d   1      47.076   6.305  15.655  0.00  0.00    -0.077 A 
ATOM     16  H4  SB7 d   1      48.997   7.098  16.248  0.00  0.00     0.083 H 
ATOM     17  H3  SB7 d   1      47.224   5.366  16.176  0.00  0.00     0.084 H 
ENDBRANCH   4   7
ENDBRANCH   1   4
BRANCH   1  18
ATOM     18  C11 SB7 d   1      42.421   4.631  14.145  0.00  0.00     0.121 C 
ATOM     19  H10 SB7 d   1      42.774   3.887  13.416  0.00  0.00     0.087 H 
ATOM     20  H11 SB7 d   1      41.502   5.105  13.769  0.00  0.00     0.087 H 
BRANCH  18  21
ATOM     21  N14 SB7 d   1      42.037   3.859  15.428  0.00  0.00    -0.043 N 
ATOM     22  H12 SB7 d   1      42.123   4.705  15.970  0.00  0.00     0.347 HD
BRANCH  21  23
ATOM     23  O22 SB7 d   1      40.691   3.738  15.799  0.00  0.00    -0.195 OA
ATOM     24  H13 SB7 d   1      40.629   3.238  16.605  0.00  0.00     0.257 HD
ENDBRANCH  21  23
BRANCH  21  25
ATOM     25  C24 SB7 d   1      42.997   3.255  16.196  0.00  0.00     0.198 C 
ATOM     26  H14 SB7 d   1      43.682   4.062  16.494  0.00  0.00     0.130 H 
ATOM     27  H15 SB7 d   1      43.519   2.563  15.519  0.00  0.00     0.130 H 
BRANCH  25  28
ATOM     28  O25 SB7 d   1      42.753   2.504  17.391  0.00  0.00    -0.369 OA
ATOM     29  H16 SB7 d   1      42.189   1.766  17.190  0.00  0.00     0.212 HD
ENDBRANCH  25  28
ENDBRANCH  21  25
ENDBRANCH  18  21
ENDBRANCH   1  18
TORSDOF 7
