REMARK  15 active torsions:
REMARK  status: ('A' for Active; 'I' for Inactive)
REMARK    1  A    between atoms: N_1  and  CA_2 
REMARK    2  A    between atoms: CA_2  and  CB_3 
REMARK    3  A    between atoms: CA_2  and  C_7 
REMARK    4  A    between atoms: CB_3  and  CG1_4 
REMARK    5  A    between atoms: CB_3  and  CG2_5 
REMARK    6  A    between atoms: CB_3  and  CG3_6 
REMARK       I    between atoms: C_7  and  N_9 
REMARK    7  A    between atoms: CA_10  and  C_11 
REMARK    8  A    between atoms: C_11  and  O_12 
REMARK    9  A    between atoms: C_11  and  N_16 
REMARK   10  A    between atoms: N_16  and  CA_17 
REMARK   11  A    between atoms: CA_17  and  C_18 
REMARK   12  A    between atoms: CA_17  and  CB_20 
REMARK   13  A    between atoms: CB_20  and  CG1_21 
REMARK   14  A    between atoms: CB_20  and  CG2_22 
REMARK   15  A    between atoms: CG1_21  and  CD1_23 
ROOT
ATOM      1  C   0QG d   1      -6.546  18.879   4.900  0.00  0.00     0.251 C 
ATOM      2  O   0QG d   1      -5.410  18.498   4.683  0.00  0.00    -0.271 OA
ATOM      3  N   0QG d   1      -7.590  18.436   4.184  0.00  0.00    -0.341 N 
ATOM      4  CA  0QG d   1      -7.444  17.473   3.080  0.00  0.00     0.064 C 
ATOM      5  CB  0QG d   1      -8.831  16.833   2.999  0.00  0.00    -0.041 C 
ATOM      6  CG  0QG d   1      -9.730  17.944   3.429  0.00  0.00    -0.048 C 
ATOM      7  CD  0QG d   1      -8.996  18.521   4.610  0.00  0.00    -0.002 C 
ATOM      8  H14 0QG d   1      -6.707  16.712   3.377  0.00  0.00     0.079 H 
ATOM      9  H17 0QG d   1      -8.911  15.972   3.679  0.00  0.00     0.036 H 
ATOM     10  H18 0QG d   1      -9.060  16.512   1.972  0.00  0.00     0.036 H 
ATOM     11  H19 0QG d   1     -10.719  17.563   3.724  0.00  0.00     0.035 H 
ATOM     12  H20 0QG d   1      -9.848  18.692   2.631  0.00  0.00     0.035 H 
ATOM     13  H21 0QG d   1      -9.294  19.564   4.792  0.00  0.00     0.064 H 
ATOM     14  H22 0QG d   1      -9.173  17.925   5.518  0.00  0.00     0.064 H 
ENDROOT
BRANCH   4  15
ATOM     15  C   0QG d   1      -6.969  18.045   1.704  0.00  0.00     0.210 C 
ATOM     16  H15 0QG d   1      -6.849  17.223   0.983  0.00  0.00     0.132 H 
BRANCH  15  17
ATOM     17  O   0QG d   1      -7.833  18.856   1.280  0.00  0.00    -0.368 OA
ATOM     18  H16 0QG d   1      -7.937  19.562   1.907  0.00  0.00     0.212 HD
ENDBRANCH  15  17
BRANCH  15  19
ATOM     19  N   0QG d   1      -5.685  18.734   1.878  0.00  0.00    -0.033 N 
ATOM     20  H23 0QG d   1      -4.989  18.017   2.011  0.00  0.00     0.281 HD
ATOM     21  H24 0QG d   1      -5.766  19.285   2.719  0.00  0.00     0.281 HD
BRANCH  19  22
ATOM     22  CA  0QG d   1      -5.168  19.630   0.839  0.00  0.00     0.190 C 
ATOM     23  H25 0QG d   1      -5.674  19.385  -0.106  0.00  0.00     0.102 H 
BRANCH  22  24
ATOM     24  C   0QG d   1      -3.664  19.432   0.652  0.00  0.00     0.205 C 
ATOM     25  O   0QG d   1      -2.950  19.330   1.672  0.00  0.00    -0.646 OA
ATOM     26  OXT 0QG d   1      -3.219  19.380  -0.514  0.00  0.00    -0.646 OA
ENDBRANCH  22  24
BRANCH  22  27
ATOM     27  CB  0QG d   1      -5.447  21.116   1.171  0.00  0.00    -0.020 C 
ATOM     28  H26 0QG d   1      -6.458  21.202   1.596  0.00  0.00     0.043 H 
BRANCH  27  29
ATOM     29  CG1 0QG d   1      -5.368  21.960  -0.101  0.00  0.00    -0.063 C 
ATOM     30  H27 0QG d   1      -6.092  21.562  -0.827  0.00  0.00     0.033 H 
ATOM     31  H28 0QG d   1      -4.351  21.874  -0.512  0.00  0.00     0.033 H 
BRANCH  29  32
ATOM     32  CD1 0QG d   1      -5.671  23.429   0.120  0.00  0.00    -0.076 C 
ATOM     33  H32 0QG d   1      -5.594  23.967  -0.836  0.00  0.00     0.027 H 
ATOM     34  H33 0QG d   1      -4.949  23.849   0.836  0.00  0.00     0.027 H 
ATOM     35  H34 0QG d   1      -6.690  23.537   0.521  0.00  0.00     0.027 H 
ENDBRANCH  29  32
ENDBRANCH  27  29
BRANCH  27  36
ATOM     36  CG2 0QG d   1      -4.440  21.630   2.187  0.00  0.00    -0.070 C 
ATOM     37  H29 0QG d   1      -4.498  21.021   3.101  0.00  0.00     0.028 H 
ATOM     38  H30 0QG d   1      -4.667  22.679   2.429  0.00  0.00     0.028 H 
ATOM     39  H31 0QG d   1      -3.426  21.562   1.765  0.00  0.00     0.028 H 
ENDBRANCH  27  36
ENDBRANCH  22  27
ENDBRANCH  19  22
ENDBRANCH  15  19
ENDBRANCH   4  15
BRANCH   1  40
ATOM     40  CA  0QG d   1      -6.832  19.880   6.027  0.00  0.00     0.182 C 
ATOM     41  H4  0QG d   1      -7.911  19.881   6.242  0.00  0.00     0.100 H 
BRANCH  40  42
ATOM     42  N   0QG d   1      -6.099  19.495   7.228  0.00  0.00    -0.066 N 
ATOM     43  H1  0QG d   1      -6.379  18.568   7.510  0.00  0.00     0.275 HD
ATOM     44  H2  0QG d   1      -6.302  20.147   7.969  0.00  0.00     0.275 HD
ATOM     45  H3  0QG d   1      -5.110  19.503   7.035  0.00  0.00     0.275 HD
ENDBRANCH  40  42
BRANCH  40  46
ATOM     46  CB  0QG d   1      -6.392  21.306   5.606  0.00  0.00    -0.014 C 
BRANCH  46  47
ATOM     47  CG1 0QG d   1      -4.889  21.483   5.316  0.00  0.00    -0.067 C 
ATOM     48  H5  0QG d   1      -4.691  22.526   5.028  0.00  0.00     0.028 H 
ATOM     49  H6  0QG d   1      -4.593  20.814   4.495  0.00  0.00     0.028 H 
ATOM     50  H7  0QG d   1      -4.310  21.235   6.218  0.00  0.00     0.028 H 
ENDBRANCH  46  47
BRANCH  46  51
ATOM     51  CG2 0QG d   1      -6.808  22.297   6.710  0.00  0.00    -0.067 C 
ATOM     52  H8  0QG d   1      -7.880  22.178   6.924  0.00  0.00     0.028 H 
ATOM     53  H9  0QG d   1      -6.613  23.326   6.372  0.00  0.00     0.028 H 
ATOM     54  H10 0QG d   1      -6.227  22.095   7.622  0.00  0.00     0.028 H 
ENDBRANCH  46  51
BRANCH  46  55
ATOM     55  CG3 0QG d   1      -7.215  21.588   4.329  0.00  0.00    -0.067 C 
ATOM     56  H11 0QG d   1      -6.920  20.882   3.539  0.00  0.00     0.028 H 
ATOM     57  H12 0QG d   1      -7.025  22.617   3.990  0.00  0.00     0.028 H 
ATOM     58  H13 0QG d   1      -8.286  21.466   4.548  0.00  0.00     0.028 H 
ENDBRANCH  46  55
ENDBRANCH  40  46
ENDBRANCH   1  40
TORSDOF 15
