REMARK  4 active torsions:
REMARK  status: ('A' for Active; 'I' for Inactive)
REMARK    1  A    between atoms: C_3  and  CA_2 
REMARK       I    between atoms: N1_9  and  C_3 
REMARK    2  A    between atoms: B_15  and  O1_8 
REMARK    3  A    between atoms: C2_11  and  B_15 
REMARK    4  A    between atoms: B_15  and  O2_14 
ROOT
ATOM      1  C   BPR d   1      -6.472  18.375   4.277  0.00  0.00     0.250 C 
ATOM      2  O   BPR d   1      -5.278  18.138   4.151  0.00  0.00    -0.271 OA
ATOM      3  N1  BPR d   1      -7.395  17.795   3.498  0.00  0.00    -0.349 N 
ATOM      4  C1  BPR d   1      -8.846  17.809   3.773  0.00  0.00    -0.003 C 
ATOM      5  C2  BPR d   1      -7.050  16.867   2.419  0.00  0.00     0.048 C 
ATOM      6  C3  BPR d   1      -8.310  16.026   2.303  0.00  0.00    -0.047 C 
ATOM      7  C4  BPR d   1      -9.402  17.016   2.636  0.00  0.00    -0.049 C 
ATOM      8  H11 BPR d   1      -9.241  18.836   3.771  0.00  0.00     0.064 H 
ATOM      9  H12 BPR d   1      -9.072  17.331   4.738  0.00  0.00     0.064 H 
ATOM     10  H13 BPR d   1      -6.189  16.247   2.710  0.00  0.00     0.065 H 
ATOM     11  H14 BPR d   1      -8.298  15.193   3.021  0.00  0.00     0.035 H 
ATOM     12  H15 BPR d   1      -8.431  15.631   1.284  0.00  0.00     0.035 H 
ATOM     13  H16 BPR d   1      -9.615  17.666   1.774  0.00  0.00     0.035 H 
ATOM     14  H17 BPR d   1     -10.322  16.494   2.938  0.00  0.00     0.035 H 
ENDROOT
BRANCH   1  15
ATOM     15  CA  BPR d   1      -6.975  19.326   5.364  0.00  0.00     0.178 C 
ATOM     16  N   BPR d   1      -5.980  19.550   6.442  0.00  0.00    -0.062 N 
ATOM     17  CD  BPR d   1      -5.647  20.981   6.540  0.00  0.00     0.083 C 
ATOM     18  H1  BPR d   1      -5.143  19.027   6.236  0.00  0.00     0.278 HD
ATOM     19  H2  BPR d   1      -6.364  19.237   7.320  0.00  0.00     0.278 HD
ATOM     20  CG  BPR d   1      -6.107  21.530   5.200  0.00  0.00    -0.040 C 
ATOM     21  H8  BPR d   1      -4.565  21.127   6.677  0.00  0.00     0.075 H 
ATOM     22  H9  BPR d   1      -6.189  21.457   7.370  0.00  0.00     0.075 H 
ATOM     23  CB  BPR d   1      -7.303  20.679   4.765  0.00  0.00    -0.028 C 
ATOM     24  H6  BPR d   1      -6.408  22.583   5.305  0.00  0.00     0.035 H 
ATOM     25  H7  BPR d   1      -5.297  21.452   4.460  0.00  0.00     0.035 H 
ATOM     26  H4  BPR d   1      -8.244  21.077   5.173  0.00  0.00     0.036 H 
ATOM     27  H5  BPR d   1      -7.373  20.622   3.669  0.00  0.00     0.036 H 
ATOM     28  H3  BPR d   1      -7.885  18.893   5.806  0.00  0.00     0.099 H 
ENDBRANCH   1  15
BRANCH   5  29
ATOM     29  B   BPR d   1      -6.720  17.576   1.053  0.00  0.00     0.515 B 
BRANCH  29  30
ATOM     30  O1  BPR d   1      -7.913  18.359   0.599  0.00  0.00    -0.436 OA
ATOM     31  H10 BPR d   1      -8.119  19.023   1.246  0.00  0.00     0.184 HD
ENDBRANCH  29  30
BRANCH  29  32
ATOM     32  O2  BPR d   1      -5.582  18.530   1.200  0.00  0.00    -0.436 OA
ATOM     33  H18 BPR d   1      -5.807  19.193   1.842  0.00  0.00     0.184 HD
ENDBRANCH  29  32
ENDBRANCH   5  29
TORSDOF 4
