REMARK  7 active torsions:
REMARK  status: ('A' for Active; 'I' for Inactive)
REMARK       I    between atoms: C5_6  and  N1_1 
REMARK    1  A    between atoms: C1_2  and  C20_23 
REMARK    2  A    between atoms: C6_7  and  C5_6 
REMARK    3  A    between atoms: C6_7  and  N2_9 
REMARK    4  A    between atoms: C7_10  and  C6_7 
REMARK    5  A    between atoms: C11_14  and  C7_10 
REMARK    6  A    between atoms: C17_20  and  C8_11 
REMARK    7  A    between atoms: C20_23  and  N3_24 
ROOT
ATOM      1  C6  JNH d   1     110.214 -77.351 -52.582  0.00  0.00     0.179 C 
ATOM      2  H8  JNH d   1     110.871 -76.470 -52.637  0.00  0.00     0.099 H 
ENDROOT
BRANCH   1   3
ATOM      3  C5  JNH d   1     110.397 -78.246 -53.794  0.00  0.00     0.251 C 
ATOM      4  N1  JNH d   1     111.436 -77.872 -54.530  0.00  0.00    -0.344 N 
ATOM      5  C1  JNH d   1     111.897 -78.671 -55.650  0.00  0.00     0.037 C 
ATOM      6  C4  JNH d   1     111.919 -76.533 -54.583  0.00  0.00    -0.002 C 
ATOM      7  C2  JNH d   1     112.970 -77.768 -56.217  0.00  0.00    -0.043 C 
ATOM      8  H1  JNH d   1     111.059 -78.758 -56.357  0.00  0.00     0.075 H 
ATOM      9  C3  JNH d   1     112.344 -76.406 -56.021  0.00  0.00    -0.048 C 
ATOM     10  H2  JNH d   1     113.152 -77.978 -57.281  0.00  0.00     0.036 H 
ATOM     11  H3  JNH d   1     113.913 -77.862 -55.658  0.00  0.00     0.036 H 
ATOM     12  H4  JNH d   1     111.485 -76.249 -56.690  0.00  0.00     0.035 H 
ATOM     13  H5  JNH d   1     113.073 -75.595 -56.163  0.00  0.00     0.035 H 
ATOM     14  H6  JNH d   1     112.770 -76.388 -53.901  0.00  0.00     0.064 H 
ATOM     15  H7  JNH d   1     111.125 -75.812 -54.337  0.00  0.00     0.064 H 
ATOM     16  O1  JNH d   1     109.685 -79.210 -54.064  0.00  0.00    -0.271 OA
BRANCH   5  17
ATOM     17  C20 JNH d   1     112.450 -80.058 -55.500  0.00  0.00     0.098 C 
ATOM     18  H23 JNH d   1     113.523 -79.936 -55.708  0.00  0.00     0.078 H 
ATOM     19  H24 JNH d   1     111.979 -80.618 -56.321  0.00  0.00     0.078 H 
BRANCH  17  20
ATOM     20  N3  JNH d   1     112.421 -80.884 -54.508  0.00  0.00    -0.077 N 
ATOM     21  H25 JNH d   1     112.898 -81.734 -54.764  0.00  0.00     0.274 HD
ATOM     22  H26 JNH d   1     111.463 -81.094 -54.273  0.00  0.00     0.274 HD
ATOM     23  H27 JNH d   1     112.879 -80.469 -53.712  0.00  0.00     0.274 HD
ENDBRANCH  17  20
ENDBRANCH   5  17
ENDBRANCH   1   3
BRANCH   1  24
ATOM     24  N2  JNH d   1     108.818 -76.909 -52.481  0.00  0.00    -0.066 N 
ATOM     25  H9  JNH d   1     108.711 -76.316 -51.673  0.00  0.00     0.275 HD
ATOM     26  H10 JNH d   1     108.217 -77.713 -52.390  0.00  0.00     0.275 HD
ATOM     27  H11 JNH d   1     108.568 -76.394 -53.311  0.00  0.00     0.275 HD
ENDBRANCH   1  24
BRANCH   1  28
ATOM     28  C7  JNH d   1     110.622 -78.260 -51.413  0.00  0.00    -0.006 C 
ATOM     29  H12 JNH d   1     111.694 -78.481 -51.521  0.00  0.00     0.043 H 
ATOM     30  H13 JNH d   1     110.045 -79.192 -51.498  0.00  0.00     0.043 H 
BRANCH  28  31
ATOM     31  C11 JNH d   1     110.404 -77.710 -50.014  0.00  0.00    -0.056 A 
ATOM     32  C10 JNH d   1     109.096 -77.601 -49.473  0.00  0.00    -0.076 A 
ATOM     33  C9  JNH d   1     108.931 -77.097 -48.169  0.00  0.00    -0.072 A 
ATOM     34  H15 JNH d   1     108.234 -77.902 -50.057  0.00  0.00     0.084 H 
ATOM     35  C8  JNH d   1     110.047 -76.720 -47.395  0.00  0.00    -0.026 A 
ATOM     36  H14 JNH d   1     107.934 -76.998 -47.755  0.00  0.00     0.084 H 
ATOM     37  C13 JNH d   1     111.332 -76.861 -47.978  0.00  0.00    -0.072 A 
ATOM     38  C12 JNH d   1     111.533 -77.356 -49.272  0.00  0.00    -0.076 A 
ATOM     39  H17 JNH d   1     112.199 -76.572 -47.395  0.00  0.00     0.084 H 
ATOM     40  H16 JNH d   1     112.530 -77.461 -49.684  0.00  0.00     0.084 H 
BRANCH  35  41
ATOM     41  C17 JNH d   1     109.907 -76.213 -46.068  0.00  0.00    -0.026 A 
ATOM     42  C16 JNH d   1     108.626 -75.878 -45.518  0.00  0.00    -0.072 A 
ATOM     43  C15 JNH d   1     108.497 -75.357 -44.196  0.00  0.00    -0.082 A 
ATOM     44  H20 JNH d   1     107.736 -76.024 -46.120  0.00  0.00     0.084 H 
ATOM     45  C14 JNH d   1     109.658 -75.168 -43.405  0.00  0.00    -0.083 A 
ATOM     46  H19 JNH d   1     107.519 -75.108 -43.800  0.00  0.00     0.083 H 
ATOM     47  C19 JNH d   1     110.938 -75.498 -43.904  0.00  0.00    -0.082 A 
ATOM     48  H18 JNH d   1     109.562 -74.765 -42.403  0.00  0.00     0.083 H 
ATOM     49  C18 JNH d   1     111.052 -76.015 -45.219  0.00  0.00    -0.072 A 
ATOM     50  H22 JNH d   1     111.820 -75.358 -43.290  0.00  0.00     0.083 H 
ATOM     51  H21 JNH d   1     112.035 -76.270 -45.598  0.00  0.00     0.084 H 
ENDBRANCH  35  41
ENDBRANCH  28  31
ENDBRANCH   1  28
TORSDOF 7
