REMARK  23 active torsions:
REMARK  status: ('A' for Active; 'I' for Inactive)
REMARK    1  A    between atoms: C5_1  and  C6_2 
REMARK    2  A    between atoms: C9_5  and  C11_7 
REMARK       I    between atoms: C11_7  and  N13_9 
REMARK    3  A    between atoms: N13_9  and  C14_10 
REMARK    4  A    between atoms: C14_10  and  C15_11 
REMARK    5  A    between atoms: C14_10  and  C18_14 
REMARK    6  A    between atoms: C15_11  and  C16_12 
REMARK    7  A    between atoms: C15_11  and  C17_13 
REMARK    8  A    between atoms: C18_14  and  C20_16 
REMARK    9  A    between atoms: C20_16  and  C21_17 
REMARK   10  A    between atoms: C21_17  and  C22_18 
REMARK   11  A    between atoms: C21_17  and  C29_23 
REMARK   12  A    between atoms: C22_18  and  C23_19 
REMARK   13  A    between atoms: C24_20  and  C25_21 
REMARK   14  A    between atoms: C24_20  and  C26_22 
REMARK       I    between atoms: C29_23  and  N31_25 
REMARK   15  A    between atoms: N31_25  and  C32_26 
REMARK   16  A    between atoms: C32_26  and  C33_27 
REMARK   17  A    between atoms: C32_26  and  C40_34 
REMARK   18  A    between atoms: C33_27  and  C34_28 
REMARK   19  A    between atoms: C34_28  and  C35_29 
REMARK   20  A    between atoms: C35_29  and  O37_31 
REMARK   21  A    between atoms: O37_31  and  C38_32 
REMARK   22  A    between atoms: C38_32  and  C39_33 
REMARK   23  A    between atoms: C40_34  and  C41_35 
ROOT
ATOM      1  C21 CY6 d   1      71.141  38.020  21.092  0.00  0.00     0.020 C 
ATOM      2  H16 CY6 d   1      70.559  38.186  20.173  0.00  0.00     0.053 H 
ENDROOT
BRANCH   1   3
ATOM      3  C20 CY6 d   1      72.013  39.283  21.487  0.00  0.00     0.003 C 
ATOM      4  H14 CY6 d   1      72.526  39.029  22.427  0.00  0.00     0.045 H 
ATOM      5  H15 CY6 d   1      72.757  39.413  20.687  0.00  0.00     0.045 H 
BRANCH   3   6
ATOM      6  C18 CY6 d   1      71.359  40.649  21.702  0.00  0.00     0.150 C 
ATOM      7  O19 CY6 d   1      70.125  40.839  21.547  0.00  0.00    -0.296 OA
BRANCH   6   8
ATOM      8  C14 CY6 d   1      72.326  41.774  22.182  0.00  0.00     0.073 C 
ATOM      9  H6  CY6 d   1      73.349  41.382  22.084  0.00  0.00     0.085 H 
BRANCH   8  10
ATOM     10  N13 CY6 d   1      72.227  42.939  21.272  0.00  0.00    -0.344 N 
ATOM     11  C11 CY6 d   1      72.594  43.047  19.954  0.00  0.00     0.273 C 
ATOM     12  O12 CY6 d   1      73.091  42.080  19.314  0.00  0.00    -0.266 OA
ATOM     13  H5  CY6 d   1      71.836  43.766  21.677  0.00  0.00     0.163 HD
BRANCH  11  14
ATOM     14  C9  CY6 d   1      72.486  44.290  19.181  0.00  0.00     0.154 A 
ATOM     15  N8  CY6 d   1      71.708  44.482  18.177  0.00  0.00    -0.123 NA
ATOM     16  O7  CY6 d   1      71.959  45.824  17.767  0.00  0.00    -0.218 OA
ATOM     17  C6  CY6 d   1      72.893  46.299  18.605  0.00  0.00     0.077 A 
ATOM     18  C10 CY6 d   1      73.304  45.457  19.521  0.00  0.00    -0.017 A 
ATOM     19  H4  CY6 d   1      74.043  45.587  20.310  0.00  0.00     0.091 H 
BRANCH  17  20
ATOM     20  C5  CY6 d   1      73.376  47.714  18.433  0.00  0.00    -0.029 C 
ATOM     21  H1  CY6 d   1      74.135  47.938  19.197  0.00  0.00     0.036 H 
ATOM     22  H2  CY6 d   1      72.529  48.407  18.543  0.00  0.00     0.036 H 
ATOM     23  H3  CY6 d   1      73.818  47.832  17.433  0.00  0.00     0.036 H 
ENDBRANCH  17  20
ENDBRANCH  11  14
ENDBRANCH   8  10
BRANCH   8  24
ATOM     24  C15 CY6 d   1      72.133  42.143  23.753  0.00  0.00    -0.035 C 
ATOM     25  H7  CY6 d   1      72.914  42.880  23.992  0.00  0.00     0.042 H 
BRANCH  24  26
ATOM     26  C16 CY6 d   1      72.290  40.962  24.778  0.00  0.00    -0.071 C 
ATOM     27  H8  CY6 d   1      72.137  41.340  25.799  0.00  0.00     0.028 H 
ATOM     28  H9  CY6 d   1      73.300  40.534  24.693  0.00  0.00     0.028 H 
ATOM     29  H10 CY6 d   1      71.543  40.185  24.559  0.00  0.00     0.028 H 
ENDBRANCH  24  26
BRANCH  24  30
ATOM     30  C17 CY6 d   1      70.736  42.815  24.019  0.00  0.00    -0.071 C 
ATOM     31  H11 CY6 d   1      70.591  43.649  23.317  0.00  0.00     0.028 H 
ATOM     32  H12 CY6 d   1      70.702  43.194  25.051  0.00  0.00     0.028 H 
ATOM     33  H13 CY6 d   1      69.938  42.072  23.875  0.00  0.00     0.028 H 
ENDBRANCH  24  30
ENDBRANCH   8  24
ENDBRANCH   6   8
ENDBRANCH   3   6
ENDBRANCH   1   3
BRANCH   1  34
ATOM     34  C22 CY6 d   1      72.139  36.810  20.916  0.00  0.00    -0.039 C 
ATOM     35  H17 CY6 d   1      71.562  35.888  20.749  0.00  0.00     0.040 H 
ATOM     36  H18 CY6 d   1      72.742  36.704  21.830  0.00  0.00     0.040 H 
BRANCH  34  37
ATOM     37  C23 CY6 d   1      73.063  37.040  19.734  0.00  0.00    -0.101 C 
ATOM     38  C24 CY6 d   1      74.102  36.098  19.379  0.00  0.00    -0.091 C 
ATOM     39  H19 CY6 d   1      72.940  37.941  19.135  0.00  0.00     0.077 H 
BRANCH  38  40
ATOM     40  C25 CY6 d   1      74.674  36.115  18.000  0.00  0.00    -0.055 C 
ATOM     41  H20 CY6 d   1      75.445  35.336  17.913  0.00  0.00     0.033 H 
ATOM     42  H21 CY6 d   1      75.123  37.099  17.802  0.00  0.00     0.033 H 
ATOM     43  H22 CY6 d   1      73.875  35.923  17.269  0.00  0.00     0.033 H 
ENDBRANCH  38  40
BRANCH  38  44
ATOM     44  C26 CY6 d   1      74.640  35.110  20.392  0.00  0.00    -0.055 C 
ATOM     45  H23 CY6 d   1      74.108  35.237  21.346  0.00  0.00     0.033 H 
ATOM     46  H24 CY6 d   1      75.714  35.290  20.545  0.00  0.00     0.033 H 
ATOM     47  H25 CY6 d   1      74.489  34.086  20.021  0.00  0.00     0.033 H 
ENDBRANCH  38  44
ENDBRANCH  34  37
ENDBRANCH   1  34
BRANCH   1  48
ATOM     48  C29 CY6 d   1      70.214  37.799  22.319  0.00  0.00     0.156 C 
ATOM     49  O30 CY6 d   1      70.708  38.051  23.497  0.00  0.00    -0.177 OA
ATOM     50  N31 CY6 d   1      68.919  37.377  22.192  0.00  0.00    -0.364 N 
ATOM     51  H26 CY6 d   1      68.535  37.184  21.289  0.00  0.00     0.162 HD
BRANCH  50  52
ATOM     52  C32 CY6 d   1      68.100  37.211  23.398  0.00  0.00     0.029 C 
ATOM     53  H27 CY6 d   1      68.768  37.527  24.213  0.00  0.00     0.079 H 
BRANCH  52  54
ATOM     54  C33 CY6 d   1      67.573  35.869  23.853  0.00  0.00    -0.076 C 
ATOM     55  H28 CY6 d   1      66.533  35.549  23.887  0.00  0.00     0.080 H 
BRANCH  54  56
ATOM     56  C34 CY6 d   1      68.844  35.026  24.270  0.00  0.00    -0.012 C 
ATOM     57  H29 CY6 d   1      69.859  35.391  24.120  0.00  0.00     0.092 H 
BRANCH  56  58
ATOM     58  C35 CY6 d   1      68.547  33.649  24.904  0.00  0.00     0.282 C 
ATOM     59  O36 CY6 d   1      67.364  33.281  25.088  0.00  0.00    -0.260 OA
BRANCH  58  60
ATOM     60  O37 CY6 d   1      69.525  32.760  25.330  0.00  0.00    -0.319 OA
BRANCH  60  61
ATOM     61  C38 CY6 d   1      70.368  33.085  26.474  0.00  0.00     0.026 C 
ATOM     62  H30 CY6 d   1      70.429  34.179  26.566  0.00  0.00     0.074 H 
ATOM     63  H31 CY6 d   1      71.373  32.675  26.297  0.00  0.00     0.074 H 
BRANCH  61  64
ATOM     64  C39 CY6 d   1      69.823  32.505  27.809  0.00  0.00    -0.056 C 
ATOM     65  H32 CY6 d   1      70.498  32.782  28.632  0.00  0.00     0.030 H 
ATOM     66  H33 CY6 d   1      69.764  31.409  27.736  0.00  0.00     0.030 H 
ATOM     67  H34 CY6 d   1      68.820  32.913  28.004  0.00  0.00     0.030 H 
ENDBRANCH  61  64
ENDBRANCH  60  61
ENDBRANCH  58  60
ENDBRANCH  56  58
ENDBRANCH  54  56
ENDBRANCH  52  54
BRANCH  52  68
ATOM     68  C40 CY6 d   1      66.898  38.228  23.380  0.00  0.00    -0.032 C 
ATOM     69  H35 CY6 d   1      65.972  37.652  23.526  0.00  0.00     0.037 H 
ATOM     70  H36 CY6 d   1      66.880  38.705  22.389  0.00  0.00     0.037 H 
BRANCH  68  71
ATOM     71  C41 CY6 d   1      66.922  39.359  24.447  0.00  0.00     0.027 C 
ATOM     72  C42 CY6 d   1      67.180  39.033  25.945  0.00  0.00    -0.039 C 
ATOM     73  C43 CY6 d   1      66.770  40.370  26.624  0.00  0.00    -0.004 C 
ATOM     74  H38 CY6 d   1      68.238  38.796  26.129  0.00  0.00     0.036 H 
ATOM     75  H39 CY6 d   1      66.552  38.198  26.289  0.00  0.00     0.036 H 
ATOM     76  N44 CY6 d   1      65.608  40.710  25.796  0.00  0.00    -0.361 N 
ATOM     77  H40 CY6 d   1      67.563  41.129  26.551  0.00  0.00     0.064 H 
ATOM     78  H41 CY6 d   1      66.495  40.228  27.680  0.00  0.00     0.064 H 
ATOM     79  C45 CY6 d   1      65.654  40.151  24.564  0.00  0.00     0.222 C 
ATOM     80  H42 CY6 d   1      64.859  41.294  26.109  0.00  0.00     0.162 HD
ATOM     81  O46 CY6 d   1      64.813  40.257  23.638  0.00  0.00    -0.273 OA
ATOM     82  H37 CY6 d   1      67.725  40.034  24.116  0.00  0.00     0.054 H 
ENDBRANCH  68  71
ENDBRANCH  52  68
ENDBRANCH  50  52
ENDBRANCH   1  48
TORSDOF 23
