REMARK  4 active torsions:
REMARK  status: ('A' for Active; 'I' for Inactive)
REMARK    1  A    between atoms: N10_14  and  C5_2 
REMARK       I    between atoms: C13_5  and  N10_14 
REMARK    2  A    between atoms: C14_17  and  C13_5 
REMARK    3  A    between atoms: S21_23  and  C18_20 
REMARK    4  A    between atoms: S21_23  and  N23_24 
ROOT
ATOM      1  C4  1LG d   1      11.568  46.453  55.381  0.00  0.00    -0.038 C 
ATOM      2  C5  1LG d   1      14.670  44.841  53.822  0.00  0.00     0.098 A 
ATOM      3  C6  1LG d   1      14.368  45.421  56.187  0.00  0.00     0.103 C 
ATOM      4  C8  1LG d   1      10.955  46.154  52.426  0.00  0.00    -0.034 C 
ATOM      5  C1  1LG d   1      12.564  45.846  54.401  0.00  0.00    -0.021 A 
ATOM      6  C2  1LG d   1      13.906  45.352  54.815  0.00  0.00     0.085 A 
ATOM      7  C3  1LG d   1      12.274  45.712  53.050  0.00  0.00    -0.007 A 
ATOM      8  S7  1LG d   1      13.706  44.974  52.351  0.00  0.00    -0.075 SA
ATOM      9  C9  1LG d   1      10.103  46.340  54.891  0.00  0.00    -0.061 C 
ATOM     10  N11 1LG d   1      14.737  45.469  57.283  0.00  0.00    -0.191 NA
ATOM     11  C12 1LG d   1       9.965  46.850  53.421  0.00  0.00    -0.061 C 
ATOM     12  H1  1LG d   1      11.812  47.517  55.518  0.00  0.00     0.040 H 
ATOM     13  H2  1LG d   1      11.658  45.929  56.344  0.00  0.00     0.040 H 
ATOM     14  H3  1LG d   1      10.457  45.266  52.011  0.00  0.00     0.040 H 
ATOM     15  H4  1LG d   1      11.179  46.861  51.614  0.00  0.00     0.040 H 
ATOM     16  H7  1LG d   1       9.457  46.945  55.544  0.00  0.00     0.033 H 
ATOM     17  H8  1LG d   1       9.788  45.287  54.938  0.00  0.00     0.033 H 
ATOM     18  H10 1LG d   1       8.937  46.659  53.081  0.00  0.00     0.033 H 
ATOM     19  H11 1LG d   1      10.161  47.932  53.408  0.00  0.00     0.033 H 
ENDROOT
BRANCH   2  20
ATOM     20  N10 1LG d   1      15.932  44.328  53.917  0.00  0.00    -0.316 N 
ATOM     21  C13 1LG d   1      16.572  43.739  52.874  0.00  0.00     0.258 C 
ATOM     22  O15 1LG d   1      16.051  43.629  51.745  0.00  0.00    -0.267 OA
ATOM     23  H9  1LG d   1      16.407  44.389  54.795  0.00  0.00     0.169 HD
BRANCH  21  24
ATOM     24  C14 1LG d   1      17.955  43.262  53.086  0.00  0.00     0.055 A 
ATOM     25  C17 1LG d   1      18.342  42.317  54.108  0.00  0.00     0.051 A 
ATOM     26  C19 1LG d   1      19.722  41.952  54.228  0.00  0.00    -0.038 A 
ATOM     27 CL20 1LG d   1      17.192  41.623  55.202  0.00  0.00    -0.083 Cl
ATOM     28  C22 1LG d   1      20.691  42.510  53.339  0.00  0.00     0.058 A 
ATOM     29  H13 1LG d   1      20.032  41.251  54.995  0.00  0.00     0.088 H 
ATOM     30  C18 1LG d   1      20.271  43.433  52.330  0.00  0.00     0.097 A 
ATOM     31 CL26 1LG d   1      22.377  42.070  53.487  0.00  0.00    -0.083 Cl
ATOM     32  C16 1LG d   1      18.926  43.792  52.217  0.00  0.00    -0.042 A 
ATOM     33  H12 1LG d   1      18.625  44.492  51.446  0.00  0.00     0.087 H 
BRANCH  30  34
ATOM     34  S21 1LG d   1      21.462  44.165  51.155  0.00  0.00     0.245 S 
ATOM     35  O24 1LG d   1      22.351  45.041  51.871  0.00  0.00    -0.206 OA
ATOM     36  O25 1LG d   1      20.771  44.886  50.130  0.00  0.00    -0.206 OA
BRANCH  34  37
ATOM     37  N23 1LG d   1      22.391  42.851  50.471  0.00  0.00    -0.202 NA
ATOM     38  C28 1LG d   1      23.407  43.385  49.531  0.00  0.00     0.013 C 
ATOM     39  C30 1LG d   1      24.235  42.225  48.922  0.00  0.00     0.031 C 
ATOM     40  H5  1LG d   1      24.080  44.067  50.072  0.00  0.00     0.060 H 
ATOM     41  H6  1LG d   1      22.901  43.934  48.723  0.00  0.00     0.060 H 
ATOM     42  O31 1LG d   1      23.739  40.941  49.377  0.00  0.00    -0.389 OA
ATOM     43  H18 1LG d   1      25.286  42.334  49.227  0.00  0.00     0.076 H 
ATOM     44  H19 1LG d   1      24.165  42.270  47.825  0.00  0.00     0.076 H 
ATOM     45  C29 1LG d   1      22.317  40.751  49.159  0.00  0.00     0.031 C 
ATOM     46  C27 1LG d   1      21.489  41.918  49.751  0.00  0.00     0.013 C 
ATOM     47  H16 1LG d   1      22.127  40.691  48.077  0.00  0.00     0.076 H 
ATOM     48  H17 1LG d   1      22.005  39.812  49.639  0.00  0.00     0.076 H 
ATOM     49  H14 1LG d   1      20.980  42.455  48.938  0.00  0.00     0.060 H 
ATOM     50  H15 1LG d   1      20.741  41.518  50.451  0.00  0.00     0.060 H 
ENDBRANCH  34  37
ENDBRANCH  30  34
ENDBRANCH  21  24
ENDBRANCH   2  20
TORSDOF 4
