REMARK  8 active torsions:
REMARK  status: ('A' for Active; 'I' for Inactive)
REMARK    1  A    between atoms: N10_16  and  C7_3 
REMARK    2  A    between atoms: C13_5  and  C12_18 
REMARK    3  A    between atoms: S20_23  and  C17_7 
REMARK    4  A    between atoms: C26_9  and  C28_10 
REMARK    5  A    between atoms: N22_24  and  C26_9 
REMARK       I    between atoms: C12_18  and  N10_16 
REMARK    6  A    between atoms: S20_23  and  N22_24 
REMARK    7  A    between atoms: N22_24  and  C25_27 
REMARK    8  A    between atoms: C25_27  and  C27_28 
ROOT
ATOM      1  C4  2LG d   1      11.986  46.545  55.912  0.00  0.00    -0.038 C 
ATOM      2  C6  2LG d   1      11.476  46.445  53.605  0.00  0.00    -0.034 C 
ATOM      3  C7  2LG d   1      15.122  44.726  54.592  0.00  0.00     0.098 A 
ATOM      4  C8  2LG d   1      14.840  45.257  56.968  0.00  0.00     0.103 C 
ATOM      5  C1  2LG d   1      13.101  45.860  55.174  0.00  0.00    -0.021 A 
ATOM      6  C2  2LG d   1      12.812  45.803  53.872  0.00  0.00    -0.007 A 
ATOM      7  C3  2LG d   1      14.391  45.264  55.581  0.00  0.00     0.085 A 
ATOM      8  S5  2LG d   1      14.181  44.982  53.121  0.00  0.00    -0.075 SA
ATOM      9  C9  2LG d   1      10.781  46.457  54.966  0.00  0.00    -0.057 C 
ATOM     10  N11 2LG d   1      15.205  45.259  58.075  0.00  0.00    -0.191 NA
ATOM     11  H1  2LG d   1      12.243  47.595  56.116  0.00  0.00     0.040 H 
ATOM     12  H2  2LG d   1      11.774  46.029  56.860  0.00  0.00     0.040 H 
ATOM     13  H3  2LG d   1      10.899  45.855  52.878  0.00  0.00     0.041 H 
ATOM     14  H4  2LG d   1      11.605  47.469  53.225  0.00  0.00     0.041 H 
ATOM     15  H12 2LG d   1      10.119  47.329  55.073  0.00  0.00     0.033 H 
ATOM     16  H13 2LG d   1      10.204  45.536  55.132  0.00  0.00     0.033 H 
ENDROOT
BRANCH   3  17
ATOM     17  N10 2LG d   1      16.343  44.109  54.705  0.00  0.00    -0.316 N 
ATOM     18  C12 2LG d   1      16.890  43.368  53.730  0.00  0.00     0.258 C 
ATOM     19  O14 2LG d   1      16.329  43.197  52.652  0.00  0.00    -0.267 OA
ATOM     20  H14 2LG d   1      16.851  44.218  55.559  0.00  0.00     0.169 HD
BRANCH  18  21
ATOM     21  C13 2LG d   1      18.225  42.795  53.937  0.00  0.00     0.055 A 
ATOM     22  C15 2LG d   1      19.260  43.319  53.150  0.00  0.00    -0.044 A 
ATOM     23  C17 2LG d   1      20.575  42.851  53.270  0.00  0.00     0.075 A 
ATOM     24  H5  2LG d   1      19.038  44.102  52.434  0.00  0.00     0.087 H 
ATOM     25  C21 2LG d   1      20.888  41.825  54.198  0.00  0.00    -0.059 A 
ATOM     26  C18 2LG d   1      19.852  41.273  55.012  0.00  0.00    -0.059 A 
ATOM     27  H6  2LG d   1      21.906  41.462  54.289  0.00  0.00     0.085 H 
ATOM     28  C16 2LG d   1      18.508  41.751  54.895  0.00  0.00     0.049 A 
ATOM     29  H15 2LG d   1      20.085  40.488  55.722  0.00  0.00     0.086 H 
ATOM     30 CL19 2LG d   1      17.265  41.063  55.915  0.00  0.00    -0.083 Cl
BRANCH  23  31
ATOM     31  S20 2LG d   1      21.840  43.626  52.204  0.00  0.00     0.243 S 
ATOM     32  O23 2LG d   1      22.555  44.590  52.976  0.00  0.00    -0.206 OA
ATOM     33  O24 2LG d   1      21.195  44.307  51.116  0.00  0.00    -0.206 OA
BRANCH  31  34
ATOM     34  N22 2LG d   1      23.015  42.459  51.602  0.00  0.00    -0.207 NA
BRANCH  34  35
ATOM     35  C26 2LG d   1      22.322  41.353  50.797  0.00  0.00    -0.010 C 
ATOM     36  H7  2LG d   1      23.090  40.645  50.454  0.00  0.00     0.056 H 
ATOM     37  H8  2LG d   1      21.616  40.834  51.462  0.00  0.00     0.056 H 
BRANCH  35  38
ATOM     38  C28 2LG d   1      21.547  41.852  49.570  0.00  0.00    -0.064 C 
ATOM     39  H9  2LG d   1      21.085  40.997  49.055  0.00  0.00     0.029 H 
ATOM     40  H10 2LG d   1      22.237  42.364  48.883  0.00  0.00     0.029 H 
ATOM     41  H11 2LG d   1      20.763  42.553  49.892  0.00  0.00     0.029 H 
ENDBRANCH  35  38
ENDBRANCH  34  35
BRANCH  34  42
ATOM     42  C25 2LG d   1      23.989  43.238  50.745  0.00  0.00    -0.010 C 
ATOM     43  H16 2LG d   1      24.450  44.020  51.366  0.00  0.00     0.056 H 
ATOM     44  H17 2LG d   1      23.430  43.706  49.921  0.00  0.00     0.056 H 
BRANCH  42  45
ATOM     45  C27 2LG d   1      25.108  42.372  50.143  0.00  0.00    -0.064 C 
ATOM     46  H18 2LG d   1      25.774  43.003  49.536  0.00  0.00     0.029 H 
ATOM     47  H19 2LG d   1      24.665  41.590  49.509  0.00  0.00     0.029 H 
ATOM     48  H20 2LG d   1      25.686  41.904  50.954  0.00  0.00     0.029 H 
ENDBRANCH  42  45
ENDBRANCH  34  42
ENDBRANCH  31  34
ENDBRANCH  23  31
ENDBRANCH  18  21
ENDBRANCH   3  17
TORSDOF 8
