REMARK  4 active torsions:
REMARK  status: ('A' for Active; 'I' for Inactive)
REMARK    1  A    between atoms: C3_3  and  O3_4 
REMARK    2  A    between atoms: C10_11  and  C19_21 
REMARK    3  A    between atoms: C13_14  and  C18_20 
REMARK    4  A    between atoms: C17_18  and  O17_19 
ROOT
ATOM      1  C1  TES d   1      26.961   5.275   4.748  0.00  0.00    -0.052 C 
ATOM      2  C2  TES d   1      26.087   6.515   5.050  0.00  0.00    -0.037 C 
ATOM      3  C3  TES d   1      24.714   6.380   4.455  0.00  0.00     0.052 C 
ATOM      4  C4  TES d   1      24.125   5.047   4.457  0.00  0.00    -0.073 C 
ATOM      5  C5  TES d   1      24.808   3.909   4.803  0.00  0.00    -0.072 C 
ATOM      6  C6  TES d   1      24.089   2.569   4.790  0.00  0.00    -0.043 C 
ATOM      7  C7  TES d   1      24.877   1.474   4.059  0.00  0.00    -0.058 C 
ATOM      8  C8  TES d   1      26.306   1.363   4.667  0.00  0.00    -0.045 C 
ATOM      9  C9  TES d   1      27.068   2.720   4.565  0.00  0.00    -0.040 C 
ATOM     10  C10 TES d   1      26.323   3.925   5.244  0.00  0.00    -0.017 C 
ATOM     11  C11 TES d   1      28.555   2.700   5.098  0.00  0.00    -0.060 C 
ATOM     12  C12 TES d   1      29.337   1.534   4.449  0.00  0.00    -0.055 C 
ATOM     13  C13 TES d   1      28.617   0.164   4.602  0.00  0.00    -0.014 C 
ATOM     14  C14 TES d   1      27.190   0.297   3.973  0.00  0.00    -0.041 C 
ATOM     15  C15 TES d   1      26.668  -1.163   3.894  0.00  0.00    -0.058 C 
ATOM     16  C16 TES d   1      27.950  -1.999   3.669  0.00  0.00    -0.040 C 
ATOM     17  C17 TES d   1      29.127  -0.985   3.684  0.00  0.00     0.043 C 
ATOM     18  H1  TES d   1      27.934   5.404   5.245  0.00  0.00     0.034 H 
ATOM     19  H2  TES d   1      27.111   5.211   3.660  0.00  0.00     0.034 H 
ATOM     20  H3  TES d   1      26.573   7.407   4.627  0.00  0.00     0.037 H 
ATOM     21  H4  TES d   1      25.994   6.630   6.140  0.00  0.00     0.037 H 
ATOM     22  H5  TES d   1      24.265   6.594   5.436  0.00  0.00     0.089 H 
ATOM     23  H7  TES d   1      23.080   4.949   4.166  0.00  0.00     0.081 H 
ATOM     24  H8  TES d   1      23.118   2.697   4.288  0.00  0.00     0.039 H 
ATOM     25  H9  TES d   1      23.925   2.249   5.830  0.00  0.00     0.039 H 
ATOM     26  H10 TES d   1      24.952   1.728   2.991  0.00  0.00     0.034 H 
ATOM     27  H11 TES d   1      24.356   0.512   4.171  0.00  0.00     0.034 H 
ATOM     28  H12 TES d   1      26.198   1.091   5.728  0.00  0.00     0.041 H 
ATOM     29  H13 TES d   1      27.123   2.945   3.490  0.00  0.00     0.042 H 
ATOM     30  H14 TES d   1      28.548   2.570   6.190  0.00  0.00     0.033 H 
ATOM     31  H15 TES d   1      29.045   3.652   4.845  0.00  0.00     0.033 H 
ATOM     32  H16 TES d   1      30.326   1.466   4.926  0.00  0.00     0.034 H 
ATOM     33  H17 TES d   1      29.461   1.748   3.377  0.00  0.00     0.034 H 
ATOM     34  H18 TES d   1      27.308   0.650   2.938  0.00  0.00     0.042 H 
ATOM     35  H19 TES d   1      25.968  -1.284   3.054  0.00  0.00     0.033 H 
ATOM     36  H20 TES d   1      26.170  -1.453   4.831  0.00  0.00     0.033 H 
ATOM     37  H21 TES d   1      27.904  -2.517   2.700  0.00  0.00     0.036 H 
ATOM     38  H22 TES d   1      28.071  -2.738   4.475  0.00  0.00     0.036 H 
ATOM     39  H23 TES d   1      29.326  -0.608   2.670  0.00  0.00     0.084 H 
ENDROOT
BRANCH  10  40
ATOM     40  C19 TES d   1      26.344   3.846   6.798  0.00  0.00    -0.065 C 
ATOM     41  H28 TES d   1      25.810   4.712   7.216  0.00  0.00     0.028 H 
ATOM     42  H29 TES d   1      27.386   3.852   7.151  0.00  0.00     0.028 H 
ATOM     43  H30 TES d   1      25.851   2.918   7.125  0.00  0.00     0.028 H 
ENDBRANCH  10  40
BRANCH   3  44
ATOM     44  O3  TES d   1      24.044   7.406   3.939  0.00  0.00    -0.392 OA
ATOM     45  H6  TES d   1      23.912   8.066   4.610  0.00  0.00     0.210 HD
ENDBRANCH   3  44
BRANCH  13  46
ATOM     46  C18 TES d   1      28.587  -0.273   6.120  0.00  0.00    -0.066 C 
ATOM     47  H25 TES d   1      28.222   0.563   6.735  0.00  0.00     0.028 H 
ATOM     48  H26 TES d   1      29.602  -0.550   6.442  0.00  0.00     0.028 H 
ATOM     49  H27 TES d   1      27.916  -1.136   6.240  0.00  0.00     0.028 H 
ENDBRANCH  13  46
BRANCH  17  50
ATOM     50  O17 TES d   1      30.327  -1.590   4.206  0.00  0.00    -0.395 OA
ATOM     51  H24 TES d   1      31.029  -0.950   4.204  0.00  0.00     0.210 HD
ENDBRANCH  17  50
TORSDOF 4
