REMARK  3 active torsions:
REMARK  status: ('A' for Active; 'I' for Inactive)
REMARK    1  A    between atoms: C10_11  and  C19_21 
REMARK    2  A    between atoms: C13_14  and  C18_20 
REMARK    3  A    between atoms: C17_18  and  O17_19 
ROOT
ATOM      1  C1  DHT d   1      27.333   5.146   4.391  0.00  0.00    -0.051 C 
ATOM      2  C2  DHT d   1      26.429   6.316   4.843  0.00  0.00    -0.009 C 
ATOM      3  C3  DHT d   1      24.996   6.070   4.217  0.00  0.00     0.127 C 
ATOM      4  O3  DHT d   1      24.607   7.027   3.542  0.00  0.00    -0.298 OA
ATOM      5  C4  DHT d   1      24.457   4.947   4.470  0.00  0.00    -0.006 C 
ATOM      6  C5  DHT d   1      25.298   3.711   3.991  0.00  0.00    -0.041 C 
ATOM      7  C6  DHT d   1      24.602   2.330   4.266  0.00  0.00    -0.060 C 
ATOM      8  C7  DHT d   1      25.489   1.178   3.736  0.00  0.00    -0.061 C 
ATOM      9  C8  DHT d   1      26.903   1.155   4.418  0.00  0.00    -0.046 C 
ATOM     10  C9  DHT d   1      27.595   2.546   4.176  0.00  0.00    -0.043 C 
ATOM     11  C10 DHT d   1      26.723   3.762   4.709  0.00  0.00    -0.036 C 
ATOM     12  C11 DHT d   1      29.014   2.494   4.830  0.00  0.00    -0.060 C 
ATOM     13  C12 DHT d   1      29.930   1.352   4.399  0.00  0.00    -0.055 C 
ATOM     14  C13 DHT d   1      29.243  -0.037   4.508  0.00  0.00    -0.014 C 
ATOM     15  C14 DHT d   1      27.819   0.036   3.848  0.00  0.00    -0.041 C 
ATOM     16  C15 DHT d   1      27.337  -1.425   3.977  0.00  0.00    -0.058 C 
ATOM     17  C16 DHT d   1      28.619  -2.223   3.590  0.00  0.00    -0.040 C 
ATOM     18  C17 DHT d   1      29.778  -1.191   3.680  0.00  0.00     0.043 C 
ATOM     19  H1  DHT d   1      28.301   5.230   4.906  0.00  0.00     0.034 H 
ATOM     20  H2  DHT d   1      27.488   5.221   3.305  0.00  0.00     0.034 H 
ATOM     21  H3  DHT d   1      26.839   7.271   4.481  0.00  0.00     0.044 H 
ATOM     22  H4  DHT d   1      26.362   6.338   5.941  0.00  0.00     0.044 H 
ATOM     23  H5  DHT d   1      23.478   4.913   3.970  0.00  0.00     0.044 H 
ATOM     24  H6  DHT d   1      24.316   4.869   5.558  0.00  0.00     0.044 H 
ATOM     25  H7  DHT d   1      25.446   3.800   2.905  0.00  0.00     0.041 H 
ATOM     26  H8  DHT d   1      23.628   2.304   3.756  0.00  0.00     0.033 H 
ATOM     27  H9  DHT d   1      24.452   2.206   5.349  0.00  0.00     0.033 H 
ATOM     28  H10 DHT d   1      25.621   1.303   2.651  0.00  0.00     0.033 H 
ATOM     29  H11 DHT d   1      24.984   0.222   3.936  0.00  0.00     0.033 H 
ATOM     30  H12 DHT d   1      26.774   0.991   5.498  0.00  0.00     0.041 H 
ATOM     31  H13 DHT d   1      27.721   2.684   3.092  0.00  0.00     0.041 H 
ATOM     32  H14 DHT d   1      28.876   2.417   5.918  0.00  0.00     0.033 H 
ATOM     33  H15 DHT d   1      29.525   3.438   4.591  0.00  0.00     0.033 H 
ATOM     34  H16 DHT d   1      30.823   1.355   5.041  0.00  0.00     0.034 H 
ATOM     35  H17 DHT d   1      30.230   1.516   3.353  0.00  0.00     0.034 H 
ATOM     36  H18 DHT d   1      27.936   0.264   2.778  0.00  0.00     0.042 H 
ATOM     37  H19 DHT d   1      26.510  -1.636   3.283  0.00  0.00     0.033 H 
ATOM     38  H20 DHT d   1      27.020  -1.652   5.005  0.00  0.00     0.033 H 
ATOM     39  H21 DHT d   1      28.533  -2.620   2.568  0.00  0.00     0.036 H 
ATOM     40  H22 DHT d   1      28.785  -3.053   4.293  0.00  0.00     0.036 H 
ATOM     41  H23 DHT d   1      30.044  -0.829   2.676  0.00  0.00     0.084 H 
ENDROOT
BRANCH  11  42
ATOM     42  C19 DHT d   1      26.561   3.623   6.279  0.00  0.00    -0.068 C 
ATOM     43  H28 DHT d   1      25.958   4.460   6.661  0.00  0.00     0.028 H 
ATOM     44  H29 DHT d   1      27.553   3.640   6.753  0.00  0.00     0.028 H 
ATOM     45  H30 DHT d   1      26.059   2.673   6.513  0.00  0.00     0.028 H 
ENDBRANCH  11  42
BRANCH  14  46
ATOM     46  C18 DHT d   1      29.164  -0.442   6.035  0.00  0.00    -0.066 C 
ATOM     47  H25 DHT d   1      28.775   0.405   6.619  0.00  0.00     0.028 H 
ATOM     48  H26 DHT d   1      30.169  -0.706   6.397  0.00  0.00     0.028 H 
ATOM     49  H27 DHT d   1      28.494  -1.306   6.151  0.00  0.00     0.028 H 
ENDBRANCH  14  46
BRANCH  18  50
ATOM     50  O17 DHT d   1      30.926  -1.817   4.264  0.00  0.00    -0.395 OA
ATOM     51  H24 DHT d   1      31.635  -1.187   4.319  0.00  0.00     0.210 HD
ENDBRANCH  18  50
TORSDOF 3
