REMARK  11 active torsions:
REMARK  status: ('A' for Active; 'I' for Inactive)
REMARK    1  A    between atoms: C7_7  and  C1_1 
REMARK    2  A    between atoms: C18_17  and  C8_8 
REMARK    3  A    between atoms: C9_9  and  C14_13 
REMARK    4  A    between atoms: C11_10  and  C15_14 
REMARK    5  A    between atoms: C12_11  and  C13_12 
REMARK    6  A    between atoms: C17_16  and  C16_15 
REMARK    7  A    between atoms: N10_21  and  C17_16 
REMARK    8  A    between atoms: O8_27  and  C18_17 
REMARK    9  A    between atoms: C19_18  and  C20_19 
REMARK   10  A    between atoms: C19_18  and  C21_20 
REMARK   11  A    between atoms: C19_18  and  O8_27 
ROOT
ATOM      1  C7  BIN d   1      27.961   1.757  51.390  0.00  0.00     0.041 C 
ATOM      2  C8  BIN d   1      27.046   0.376  51.415  0.00  0.00     0.053 C 
ATOM      3  C9  BIN d   1      29.999   0.329  50.587  0.00  0.00     0.126 C 
ATOM      4  C11 BIN d   1      27.641  -0.908  51.177  0.00  0.00     0.021 C 
ATOM      5  C12 BIN d   1      29.340   1.658  50.747  0.00  0.00     0.065 C 
ATOM      6  N10 BIN d   1      29.185  -0.910  51.035  0.00  0.00    -0.344 N 
ATOM      7  H5  BIN d   1      27.392   2.461  50.765  0.00  0.00     0.063 H 
ENDROOT
BRANCH   2   8
ATOM      8  C18 BIN d   1      25.496   0.574  51.676  0.00  0.00     0.292 C 
ATOM      9  O8A BIN d   1      24.780  -0.285  52.140  0.00  0.00    -0.259 OA
BRANCH   8  10
ATOM     10  O8  BIN d   1      25.085   1.826  51.337  0.00  0.00    -0.313 OA
BRANCH  10  11
ATOM     11  C19 BIN d   1      23.526   2.167  51.433  0.00  0.00     0.041 C 
ATOM     12  H14 BIN d   1      22.909   1.284  51.210  0.00  0.00     0.083 H 
BRANCH  11  13
ATOM     13  C20 BIN d   1      23.292   2.598  52.907  0.00  0.00    -0.052 C 
ATOM     14  H15 BIN d   1      22.231   2.851  53.051  0.00  0.00     0.030 H 
ATOM     15  H16 BIN d   1      23.912   3.477  53.135  0.00  0.00     0.030 H 
ATOM     16  H17 BIN d   1      23.567   1.771  53.579  0.00  0.00     0.030 H 
ENDBRANCH  11  13
BRANCH  11  17
ATOM     17  C21 BIN d   1      23.269   3.219  50.399  0.00  0.00    -0.052 C 
ATOM     18  H18 BIN d   1      23.465   2.806  49.399  0.00  0.00     0.030 H 
ATOM     19  H19 BIN d   1      23.932   4.078  50.577  0.00  0.00     0.030 H 
ATOM     20  H20 BIN d   1      22.221   3.546  50.461  0.00  0.00     0.030 H 
ENDBRANCH  11  17
ENDBRANCH  10  11
ENDBRANCH   8  10
ENDBRANCH   2   8
BRANCH   1  21
ATOM     21  C1  BIN d   1      28.103   2.437  52.817  0.00  0.00    -0.023 A 
ATOM     22  C2  BIN d   1      27.455   3.822  53.211  0.00  0.00     0.041 A 
ATOM     23  C3  BIN d   1      27.644   4.334  54.616  0.00  0.00    -0.061 A 
ATOM     24 CL2  BIN d   1      26.605   4.826  52.243  0.00  0.00    -0.084 Cl
ATOM     25  C4  BIN d   1      28.483   3.546  55.577  0.00  0.00    -0.081 A 
ATOM     26  H1  BIN d   1      27.178   5.262  54.928  0.00  0.00     0.086 H 
ATOM     27  C5  BIN d   1      29.073   2.363  55.232  0.00  0.00    -0.082 A 
ATOM     28  H2  BIN d   1      28.627   3.929  56.581  0.00  0.00     0.083 H 
ATOM     29  C6  BIN d   1      28.904   1.782  53.895  0.00  0.00    -0.074 A 
ATOM     30  H3  BIN d   1      29.680   1.841  55.963  0.00  0.00     0.083 H 
ATOM     31  H4  BIN d   1      29.383   0.834  53.679  0.00  0.00     0.084 H 
ENDBRANCH   1  21
BRANCH   4  32
ATOM     32  C15 BIN d   1      26.957  -2.280  51.088  0.00  0.00    -0.037 C 
ATOM     33  H6  BIN d   1      25.870  -2.156  51.202  0.00  0.00     0.035 H 
ATOM     34  H7  BIN d   1      27.337  -2.932  51.888  0.00  0.00     0.035 H 
ATOM     35  H8  BIN d   1      27.174  -2.735  50.110  0.00  0.00     0.035 H 
ENDBRANCH   4  32
BRANCH   5  36
ATOM     36  C13 BIN d   1      30.028   3.017  50.377  0.00  0.00     0.208 C 
ATOM     37  O3A BIN d   1      29.343   4.101  50.260  0.00  0.00    -0.644 OA
ATOM     38  O3B BIN d   1      31.244   3.144  50.361  0.00  0.00    -0.644 OA
ENDBRANCH   5  36
BRANCH   6  39
ATOM     39  C17 BIN d   1      29.966  -2.100  51.503  0.00  0.00    -0.003 C 
ATOM     40  H12 BIN d   1      29.360  -2.984  51.255  0.00  0.00     0.064 H 
ATOM     41  H13 BIN d   1      30.893  -2.113  50.911  0.00  0.00     0.064 H 
BRANCH  39  42
ATOM     42  C16 BIN d   1      30.380  -2.262  52.938  0.00  0.00    -0.061 C 
ATOM     43  H9  BIN d   1      30.940  -3.202  53.054  0.00  0.00     0.029 H 
ATOM     44  H10 BIN d   1      29.485  -2.287  53.577  0.00  0.00     0.029 H 
ATOM     45  H11 BIN d   1      31.018  -1.416  53.233  0.00  0.00     0.029 H 
ENDBRANCH  39  42
ENDBRANCH   6  39
BRANCH   3  46
ATOM     46  C14 BIN d   1      31.379   0.220  50.102  0.00  0.00     0.227 C 
ATOM     47  O4A BIN d   1      32.279   0.567  50.911  0.00  0.00    -0.643 OA
ATOM     48  O4B BIN d   1      31.546  -0.146  48.913  0.00  0.00    -0.643 OA
ENDBRANCH   3  46
TORSDOF 11
