REMARK  2 active torsions:
REMARK  status: ('A' for Active; 'I' for Inactive)
REMARK    1  A    between atoms: OAB_1  and  CAL_2 
REMARK    2  A    between atoms: CAK_11  and  NAA_12 
ROOT
ATOM      1  CAL TTL d   1      28.672  45.328  18.197  0.00  0.00     0.088 C 
ATOM      2  CAJ TTL d   1      28.185  44.447  17.044  0.00  0.00    -0.021 A 
ATOM      3  CAF TTL d   1      27.758  45.051  15.865  0.00  0.00    -0.074 A 
ATOM      4  CAD TTL d   1      27.259  44.282  14.820  0.00  0.00    -0.082 A 
ATOM      5  CAC TTL d   1      27.188  42.897  14.958  0.00  0.00    -0.082 A 
ATOM      6  CAE TTL d   1      27.616  42.297  16.135  0.00  0.00    -0.076 A 
ATOM      7  CAI TTL d   1      28.119  43.061  17.185  0.00  0.00    -0.049 A 
ATOM      8  CAG TTL d   1      28.616  42.315  18.427  0.00  0.00    -0.038 C 
ATOM      9  CAH TTL d   1      28.705  43.246  19.636  0.00  0.00    -0.032 C 
ATOM     10  CAK TTL d   1      29.442  44.537  19.262  0.00  0.00     0.129 C 
ATOM     11  H2  TTL d   1      27.790  45.777  18.678  0.00  0.00     0.093 H 
ATOM     12  H3  TTL d   1      27.815  46.129  15.761  0.00  0.00     0.084 H 
ATOM     13  H4  TTL d   1      26.927  44.757  13.904  0.00  0.00     0.083 H 
ATOM     14  H5  TTL d   1      26.800  42.290  14.149  0.00  0.00     0.083 H 
ATOM     15  H6  TTL d   1      27.558  41.219  16.238  0.00  0.00     0.084 H 
ATOM     16  H7  TTL d   1      29.613  41.900  18.220  0.00  0.00     0.040 H 
ATOM     17  H8  TTL d   1      27.918  41.496  18.656  0.00  0.00     0.040 H 
ATOM     18  H9  TTL d   1      29.251  42.739  20.445  0.00  0.00     0.036 H 
ATOM     19  H10 TTL d   1      27.689  43.494  19.978  0.00  0.00     0.036 H 
ATOM     20  H11 TTL d   1      30.431  44.274  18.860  0.00  0.00     0.088 H 
ENDROOT
BRANCH  10  21
ATOM     21  NAA TTL d   1      29.617  45.372  20.456  0.00  0.00    -0.072 N 
ATOM     22  H12 TTL d   1      30.102  46.219  20.205  0.00  0.00     0.274 HD
ATOM     23  H13 TTL d   1      30.155  44.868  21.143  0.00  0.00     0.274 HD
ATOM     24  H14 TTL d   1      28.714  45.603  20.840  0.00  0.00     0.274 HD
ENDBRANCH  10  21
BRANCH   1  25
ATOM     25  OAB TTL d   1      29.499  46.379  17.689  0.00  0.00    -0.389 OA
ATOM     26  H1  TTL d   1      29.798  46.922  18.409  0.00  0.00     0.210 HD
ENDBRANCH   1  25
TORSDOF 2
