REMARK  12 active torsions:
REMARK  status: ('A' for Active; 'I' for Inactive)
REMARK    1  A    between atoms: C1_1  and  C2_2 
REMARK    2  A    between atoms: C2_2  and  N3_3 
REMARK    3  A    between atoms: N3_3  and  C4_4 
REMARK    4  A    between atoms: C4_4  and  C5_5 
REMARK    5  A    between atoms: C4_4  and  C6_6 
REMARK       I    between atoms: C5_5  and  N14_14 
REMARK    6  A    between atoms: C6_6  and  C7_7 
REMARK    7  A    between atoms: N14_14  and  C15_15 
REMARK    8  A    between atoms: C15_15  and  C16_16 
REMARK       I    between atoms: C16_16  and  N18_18 
REMARK    9  A    between atoms: N18_18  and  C19_19 
REMARK   10  A    between atoms: C19_19  and  C20_20 
REMARK   11  A    between atoms: C23_23  and  C28_28 
REMARK   12  A    between atoms: C28_28  and  N29_29 
ROOT
ATOM      1  C15 N12 d   1      17.825  20.398  20.673  0.00  0.00     0.114 C 
ATOM      2  C31 N12 d   1      18.603  20.088  19.384  0.00  0.00    -0.033 C 
ATOM      3  C32 N12 d   1      18.561  21.615  21.275  0.00  0.00    -0.033 C 
ATOM      4  C33 N12 d   1      20.004  20.725  19.531  0.00  0.00    -0.062 C 
ATOM      5  C34 N12 d   1      20.049  21.306  20.971  0.00  0.00    -0.062 C 
ATOM      6  H30 N12 d   1      18.082  20.519  18.517  0.00  0.00     0.037 H 
ATOM      7  H31 N12 d   1      18.696  19.000  19.252  0.00  0.00     0.037 H 
ATOM      8  H32 N12 d   1      18.385  21.687  22.358  0.00  0.00     0.037 H 
ATOM      9  H33 N12 d   1      18.244  22.549  20.789  0.00  0.00     0.037 H 
ATOM     10  H34 N12 d   1      20.142  21.526  18.789  0.00  0.00     0.033 H 
ATOM     11  H35 N12 d   1      20.788  19.964  19.399  0.00  0.00     0.033 H 
ATOM     12  H36 N12 d   1      20.452  20.569  21.681  0.00  0.00     0.033 H 
ATOM     13  H37 N12 d   1      20.657  22.222  21.008  0.00  0.00     0.033 H 
ENDROOT
BRANCH   1  14
ATOM     14  N14 N12 d   1      17.938  19.233  21.589  0.00  0.00    -0.341 N 
ATOM     15  C5  N12 d   1      17.249  19.067  22.761  0.00  0.00     0.249 C 
ATOM     16  O13 N12 d   1      16.449  19.896  23.166  0.00  0.00    -0.271 OA
ATOM     17  H19 N12 d   1      18.573  18.506  21.326  0.00  0.00     0.163 HD
BRANCH  15  18
ATOM     18  C4  N12 d   1      17.501  17.804  23.553  0.00  0.00     0.178 C 
ATOM     19  H5  N12 d   1      18.185  17.156  22.985  0.00  0.00     0.099 H 
BRANCH  18  20
ATOM     20  N3  N12 d   1      16.227  17.114  23.748  0.00  0.00    -0.053 N 
ATOM     21  H3  N12 d   1      16.367  16.439  24.483  0.00  0.00     0.278 HD
ATOM     22  H4  N12 d   1      15.560  17.807  24.051  0.00  0.00     0.278 HD
BRANCH  20  23
ATOM     23  C2  N12 d   1      15.621  16.400  22.620  0.00  0.00     0.161 C 
ATOM     24  H1  N12 d   1      15.621  17.052  21.734  0.00  0.00     0.092 H 
ATOM     25  H2  N12 d   1      16.205  15.492  22.408  0.00  0.00     0.092 H 
BRANCH  23  26
ATOM     26  C1  N12 d   1      14.205  16.015  22.955  0.00  0.00     0.199 C 
ATOM     27  O26 N12 d   1      13.289  16.312  22.189  0.00  0.00    -0.647 OA
ATOM     28  O27 N12 d   1      13.969  15.396  23.985  0.00  0.00    -0.647 OA
ENDBRANCH  23  26
ENDBRANCH  20  23
ENDBRANCH  18  20
BRANCH  18  29
ATOM     29  C6  N12 d   1      18.137  18.114  24.935  0.00  0.00    -0.027 C 
ATOM     30  H6  N12 d   1      18.342  17.165  25.452  0.00  0.00     0.037 H 
ATOM     31  H7  N12 d   1      17.425  18.708  25.527  0.00  0.00     0.037 H 
BRANCH  29  32
ATOM     32  C7  N12 d   1      19.450  18.900  24.805  0.00  0.00    -0.052 C 
ATOM     33  C8  N12 d   1      19.877  19.416  26.192  0.00  0.00    -0.062 C 
ATOM     34  C9  N12 d   1      21.192  20.237  26.083  0.00  0.00    -0.065 C 
ATOM     35  H9  N12 d   1      20.039  18.560  26.863  0.00  0.00     0.033 H 
ATOM     36  H10 N12 d   1      19.082  20.057  26.601  0.00  0.00     0.033 H 
ATOM     37  C10 N12 d   1      22.320  19.387  25.444  0.00  0.00    -0.065 C 
ATOM     38  H11 N12 d   1      21.505  20.553  27.089  0.00  0.00     0.033 H 
ATOM     39  H12 N12 d   1      21.012  21.125  25.459  0.00  0.00     0.033 H 
ATOM     40  C11 N12 d   1      21.872  18.816  24.071  0.00  0.00    -0.065 C 
ATOM     41  H13 N12 d   1      22.568  18.553  26.117  0.00  0.00     0.033 H 
ATOM     42  H14 N12 d   1      23.209  20.018  25.299  0.00  0.00     0.033 H 
ATOM     43  C12 N12 d   1      20.570  17.993  24.229  0.00  0.00    -0.062 C 
ATOM     44  H15 N12 d   1      22.665  18.167  23.672  0.00  0.00     0.033 H 
ATOM     45  H16 N12 d   1      21.693  19.647  23.373  0.00  0.00     0.033 H 
ATOM     46  H17 N12 d   1      20.260  17.606  23.247  0.00  0.00     0.033 H 
ATOM     47  H18 N12 d   1      20.749  17.152  24.915  0.00  0.00     0.033 H 
ATOM     48  H8  N12 d   1      19.294  19.754  24.130  0.00  0.00     0.040 H 
ENDBRANCH  29  32
ENDBRANCH  18  29
ENDBRANCH  15  18
ENDBRANCH   1  14
BRANCH   1  49
ATOM     49  C16 N12 d   1      16.363  20.712  20.324  0.00  0.00     0.246 C 
ATOM     50  O17 N12 d   1      15.627  19.797  19.973  0.00  0.00    -0.271 OA
ATOM     51  N18 N12 d   1      15.872  21.995  20.394  0.00  0.00    -0.355 N 
ATOM     52  H20 N12 d   1      16.477  22.734  20.691  0.00  0.00     0.162 HD
BRANCH  51  53
ATOM     53  C19 N12 d   1      14.463  22.308  20.038  0.00  0.00     0.020 C 
ATOM     54  H21 N12 d   1      14.123  21.582  19.285  0.00  0.00     0.071 H 
ATOM     55  H22 N12 d   1      14.427  23.322  19.613  0.00  0.00     0.071 H 
BRANCH  53  56
ATOM     56  C20 N12 d   1      13.520  22.249  21.225  0.00  0.00    -0.023 A 
ATOM     57  C21 N12 d   1      12.919  21.027  21.614  0.00  0.00    -0.072 A 
ATOM     58  C22 N12 d   1      12.035  21.008  22.718  0.00  0.00    -0.051 A 
ATOM     59  H23 N12 d   1      13.135  20.114  21.070  0.00  0.00     0.084 H 
ATOM     60  C23 N12 d   1      11.757  22.225  23.393  0.00  0.00     0.099 A 
ATOM     61  H24 N12 d   1      11.578  20.080  23.043  0.00  0.00     0.087 H 
ATOM     62  N24 N12 d   1      12.357  23.369  22.989  0.00  0.00    -0.257 NA
ATOM     63  C25 N12 d   1      13.199  23.419  21.944  0.00  0.00     0.011 A 
ATOM     64  H25 N12 d   1      13.636  24.367  21.651  0.00  0.00     0.115 H 
BRANCH  60  65
ATOM     65  C28 N12 d   1      10.821  22.258  24.563  0.00  0.00     0.121 C 
ATOM     66  N30 N12 d   1      10.197  21.155  24.974  0.00  0.00    -0.384 N 
ATOM     67  H28 N12 d   1      10.359  20.261  24.489  0.00  0.00     0.157 HD
ATOM     68  H29 N12 d   1       9.553  21.196  25.777  0.00  0.00     0.157 HD
BRANCH  65  69
ATOM     69  N29 N12 d   1      10.598  23.401  25.203  0.00  0.00    -0.384 N 
ATOM     70  H26 N12 d   1       9.955  23.424  26.007  0.00  0.00     0.157 HD
ATOM     71  H27 N12 d   1      11.068  24.264  24.895  0.00  0.00     0.157 HD
ENDBRANCH  65  69
ENDBRANCH  60  65
ENDBRANCH  53  56
ENDBRANCH  51  53
ENDBRANCH   1  49
TORSDOF 12
