REMARK  15 active torsions:
REMARK  status: ('A' for Active; 'I' for Inactive)
REMARK    1  A    between atoms: C1_1  and  O2_2 
REMARK    2  A    between atoms: C6_6  and  C9_9 
REMARK    3  A    between atoms: C7_7  and  C8_8 
REMARK       I    between atoms: C9_9  and  N11_11 
REMARK    4  A    between atoms: N11_11  and  C12_12 
REMARK    5  A    between atoms: C12_12  and  C13_13 
REMARK    6  A    between atoms: C12_12  and  C20_20 
REMARK    7  A    between atoms: C13_13  and  C14_14 
REMARK    8  A    between atoms: C20_20  and  O21_21 
REMARK    9  A    between atoms: C20_20  and  C22_22 
REMARK       I    between atoms: C22_22  and  N24_24 
REMARK   10  A    between atoms: C27_27  and  C28_28 
REMARK   11  A    between atoms: C27_27  and  C29_29 
REMARK   12  A    between atoms: C30_30  and  C31_31 
REMARK       I    between atoms: C31_31  and  N33_33 
REMARK   13  A    between atoms: N33_33  and  C34_34 
REMARK   14  A    between atoms: C34_34  and  C35_35 
REMARK   15  A    between atoms: C36_36  and  C41_41 
ROOT
ATOM      1  C20 JE2 d   1      57.768  14.676  23.966  0.00  0.00     0.132 C 
ATOM      2  H17 JE2 d   1      58.425  14.149  24.673  0.00  0.00     0.101 H 
ENDROOT
BRANCH   1   3
ATOM      3  C12 JE2 d   1      56.334  14.657  24.456  0.00  0.00     0.048 C 
ATOM      4  H9  JE2 d   1      55.913  13.648  24.333  0.00  0.00     0.077 H 
BRANCH   3   5
ATOM      5  N11 JE2 d   1      56.237  15.098  25.838  0.00  0.00    -0.360 N 
ATOM      6  C9  JE2 d   1      56.246  14.283  26.801  0.00  0.00     0.186 C 
ATOM      7  O10 JE2 d   1      56.367  12.989  26.528  0.00  0.00    -0.172 OA
ATOM      8  H8  JE2 d   1      56.161  16.076  26.031  0.00  0.00     0.162 HD
BRANCH   6   9
ATOM      9  C6  JE2 d   1      56.135  14.800  28.210  0.00  0.00     0.026 A 
ATOM     10  C5  JE2 d   1      55.519  16.013  28.435  0.00  0.00    -0.068 A 
ATOM     11  C4  JE2 d   1      55.372  16.552  29.719  0.00  0.00    -0.079 A 
ATOM     12  H4  JE2 d   1      55.135  16.569  27.588  0.00  0.00     0.085 H 
ATOM     13  C3  JE2 d   1      55.857  15.881  30.812  0.00  0.00    -0.050 A 
ATOM     14  H3  JE2 d   1      54.872  17.505  29.850  0.00  0.00     0.083 H 
ATOM     15  C1  JE2 d   1      56.485  14.661  30.600  0.00  0.00     0.072 A 
ATOM     16  H2  JE2 d   1      55.753  16.290  31.810  0.00  0.00     0.087 H 
ATOM     17  C7  JE2 d   1      56.621  14.134  29.295  0.00  0.00    -0.014 A 
BRANCH  15  18
ATOM     18  O2  JE2 d   1      56.917  14.018  31.750  0.00  0.00    -0.360 OA
ATOM     19  H1  JE2 d   1      56.172  13.847  32.315  0.00  0.00     0.217 HD
ENDBRANCH  15  18
BRANCH  17  20
ATOM     20  C8  JE2 d   1      57.277  12.822  29.063  0.00  0.00    -0.048 C 
ATOM     21  H5  JE2 d   1      57.616  12.407  30.023  0.00  0.00     0.033 H 
ATOM     22  H6  JE2 d   1      58.141  12.957  28.396  0.00  0.00     0.033 H 
ATOM     23  H7  JE2 d   1      56.559  12.130  28.598  0.00  0.00     0.033 H 
ENDBRANCH  17  20
ENDBRANCH   6   9
ENDBRANCH   3   5
BRANCH   3  24
ATOM     24  C13 JE2 d   1      55.522  15.688  23.706  0.00  0.00    -0.019 C 
ATOM     25  H10 JE2 d   1      55.335  15.340  22.680  0.00  0.00     0.043 H 
ATOM     26  H11 JE2 d   1      56.069  16.642  23.675  0.00  0.00     0.043 H 
BRANCH  24  27
ATOM     27  C14 JE2 d   1      54.211  15.874  24.429  0.00  0.00    -0.056 A 
ATOM     28  C15 JE2 d   1      53.290  14.839  24.464  0.00  0.00    -0.077 A 
ATOM     29  C16 JE2 d   1      52.078  15.015  25.101  0.00  0.00    -0.082 A 
ATOM     30  H12 JE2 d   1      53.521  13.891  23.991  0.00  0.00     0.084 H 
ATOM     31  C17 JE2 d   1      51.799  16.219  25.717  0.00  0.00    -0.083 A 
ATOM     32  H13 JE2 d   1      51.349  14.213  25.118  0.00  0.00     0.083 H 
ATOM     33  C18 JE2 d   1      52.702  17.245  25.671  0.00  0.00    -0.082 A 
ATOM     34  H14 JE2 d   1      50.859  16.352  26.240  0.00  0.00     0.083 H 
ATOM     35  C19 JE2 d   1      53.917  17.077  25.034  0.00  0.00    -0.077 A 
ATOM     36  H15 JE2 d   1      52.464  18.195  26.136  0.00  0.00     0.083 H 
ATOM     37  H16 JE2 d   1      54.636  17.888  25.010  0.00  0.00     0.084 H 
ENDBRANCH  24  27
ENDBRANCH   3  24
ENDBRANCH   1   3
BRANCH   1  38
ATOM     38  O21 JE2 d   1      58.203  16.002  23.776  0.00  0.00    -0.384 OA
ATOM     39  H18 JE2 d   1      57.649  16.427  23.131  0.00  0.00     0.210 HD
ENDBRANCH   1  38
BRANCH   1  40
ATOM     40  C22 JE2 d   1      57.782  14.030  22.632  0.00  0.00     0.252 C 
ATOM     41  O23 JE2 d   1      57.849  14.740  21.677  0.00  0.00    -0.270 OA
ATOM     42  N24 JE2 d   1      57.664  12.704  22.567  0.00  0.00    -0.326 N 
ATOM     43  C25 JE2 d   1      57.585  11.825  23.742  0.00  0.00     0.040 C 
ATOM     44  C30 JE2 d   1      57.679  11.909  21.318  0.00  0.00     0.108 C 
ATOM     45  S26 JE2 d   1      58.395  10.374  23.209  0.00  0.00    -0.137 SA
ATOM     46  H19 JE2 d   1      56.538  11.617  24.009  0.00  0.00     0.081 H 
ATOM     47  H20 JE2 d   1      58.102  12.271  24.604  0.00  0.00     0.081 H 
ATOM     48  C27 JE2 d   1      57.625  10.402  21.670  0.00  0.00     0.032 C 
ATOM     49  H27 JE2 d   1      58.635  12.124  20.817  0.00  0.00     0.090 H 
BRANCH  48  50
ATOM     50  C28 JE2 d   1      58.460   9.651  20.649  0.00  0.00    -0.058 C 
ATOM     51  H21 JE2 d   1      57.956   9.678  19.672  0.00  0.00     0.029 H 
ATOM     52  H22 JE2 d   1      58.581   8.606  20.971  0.00  0.00     0.029 H 
ATOM     53  H23 JE2 d   1      59.449  10.125  20.564  0.00  0.00     0.029 H 
ENDBRANCH  48  50
BRANCH  48  54
ATOM     54  C29 JE2 d   1      56.272   9.731  22.010  0.00  0.00    -0.058 C 
ATOM     55  H24 JE2 d   1      55.652   9.675  21.103  0.00  0.00     0.029 H 
ATOM     56  H25 JE2 d   1      55.750  10.325  22.775  0.00  0.00     0.029 H 
ATOM     57  H26 JE2 d   1      56.452   8.716  22.394  0.00  0.00     0.029 H 
ENDBRANCH  48  54
BRANCH  44  58
ATOM     58  C31 JE2 d   1      56.581  12.165  20.314  0.00  0.00     0.242 C 
ATOM     59  O32 JE2 d   1      56.921  12.266  19.118  0.00  0.00    -0.271 OA
ATOM     60  N33 JE2 d   1      55.300  12.166  20.778  0.00  0.00    -0.355 N 
ATOM     61  H28 JE2 d   1      55.136  12.163  21.764  0.00  0.00     0.162 HD
BRANCH  60  62
ATOM     62  C34 JE2 d   1      54.169  12.171  19.867  0.00  0.00     0.019 C 
ATOM     63  H29 JE2 d   1      54.010  11.159  19.467  0.00  0.00     0.071 H 
ATOM     64  H30 JE2 d   1      54.364  12.866  19.037  0.00  0.00     0.071 H 
BRANCH  62  65
ATOM     65  C35 JE2 d   1      52.946  12.615  20.623  0.00  0.00    -0.035 A 
ATOM     66  C36 JE2 d   1      52.339  13.879  20.482  0.00  0.00    -0.054 A 
ATOM     67  C37 JE2 d   1      51.204  14.226  21.209  0.00  0.00    -0.077 A 
ATOM     68  C38 JE2 d   1      50.675  13.315  22.094  0.00  0.00    -0.082 A 
ATOM     69  H31 JE2 d   1      50.744  15.199  21.080  0.00  0.00     0.084 H 
ATOM     70  C39 JE2 d   1      51.257  12.051  22.229  0.00  0.00    -0.082 A 
ATOM     71  H32 JE2 d   1      49.806  13.578  22.687  0.00  0.00     0.083 H 
ATOM     72  C40 JE2 d   1      52.397  11.704  21.505  0.00  0.00    -0.075 A 
ATOM     73  H33 JE2 d   1      50.815  11.330  22.907  0.00  0.00     0.083 H 
ATOM     74  H34 JE2 d   1      52.849  10.727  21.633  0.00  0.00     0.084 H 
BRANCH  66  75
ATOM     75  C41 JE2 d   1      52.882  14.925  19.533  0.00  0.00    -0.051 C 
ATOM     76  H35 JE2 d   1      53.773  14.530  19.023  0.00  0.00     0.033 H 
ATOM     77  H36 JE2 d   1      53.154  15.828  20.099  0.00  0.00     0.033 H 
ATOM     78  H37 JE2 d   1      52.114  15.177  18.787  0.00  0.00     0.033 H 
ENDBRANCH  66  75
ENDBRANCH  62  65
ENDBRANCH  60  62
ENDBRANCH  44  58
ENDBRANCH   1  40
TORSDOF 15
