REMARK  11 active torsions:
REMARK  status: ('A' for Active; 'I' for Inactive)
REMARK    1  A    between atoms: C2_2  and  C8_8 
REMARK    2  A    between atoms: C5_5  and  C7_7 
REMARK    3  A    between atoms: C7_7  and  N11_11 
REMARK    4  A    between atoms: C8_8  and  N9_9 
REMARK       I    between atoms: N11_11  and  C12_12 
REMARK    5  A    between atoms: C12_12  and  C13_13 
REMARK       I    between atoms: N18_18  and  C19_19 
REMARK    6  A    between atoms: C19_19  and  C20_20 
REMARK    7  A    between atoms: C20_20  and  N22_22 
REMARK    8  A    between atoms: C20_20  and  C27_27 
REMARK    9  A    between atoms: N22_22  and  C23_23 
REMARK   10  A    between atoms: C23_23  and  C24_24 
REMARK   11  A    between atoms: C27_27  and  C28_28 
ROOT
ATOM      1  C13 CDO d   1      18.234  21.354  21.066  0.00  0.00     0.091 C 
ATOM      2  C15 CDO d   1      19.338  21.474  19.970  0.00  0.00    -0.036 C 
ATOM      3  C16 CDO d   1      20.428  20.490  20.465  0.00  0.00    -0.048 C 
ATOM      4  C17 CDO d   1      19.590  19.381  21.111  0.00  0.00    -0.001 C 
ATOM      5  N18 CDO d   1      18.421  20.033  21.725  0.00  0.00    -0.337 N 
ATOM      6  C19 CDO d   1      17.631  19.511  22.732  0.00  0.00     0.251 C 
ATOM      7  O21 CDO d   1      16.682  20.143  23.160  0.00  0.00    -0.271 OA
ATOM      8  H11 CDO d   1      18.326  22.169  21.799  0.00  0.00     0.087 H 
ATOM      9  H12 CDO d   1      19.729  22.501  19.913  0.00  0.00     0.036 H 
ATOM     10  H13 CDO d   1      18.952  21.173  18.985  0.00  0.00     0.036 H 
ATOM     11  H14 CDO d   1      21.093  20.967  21.200  0.00  0.00     0.035 H 
ATOM     12  H15 CDO d   1      21.026  20.102  19.627  0.00  0.00     0.035 H 
ATOM     13  H16 CDO d   1      20.180  18.860  21.879  0.00  0.00     0.064 H 
ATOM     14  H17 CDO d   1      19.264  18.660  20.347  0.00  0.00     0.064 H 
ENDROOT
BRANCH   1  15
ATOM     15  C12 CDO d   1      16.877  21.392  20.414  0.00  0.00     0.240 C 
ATOM     16  N11 CDO d   1      16.082  22.469  20.577  0.00  0.00    -0.355 N 
ATOM     17  H10 CDO d   1      16.404  23.243  21.122  0.00  0.00     0.162 HD
ATOM     18  O14 CDO d   1      16.508  20.442  19.756  0.00  0.00    -0.271 OA
BRANCH  16  19
ATOM     19  C7  CDO d   1      14.758  22.518  19.967  0.00  0.00     0.020 C 
ATOM     20  H4  CDO d   1      14.634  23.461  19.415  0.00  0.00     0.071 H 
ATOM     21  H5  CDO d   1      14.631  21.670  19.277  0.00  0.00     0.071 H 
BRANCH  19  22
ATOM     22  C5  CDO d   1      13.748  22.435  21.068  0.00  0.00    -0.023 A 
ATOM     23  C4  CDO d   1      13.360  23.603  21.751  0.00  0.00     0.011 A 
ATOM     24  N3  CDO d   1      12.460  23.539  22.743  0.00  0.00    -0.257 NA
ATOM     25  H2  CDO d   1      13.791  24.558  21.474  0.00  0.00     0.115 H 
ATOM     26  C2  CDO d   1      11.878  22.378  23.119  0.00  0.00     0.099 A 
ATOM     27  C1  CDO d   1      12.224  21.161  22.472  0.00  0.00    -0.051 A 
ATOM     28  C6  CDO d   1      13.169  21.197  21.427  0.00  0.00    -0.072 A 
ATOM     29  H1  CDO d   1      11.771  20.224  22.776  0.00  0.00     0.087 H 
ATOM     30  H3  CDO d   1      13.448  20.288  20.906  0.00  0.00     0.084 H 
BRANCH  26  31
ATOM     31  C8  CDO d   1      10.895  22.398  24.220  0.00  0.00     0.121 C 
ATOM     32  N10 CDO d   1      10.780  23.488  24.969  0.00  0.00    -0.384 N 
ATOM     33  H8  CDO d   1      11.373  24.308  24.779  0.00  0.00     0.157 HD
ATOM     34  H9  CDO d   1      10.097  23.514  25.740  0.00  0.00     0.157 HD
BRANCH  31  35
ATOM     35  N9  CDO d   1      10.126  21.339  24.468  0.00  0.00    -0.384 N 
ATOM     36  H6  CDO d   1       9.444  21.367  25.240  0.00  0.00     0.157 HD
ATOM     37  H7  CDO d   1      10.213  20.492  23.888  0.00  0.00     0.157 HD
ENDBRANCH  31  35
ENDBRANCH  26  31
ENDBRANCH  19  22
ENDBRANCH  16  19
ENDBRANCH   1  15
BRANCH   6  38
ATOM     38  C20 CDO d   1      17.919  18.136  23.322  0.00  0.00     0.179 C 
ATOM     39  H18 CDO d   1      18.639  17.608  22.679  0.00  0.00     0.099 H 
BRANCH  38  40
ATOM     40  N22 CDO d   1      16.668  17.379  23.398  0.00  0.00    -0.053 N 
ATOM     41  H19 CDO d   1      16.037  17.930  23.959  0.00  0.00     0.278 HD
ATOM     42  H20 CDO d   1      16.885  16.521  23.881  0.00  0.00     0.278 HD
BRANCH  40  43
ATOM     43  C23 CDO d   1      15.924  16.998  22.196  0.00  0.00     0.161 C 
ATOM     44  H21 CDO d   1      16.533  16.320  21.580  0.00  0.00     0.092 H 
ATOM     45  H22 CDO d   1      15.672  17.896  21.613  0.00  0.00     0.092 H 
BRANCH  43  46
ATOM     46  C24 CDO d   1      14.661  16.299  22.626  0.00  0.00     0.199 C 
ATOM     47  O25 CDO d   1      14.684  15.528  23.582  0.00  0.00    -0.647 OA
ATOM     48  O26 CDO d   1      13.613  16.504  22.024  0.00  0.00    -0.647 OA
ENDBRANCH  43  46
ENDBRANCH  40  43
ENDBRANCH  38  40
BRANCH  38  49
ATOM     49  C27 CDO d   1      18.493  18.253  24.750  0.00  0.00    -0.026 C 
ATOM     50  H23 CDO d   1      18.564  17.248  25.192  0.00  0.00     0.037 H 
ATOM     51  H24 CDO d   1      17.819  18.875  25.358  0.00  0.00     0.037 H 
BRANCH  49  52
ATOM     52  C28 CDO d   1      19.887  18.893  24.734  0.00  0.00    -0.052 C 
ATOM     53  C29 CDO d   1      20.193  19.514  26.108  0.00  0.00    -0.062 C 
ATOM     54  C30 CDO d   1      21.574  20.229  26.050  0.00  0.00    -0.065 C 
ATOM     55  H26 CDO d   1      20.220  18.723  26.872  0.00  0.00     0.033 H 
ATOM     56  H27 CDO d   1      19.411  20.244  26.364  0.00  0.00     0.033 H 
ATOM     57  C31 CDO d   1      22.687  19.240  25.631  0.00  0.00    -0.065 C 
ATOM     58  H28 CDO d   1      21.810  20.638  27.043  0.00  0.00     0.033 H 
ATOM     59  H29 CDO d   1      21.525  21.049  25.318  0.00  0.00     0.033 H 
ATOM     60  C32 CDO d   1      22.334  18.533  24.299  0.00  0.00    -0.065 C 
ATOM     61  H30 CDO d   1      22.809  18.482  26.419  0.00  0.00     0.033 H 
ATOM     62  H31 CDO d   1      23.630  19.793  25.505  0.00  0.00     0.033 H 
ATOM     63  C33 CDO d   1      20.957  17.837  24.405  0.00  0.00    -0.062 C 
ATOM     64  H32 CDO d   1      23.104  17.780  24.073  0.00  0.00     0.033 H 
ATOM     65  H33 CDO d   1      22.302  19.278  23.491  0.00  0.00     0.033 H 
ATOM     66  H34 CDO d   1      20.714  17.352  23.448  0.00  0.00     0.033 H 
ATOM     67  H35 CDO d   1      20.986  17.081  25.203  0.00  0.00     0.033 H 
ATOM     68  H25 CDO d   1      19.911  19.681  23.967  0.00  0.00     0.040 H 
ENDBRANCH  49  52
ENDBRANCH  38  49
ENDBRANCH   6  38
TORSDOF 11
