REMARK  3 active torsions:
REMARK  status: ('A' for Active; 'I' for Inactive)
REMARK    1  A    between atoms: C13_13  and  C18_18 
REMARK    2  A    between atoms: C17_17  and  C27_19 
REMARK    3  A    between atoms: C17_17  and  O97_21 
ROOT
ATOM      1  C1  R18 d   1      27.223   5.674   3.694  0.00  0.00    -0.034 C 
ATOM      2  C2  R18 d   1      26.353   6.818   4.206  0.00  0.00    -0.002 C 
ATOM      3  C3  R18 d   1      24.896   6.683   3.790  0.00  0.00     0.150 C 
ATOM      4  C4  R18 d   1      24.322   5.358   3.995  0.00  0.00    -0.032 C 
ATOM      5  C5  R18 d   1      25.094   4.228   4.072  0.00  0.00    -0.048 C 
ATOM      6  C6  R18 d   1      24.394   2.869   4.311  0.00  0.00    -0.040 C 
ATOM      7  C7  R18 d   1      25.190   1.715   3.700  0.00  0.00    -0.054 C 
ATOM      8  C8  R18 d   1      26.635   1.709   4.296  0.00  0.00    -0.023 C 
ATOM      9  C9  R18 d   1      27.354   3.098   4.039  0.00  0.00    -0.047 C 
ATOM     10  C10 R18 d   1      26.608   4.259   3.942  0.00  0.00    -0.045 C 
ATOM     11  C11 R18 d   1      28.836   3.062   3.934  0.00  0.00    -0.079 C 
ATOM     12  C12 R18 d   1      29.582   1.928   4.033  0.00  0.00    -0.091 C 
ATOM     13  C13 R18 d   1      28.939   0.540   4.246  0.00  0.00     0.009 C 
ATOM     14  C14 R18 d   1      27.472   0.583   3.692  0.00  0.00    -0.034 C 
ATOM     15  C15 R18 d   1      26.951  -0.869   3.888  0.00  0.00    -0.057 C 
ATOM     16  C16 R18 d   1      28.261  -1.693   3.716  0.00  0.00    -0.035 C 
ATOM     17  C17 R18 d   1      29.443  -0.689   3.444  0.00  0.00     0.065 C 
ATOM     18  O83 R18 d   1      24.240   7.620   3.344  0.00  0.00    -0.293 OA
ATOM     19  H1  R18 d   1      28.197   5.723   4.203  0.00  0.00     0.040 H 
ATOM     20  H2  R18 d   1      27.368   5.805   2.611  0.00  0.00     0.040 H 
ATOM     21  H3  R18 d   1      26.746   7.764   3.807  0.00  0.00     0.045 H 
ATOM     22  H4  R18 d   1      26.405   6.834   5.305  0.00  0.00     0.045 H 
ATOM     23  H5  R18 d   1      23.241   5.263   4.090  0.00  0.00     0.089 H 
ATOM     24  H6  R18 d   1      23.394   2.896   3.853  0.00  0.00     0.040 H 
ATOM     25  H7  R18 d   1      24.297   2.702   5.394  0.00  0.00     0.040 H 
ATOM     26  H8  R18 d   1      25.244   1.843   2.609  0.00  0.00     0.034 H 
ATOM     27  H9  R18 d   1      24.693   0.762   3.933  0.00  0.00     0.034 H 
ATOM     28  H10 R18 d   1      26.561   1.547   5.381  0.00  0.00     0.048 H 
ATOM     29  H11 R18 d   1      29.358   4.003   3.767  0.00  0.00     0.083 H 
ATOM     30  H12 R18 d   1      30.666   2.002   3.960  0.00  0.00     0.078 H 
ATOM     31  H13 R18 d   1      27.512   0.781   2.611  0.00  0.00     0.042 H 
ATOM     32  H14 R18 d   1      26.205  -1.135   3.124  0.00  0.00     0.033 H 
ATOM     33  H15 R18 d   1      26.517  -1.009   4.889  0.00  0.00     0.033 H 
ATOM     34  H16 R18 d   1      28.157  -2.384   2.867  0.00  0.00     0.037 H 
ATOM     35  H17 R18 d   1      28.463  -2.266   4.633  0.00  0.00     0.037 H 
ENDROOT
BRANCH  17  36
ATOM     36  C27 R18 d   1      29.548  -0.441   1.937  0.00  0.00    -0.047 C 
ATOM     37  H21 R18 d   1      30.372   0.260   1.737  0.00  0.00     0.031 H 
ATOM     38  H22 R18 d   1      28.604  -0.012   1.569  0.00  0.00     0.031 H 
ATOM     39  H23 R18 d   1      29.743  -1.393   1.421  0.00  0.00     0.031 H 
ENDBRANCH  17  36
BRANCH  17  40
ATOM     40  O97 R18 d   1      30.652  -1.258   3.954  0.00  0.00    -0.389 OA
ATOM     41  H24 R18 d   1      31.373  -0.660   3.796  0.00  0.00     0.210 HD
ENDBRANCH  17  40
BRANCH  13  42
ATOM     42  C18 R18 d   1      28.938   0.276   5.804  0.00  0.00    -0.063 C 
ATOM     43  H18 R18 d   1      28.574   1.172   6.327  0.00  0.00     0.029 H 
ATOM     44  H19 R18 d   1      29.961   0.046   6.138  0.00  0.00     0.029 H 
ATOM     45  H20 R18 d   1      28.278  -0.574   6.031  0.00  0.00     0.029 H 
ENDBRANCH  13  42
TORSDOF 3
