REMARK WARNING: 32 MAX_TORS EXCEEDED!!!
REMARK  40 active torsions:
REMARK  status: ('A' for Active; 'I' for Inactive)
REMARK    1  A    between atoms: N_1  and  CA_2 
REMARK    2  A    between atoms: CA_2  and  C_3 
REMARK    3  A    between atoms: CA_2  and  CB_5 
REMARK       I    between atoms: C_3  and  N_12 
REMARK    4  A    between atoms: CB_5  and  CG_6 
REMARK    5  A    between atoms: CG_6  and  CD_7 
REMARK    6  A    between atoms: CD_7  and  NE_8 
REMARK       I    between atoms: NE_8  and  CZ_9 
REMARK       I    between atoms: CZ_9  and  NH1_10 
REMARK       I    between atoms: CZ_9  and  NH2_11 
REMARK    7  A    between atoms: CA_13  and  C_14 
REMARK       I    between atoms: C_14  and  N_19 
REMARK    8  A    between atoms: N_19  and  CA_20 
REMARK    9  A    between atoms: CA_20  and  C_21 
REMARK       I    between atoms: C_21  and  N_23 
REMARK   10  A    between atoms: N_23  and  CA_24 
REMARK   11  A    between atoms: CA_24  and  C_25 
REMARK   12  A    between atoms: CA_24  and  CB_27 
REMARK       I    between atoms: C_25  and  N_31 
REMARK   13  A    between atoms: CB_27  and  CG_28 
REMARK       I    between atoms: CG_28  and  ND2_30 
REMARK   14  A    between atoms: N_31  and  CA_32 
REMARK   15  A    between atoms: CA_32  and  C_33 
REMARK   16  A    between atoms: CA_32  and  CB_34 
REMARK   17  A    between atoms: C_33  and  N_41 
REMARK   18  A    between atoms: CB_34  and  CG_35 
REMARK   19  A    between atoms: N_41  and  CA_42 
REMARK   20  A    between atoms: CA_42  and  C_43 
REMARK   21  A    between atoms: CA_42  and  CB_45 
REMARK       I    between atoms: C_43  and  N_49 
REMARK   22  A    between atoms: CB_45  and  CG_46 
REMARK   23  A    between atoms: CG_46  and  CD1_47 
REMARK   24  A    between atoms: CG_46  and  CD2_48 
REMARK   25  A    between atoms: N_49  and  CA_50 
REMARK   26  A    between atoms: CA_50  and  C_51 
REMARK   27  A    between atoms: CA_50  and  CB_53 
REMARK       I    between atoms: C_51  and  N_58 
REMARK   28  A    between atoms: CB_53  and  CG_54 
REMARK   29  A    between atoms: CG_54  and  CD_55 
REMARK       I    between atoms: CD_55  and  NE2_57 
REMARK   30  A    between atoms: N_58  and  CA_59 
REMARK   31  A    between atoms: CA_59  and  C_60 
REMARK   32  A    between atoms: CA_59  and  CB_62 
REMARK       I    between atoms: C_60  and  N_64 
REMARK   33  A    between atoms: CB_62  and  OG_63 
REMARK   34  A    between atoms: N_64  and  CA_65 
REMARK   35  A    between atoms: CA_65  and  C_66 
REMARK   36  A    between atoms: CA_65  and  CB_68 
REMARK       I    between atoms: C_66  and  N_75 
REMARK   37  A    between atoms: CB_68  and  CG_69 
REMARK   38  A    between atoms: CG_69  and  CD_70 
REMARK   39  A    between atoms: CD_70  and  NE_71 
REMARK       I    between atoms: NE_71  and  CZ_72 
REMARK       I    between atoms: CZ_72  and  NH1_73 
REMARK   40  A    between atoms: CA_76  and  C_77 
REMARK       I    between atoms: C_77  and  N_82 
ROOT
ATOM      1  CA  LEU d   1      14.517  22.957  16.836  0.00  0.00     0.178 C 
ATOM      2  H45 LEU d   1      13.544  23.415  17.068  0.00  0.00     0.099 H 
ENDROOT
BRANCH   1   3
ATOM      3  N   LEU d   1      15.551  23.876  17.292  0.00  0.00    -0.060 N 
ATOM      4  H43 LEU d   1      16.375  23.653  16.756  0.00  0.00     0.278 HD
ATOM      5  H44 LEU d   1      15.229  24.799  17.045  0.00  0.00     0.278 HD
BRANCH   3   6
ATOM      6  C   FRD d   1      15.958  23.957  18.582  0.00  0.00     0.101 C 
ATOM      7  H34 FRD d   1      15.729  24.981  18.913  0.00  0.00     0.079 H 
ATOM      8  H35 FRD d   1      15.339  23.242  19.145  0.00  0.00     0.079 H 
BRANCH   6   9
ATOM      9  CA  FRD d   1      17.390  23.691  18.992  0.00  0.00     0.039 C 
ATOM     10  H33 FRD d   1      17.665  22.674  18.675  0.00  0.00     0.075 H 
BRANCH   9  11
ATOM     11  N   FRD d   1      18.289  24.645  18.383  0.00  0.00    -0.353 N 
ATOM     12  C   ASN d   1      19.152  24.362  17.440  0.00  0.00     0.241 C 
ATOM     13  O   ASN d   1      19.300  23.239  16.974  0.00  0.00    -0.271 OA
ATOM     14  H32 FRD d   1      18.249  25.591  18.706  0.00  0.00     0.163 HD
BRANCH  12  15
ATOM     15  CA  ASN d   1      19.900  25.545  16.826  0.00  0.00     0.097 C 
ATOM     16  H27 ASN d   1      19.341  26.474  17.010  0.00  0.00     0.088 H 
BRANCH  15  17
ATOM     17  N   ASN d   1      21.240  25.693  17.391  0.00  0.00    -0.346 N 
ATOM     18  C   GLY d   1      21.589  26.791  18.052  0.00  0.00     0.236 C 
ATOM     19  O   GLY d   1      20.810  27.686  18.204  0.00  0.00    -0.272 OA
ATOM     20  H26 ASN d   1      21.905  24.955  17.278  0.00  0.00     0.163 HD
BRANCH  18  21
ATOM     21  CA  GLY d   1      22.956  27.007  18.679  0.00  0.00     0.069 C 
ATOM     22  H24 GLY d   1      23.396  27.923  18.259  0.00  0.00     0.078 H 
ATOM     23  H25 GLY d   1      22.831  27.125  19.765  0.00  0.00     0.078 H 
BRANCH  21  24
ATOM     24  N   GLY d   1      23.837  25.929  18.438  0.00  0.00    -0.351 N 
ATOM     25  C   PRO d   1      24.709  25.345  19.250  0.00  0.00     0.241 C 
ATOM     26  O   PRO d   1      24.983  25.673  20.401  0.00  0.00    -0.271 OA
ATOM     27  H23 GLY d   1      23.797  25.548  17.514  0.00  0.00     0.163 HD
BRANCH  25  28
ATOM     28  CA  PRO d   1      25.462  24.174  18.604  0.00  0.00     0.091 C 
ATOM     29  N   PRO d   1      26.880  24.387  18.931  0.00  0.00    -0.337 N 
ATOM     30  C   ARG d   1      27.455  25.348  18.238  0.00  0.00     0.251 C 
ATOM     31  CD  PRO d   1      27.268  23.454  20.003  0.00  0.00    -0.001 C 
ATOM     32  O   ARG d   1      26.770  26.141  17.540  0.00  0.00    -0.271 OA
ATOM     33  CG  PRO d   1      26.136  22.480  20.147  0.00  0.00    -0.048 C 
ATOM     34  H21 PRO d   1      27.422  24.000  20.945  0.00  0.00     0.064 H 
ATOM     35  H22 PRO d   1      28.193  22.925  19.730  0.00  0.00     0.064 H 
ATOM     36  CB  PRO d   1      25.110  22.803  19.145  0.00  0.00    -0.036 C 
ATOM     37  H19 PRO d   1      26.505  21.457  19.984  0.00  0.00     0.035 H 
ATOM     38  H20 PRO d   1      25.706  22.558  21.156  0.00  0.00     0.035 H 
ATOM     39  H17 PRO d   1      25.121  22.059  18.335  0.00  0.00     0.036 H 
ATOM     40  H18 PRO d   1      24.114  22.822  19.612  0.00  0.00     0.036 H 
ATOM     41  H16 PRO d   1      25.297  24.189  17.517  0.00  0.00     0.087 H 
BRANCH  30  42
ATOM     42  CA  ARG d   1      28.957  25.569  18.158  0.00  0.00     0.176 C 
ATOM     43  H4  ARG d   1      29.212  26.512  18.664  0.00  0.00     0.099 H 
BRANCH  42  44
ATOM     44  N   ARG d   1      29.756  24.505  18.737  0.00  0.00    -0.067 N 
ATOM     45  H1  ARG d   1      30.734  24.730  18.642  0.00  0.00     0.275 HD
ATOM     46  H2  ARG d   1      29.562  23.640  18.257  0.00  0.00     0.275 HD
ATOM     47  H3  ARG d   1      29.527  24.406  19.714  0.00  0.00     0.275 HD
ENDBRANCH  42  44
BRANCH  42  48
ATOM     48  CB  ARG d   1      29.265  25.666  16.662  0.00  0.00    -0.029 C 
ATOM     49  H5  ARG d   1      28.317  25.492  16.132  0.00  0.00     0.036 H 
ATOM     50  H6  ARG d   1      29.969  24.853  16.430  0.00  0.00     0.036 H 
BRANCH  48  51
ATOM     51  CG  ARG d   1      29.856  26.925  16.090  0.00  0.00    -0.047 C 
ATOM     52  H7  ARG d   1      30.916  27.008  16.371  0.00  0.00     0.035 H 
ATOM     53  H8  ARG d   1      29.308  27.804  16.461  0.00  0.00     0.035 H 
BRANCH  51  54
ATOM     54  CD  ARG d   1      29.720  26.821  14.566  0.00  0.00     0.009 C 
ATOM     55  H9  ARG d   1      28.779  26.313  14.309  0.00  0.00     0.064 H 
ATOM     56  H10 ARG d   1      30.567  26.253  14.154  0.00  0.00     0.064 H 
BRANCH  54  57
ATOM     57  NE  ARG d   1      29.718  28.175  14.017  0.00  0.00    -0.227 N 
ATOM     58  CZ  ARG d   1      30.145  28.527  12.814  0.00  0.00     0.665 C 
ATOM     59  NH1 ARG d   1      30.629  27.617  11.946  0.00  0.00    -0.235 N 
ATOM     60  NH2 ARG d   1      30.060  29.828  12.531  0.00  0.00    -0.235 N 
ATOM     61  H12 ARG d   1      30.955  27.915  11.016  0.00  0.00     0.174 HD
ATOM     62  H13 ARG d   1      30.673  26.623  12.213  0.00  0.00     0.174 HD
ATOM     63  H14 ARG d   1      29.682  30.483  13.230  0.00  0.00     0.174 HD
ATOM     64  H15 ARG d   1      30.372  30.177  11.614  0.00  0.00     0.174 HD
ATOM     65  H11 ARG d   1      29.351  28.924  14.621  0.00  0.00     0.177 HD
ENDBRANCH  54  57
ENDBRANCH  51  54
ENDBRANCH  48  51
ENDBRANCH  42  48
ENDBRANCH  30  42
ENDBRANCH  25  28
ENDBRANCH  21  24
ENDBRANCH  18  21
ENDBRANCH  15  17
BRANCH  15  66
ATOM     66  CB  ASN d   1      19.940  25.254  15.322  0.00  0.00     0.036 C 
ATOM     67  H28 ASN d   1      20.483  24.312  15.155  0.00  0.00     0.051 H 
ATOM     68  H29 ASN d   1      20.466  26.076  14.814  0.00  0.00     0.051 H 
BRANCH  66  69
ATOM     69  CG  ASN d   1      18.556  25.128  14.742  0.00  0.00     0.217 C 
ATOM     70  OD1 ASN d   1      17.594  24.478  15.175  0.00  0.00    -0.274 OA
ATOM     71  ND2 ASN d   1      18.401  25.805  13.625  0.00  0.00    -0.370 N 
ATOM     72  H30 ASN d   1      17.520  25.794  13.151  0.00  0.00     0.159 HD
ATOM     73  H31 ASN d   1      19.164  26.331  13.249  0.00  0.00     0.159 HD
ENDBRANCH  66  69
ENDBRANCH  15  66
ENDBRANCH  12  15
ENDBRANCH   9  11
BRANCH   9  74
ATOM     74  CB  FRD d   1      17.559  23.815  20.512  0.00  0.00    -0.021 C 
ATOM     75  H36 FRD d   1      16.926  23.071  21.017  0.00  0.00     0.043 H 
ATOM     76  H37 FRD d   1      17.268  24.825  20.836  0.00  0.00     0.043 H 
BRANCH  74  77
ATOM     77  CG  FRD d   1      19.012  23.567  20.857  0.00  0.00    -0.056 A 
ATOM     78  CD1 FRD d   1      19.835  24.637  21.090  0.00  0.00    -0.077 A 
ATOM     79  CE1 FRD d   1      21.160  24.462  21.423  0.00  0.00    -0.082 A 
ATOM     80  H38 FRD d   1      19.436  25.642  21.011  0.00  0.00     0.084 H 
ATOM     81  CZ  FRD d   1      21.647  23.172  21.510  0.00  0.00    -0.083 A 
ATOM     82  H40 FRD d   1      21.803  25.314  21.612  0.00  0.00     0.083 H 
ATOM     83  CE2 FRD d   1      20.824  22.087  21.269  0.00  0.00    -0.082 A 
ATOM     84  H42 FRD d   1      22.686  23.008  21.770  0.00  0.00     0.083 H 
ATOM     85  CD2 FRD d   1      19.495  22.277  20.959  0.00  0.00    -0.077 A 
ATOM     86  H41 FRD d   1      21.227  21.082  21.324  0.00  0.00     0.083 H 
ATOM     87  H39 FRD d   1      18.840  21.429  20.798  0.00  0.00     0.084 H 
ENDBRANCH  74  77
ENDBRANCH   9  74
ENDBRANCH   6   9
ENDBRANCH   3   6
ENDBRANCH   1   3
BRANCH   1  88
ATOM     88  C   LEU d   1      14.514  21.541  17.361  0.00  0.00     0.249 C 
ATOM     89  O   LEU d   1      15.498  20.824  17.268  0.00  0.00    -0.271 OA
ATOM     90  N   GLN d   1      13.376  21.076  17.856  0.00  0.00    -0.346 N 
ATOM     91  H55 GLN d   1      12.598  21.695  17.961  0.00  0.00     0.163 HD
BRANCH  90  92
ATOM     92  CA  GLN d   1      13.235  19.672  18.252  0.00  0.00     0.090 C 
ATOM     93  H56 GLN d   1      13.977  19.071  17.707  0.00  0.00     0.087 H 
BRANCH  92  94
ATOM     94  C   GLN d   1      11.835  19.209  17.852  0.00  0.00     0.241 C 
ATOM     95  O   GLN d   1      10.862  19.918  18.080  0.00  0.00    -0.271 OA
ATOM     96  N   SER d   1      11.743  17.964  17.394  0.00  0.00    -0.344 N 
ATOM     97  H63 SER d   1      12.566  17.408  17.279  0.00  0.00     0.163 HD
BRANCH  96  98
ATOM     98  CA  SER d   1      10.434  17.413  17.060  0.00  0.00     0.109 C 
ATOM     99  H64 SER d   1       9.661  18.091  17.451  0.00  0.00     0.090 H 
BRANCH  98 100
ATOM    100  C   SER d   1      10.171  16.017  17.607  0.00  0.00     0.243 C 
ATOM    101  O   SER d   1      11.063  15.175  17.606  0.00  0.00    -0.271 OA
ATOM    102  N   ARG d   1       8.927  15.788  18.025  0.00  0.00    -0.346 N 
ATOM    103  H68 ARG d   1       8.319  16.571  18.157  0.00  0.00     0.163 HD
BRANCH 102 104
ATOM    104  CA  ARG d   1       8.412  14.466  18.297  0.00  0.00     0.089 C 
ATOM    105  H69 ARG d   1       8.981  14.015  19.123  0.00  0.00     0.087 H 
BRANCH 104 106
ATOM    106  C   ARG d   1       8.534  13.605  17.041  0.00  0.00     0.243 C 
ATOM    107  O   ARG d   1       8.508  14.143  15.934  0.00  0.00    -0.271 OA
ATOM    108  N   PRO d   1       8.619  12.285  17.124  0.00  0.00    -0.337 N 
ATOM    109  CA  PRO d   1       8.544  11.478  15.915  0.00  0.00     0.091 C 
ATOM    110  CD  PRO d   1       8.747  11.430  18.327  0.00  0.00    -0.001 C 
ATOM    111  CB  PRO d   1       8.476  10.025  16.399  0.00  0.00    -0.036 C 
ATOM    112  H81 PRO d   1       9.415  11.653  15.267  0.00  0.00     0.087 H 
ATOM    113  CG  PRO d   1       8.166  10.130  17.853  0.00  0.00    -0.048 C 
ATOM    114  H82 PRO d   1       9.439   9.518  16.243  0.00  0.00     0.036 H 
ATOM    115  H83 PRO d   1       7.682   9.476  15.871  0.00  0.00     0.036 H 
ATOM    116  H84 PRO d   1       8.621   9.290  18.399  0.00  0.00     0.035 H 
ATOM    117  H85 PRO d   1       7.077  10.122  18.010  0.00  0.00     0.035 H 
ATOM    118  H86 PRO d   1       8.173  11.840  19.171  0.00  0.00     0.064 H 
ATOM    119  H87 PRO d   1       9.800  11.312  18.623  0.00  0.00     0.064 H 
BRANCH 109 120
ATOM    120  C   PRO d   1       7.241  11.763  15.164  0.00  0.00     0.238 C 
ATOM    121  O   PRO d   1       6.297  12.264  15.790  0.00  0.00    -0.271 OA
ATOM    122  N   NH2 d   1       7.240  11.418  13.952  0.00  0.00    -0.368 N 
ATOM    123  H88 NH2 d   1       6.427  11.569  13.390  0.00  0.00     0.159 HD
ATOM    124  H89 NH2 d   1       8.052  10.993  13.552  0.00  0.00     0.159 HD
ENDBRANCH 109 120
ENDBRANCH 104 106
BRANCH 104 125
ATOM    125  CB  ARG d   1       6.918  14.523  18.659  0.00  0.00    -0.036 C 
ATOM    126  H70 ARG d   1       6.745  15.313  19.405  0.00  0.00     0.036 H 
ATOM    127  H71 ARG d   1       6.597  13.554  19.069  0.00  0.00     0.036 H 
BRANCH 125 128
ATOM    128  CG  ARG d   1       6.132  14.832  17.387  0.00  0.00    -0.048 C 
ATOM    129  H72 ARG d   1       6.050  13.901  16.808  0.00  0.00     0.035 H 
ATOM    130  H73 ARG d   1       6.704  15.574  16.810  0.00  0.00     0.035 H 
BRANCH 128 131
ATOM    131  CD  ARG d   1       4.734  15.378  17.586  0.00  0.00     0.009 C 
ATOM    132  H74 ARG d   1       4.038  14.526  17.593  0.00  0.00     0.064 H 
ATOM    133  H75 ARG d   1       4.504  16.033  16.733  0.00  0.00     0.064 H 
BRANCH 131 134
ATOM    134  NE  ARG d   1       4.516  16.141  18.803  0.00  0.00    -0.227 N 
ATOM    135  CZ  ARG d   1       3.891  17.317  18.778  0.00  0.00     0.665 C 
ATOM    136  NH1 ARG d   1       3.712  17.979  19.917  0.00  0.00    -0.235 N 
ATOM    137  NH2 ARG d   1       3.463  17.808  17.624  0.00  0.00    -0.235 N 
ATOM    138  H77 ARG d   1       3.230  18.890  19.913  0.00  0.00     0.174 HD
ATOM    139  H78 ARG d   1       4.055  17.581  20.803  0.00  0.00     0.174 HD
ATOM    140  H79 ARG d   1       3.612  17.279  16.753  0.00  0.00     0.174 HD
ATOM    141  H80 ARG d   1       2.982  18.718  17.598  0.00  0.00     0.174 HD
ATOM    142  H76 ARG d   1       4.851  15.766  19.702  0.00  0.00     0.177 HD
ENDBRANCH 131 134
ENDBRANCH 128 131
ENDBRANCH 125 128
ENDBRANCH 104 125
ENDBRANCH 102 104
ENDBRANCH  98 100
BRANCH  98 143
ATOM    143  CB  SER d   1      10.340  17.341  15.525  0.00  0.00     0.044 C 
ATOM    144  H65 SER d   1      10.319  18.358  15.107  0.00  0.00     0.077 H 
ATOM    145  H66 SER d   1       9.424  16.806  15.234  0.00  0.00     0.077 H 
BRANCH 143 146
ATOM    146  OG  SER d   1      11.479  16.644  15.033  0.00  0.00    -0.398 OA
ATOM    147  H67 SER d   1      11.494  15.767  15.398  0.00  0.00     0.209 HD
ENDBRANCH 143 146
ENDBRANCH  98 143
ENDBRANCH  96  98
ENDBRANCH  92  94
BRANCH  92 148
ATOM    148  CB  GLN d   1      13.481  19.494  19.743  0.00  0.00    -0.030 C 
ATOM    149  H57 GLN d   1      12.762  20.134  20.276  0.00  0.00     0.037 H 
ATOM    150  H58 GLN d   1      14.504  19.839  19.953  0.00  0.00     0.037 H 
BRANCH 148 151
ATOM    151  CG  GLN d   1      13.345  18.064  20.317  0.00  0.00     0.011 C 
ATOM    152  H59 GLN d   1      14.002  17.973  21.194  0.00  0.00     0.047 H 
ATOM    153  H60 GLN d   1      13.659  17.344  19.547  0.00  0.00     0.047 H 
BRANCH 151 154
ATOM    154  CD  GLN d   1      11.925  17.737  20.738  0.00  0.00     0.215 C 
ATOM    155  OE1 GLN d   1      11.127  18.609  21.043  0.00  0.00    -0.274 OA
ATOM    156  NE2 GLN d   1      11.537  16.475  20.683  0.00  0.00    -0.370 N 
ATOM    157  H61 GLN d   1      10.607  16.226  20.953  0.00  0.00     0.159 HD
ATOM    158  H62 GLN d   1      12.173  15.769  20.371  0.00  0.00     0.159 HD
ENDBRANCH 151 154
ENDBRANCH 148 151
ENDBRANCH  92 148
ENDBRANCH  90  92
ENDBRANCH   1  88
BRANCH   1 159
ATOM    159  CB  LEU d   1      14.678  22.769  15.325  0.00  0.00    -0.027 C 
ATOM    160  H46 LEU d   1      15.709  22.455  15.107  0.00  0.00     0.037 H 
ATOM    161  H47 LEU d   1      14.470  23.723  14.818  0.00  0.00     0.037 H 
BRANCH 159 162
ATOM    162  CG  LEU d   1      13.703  21.698  14.808  0.00  0.00    -0.059 C 
ATOM    163  H48 LEU d   1      13.524  20.958  15.602  0.00  0.00     0.038 H 
BRANCH 162 164
ATOM    164  CD1 LEU d   1      12.387  22.359  14.479  0.00  0.00    -0.073 C 
ATOM    165  H49 LEU d   1      11.680  21.603  14.108  0.00  0.00     0.028 H 
ATOM    166  H50 LEU d   1      12.545  23.125  13.705  0.00  0.00     0.028 H 
ATOM    167  H51 LEU d   1      11.977  22.831  15.384  0.00  0.00     0.028 H 
ENDBRANCH 162 164
BRANCH 162 168
ATOM    168  CD2 LEU d   1      14.345  20.990  13.642  0.00  0.00    -0.073 C 
ATOM    169  H52 LEU d   1      15.294  20.538  13.965  0.00  0.00     0.028 H 
ATOM    170  H53 LEU d   1      14.539  21.713  12.836  0.00  0.00     0.028 H 
ATOM    171  H54 LEU d   1      13.671  20.203  13.275  0.00  0.00     0.028 H 
ENDBRANCH 162 168
ENDBRANCH 159 162
ENDBRANCH   1 159
TORSDOF 40
