REMARK WARNING: 32 MAX_TORS EXCEEDED!!!
REMARK  43 active torsions:
REMARK  status: ('A' for Active; 'I' for Inactive)
REMARK    1  A    between atoms: CA_2  and  N_1 
REMARK    2  A    between atoms: CA_2  and  CB_5 
REMARK    3  A    between atoms: C_3  and  CA_2 
REMARK       I    between atoms: N_8  and  C_3 
REMARK    4  A    between atoms: CB_5  and  CG2_7 
REMARK    5  A    between atoms: CB_5  and  CG1_6 
REMARK    6  A    between atoms: CA_9  and  N_8 
REMARK    7  A    between atoms: CA_9  and  CB_12 
REMARK    8  A    between atoms: C_10  and  CA_9 
REMARK       I    between atoms: N_14  and  C_10 
REMARK    9  A    between atoms: CB_12  and  OG_13 
REMARK   10  A    between atoms: CA_15  and  N_14 
REMARK   11  A    between atoms: CA_15  and  CB_18 
REMARK   12  A    between atoms: C_16  and  CA_15 
REMARK       I    between atoms: N_25  and  C_16 
REMARK   13  A    between atoms: CB_18  and  CG_19 
REMARK   14  A    between atoms: CA_26  and  N_25 
REMARK   15  A    between atoms: CA_26  and  CB_29 
REMARK   16  A    between atoms: C_27  and  CA_26 
REMARK       I    between atoms: N_33  and  C_27 
REMARK   17  A    between atoms: CB_29  and  CG_30 
REMARK       I    between atoms: CG_30  and  ND2_32 
REMARK   18  A    between atoms: CA_34  and  N_33 
REMARK   19  A    between atoms: C_35  and  CA_34 
REMARK   20  A    between atoms: CA_34  and  CB_36 
REMARK   21  A    between atoms: C_35  and  N_43 
REMARK   22  A    between atoms: CB_36  and  CG_37 
REMARK   23  A    between atoms: CA_44  and  C_45 
REMARK       I    between atoms: C_45  and  N_50 
REMARK   24  A    between atoms: N_50  and  CA_51 
REMARK   25  A    between atoms: CA_51  and  CB_54 
REMARK   26  A    between atoms: CA_51  and  C_52 
REMARK       I    between atoms: C_52  and  N_59 
REMARK   27  A    between atoms: CB_54  and  CG_55 
REMARK   28  A    between atoms: CG_55  and  CD_56 
REMARK       I    between atoms: CD_56  and  NE2_58 
REMARK   29  A    between atoms: N_59  and  CA_60 
REMARK   30  A    between atoms: CA_60  and  CB_63 
REMARK   31  A    between atoms: CA_60  and  C_61 
REMARK       I    between atoms: C_61  and  N_67 
REMARK   32  A    between atoms: CB_63  and  CG2_65 
REMARK   33  A    between atoms: CB_63  and  CG1_64 
REMARK   34  A    between atoms: CG1_64  and  CD1_66 
REMARK   35  A    between atoms: N_67  and  CA_68 
REMARK   36  A    between atoms: CA_68  and  CB_71 
REMARK   37  A    between atoms: CA_68  and  C_69 
REMARK       I    between atoms: C_69  and  N_74 
REMARK   38  A    between atoms: CB_71  and  CG2_73 
REMARK   39  A    between atoms: CB_71  and  OG1_72 
REMARK   40  A    between atoms: N_74  and  CA_75 
REMARK   41  A    between atoms: CA_75  and  CB_78 
REMARK   42  A    between atoms: CA_75  and  C_76 
REMARK   43  A    between atoms: C_76  and  O1_79 
ROOT
ATOM      1  CA  FRD d   1      17.096  23.744  18.306  0.00  0.00     0.063 C 
ATOM      2  H32 FRD d   1      17.489  22.806  17.887  0.00  0.00     0.079 H 
ENDROOT
BRANCH   1   3
ATOM      3  N   FRD d   1      17.912  24.857  17.846  0.00  0.00    -0.247 NA
ATOM      4  C   ASN d   1      18.758  24.751  16.842  0.00  0.00     0.262 C 
ATOM      5  O   ASN d   1      18.964  23.713  16.164  0.00  0.00    -0.269 OA
BRANCH   4   6
ATOM      6  CA  ASN d   1      19.614  25.965  16.510  0.00  0.00     0.099 C 
ATOM      7  H27 ASN d   1      19.182  26.862  16.977  0.00  0.00     0.088 H 
BRANCH   6   8
ATOM      8  N   ASN d   1      20.958  25.728  17.075  0.00  0.00    -0.345 N 
ATOM      9  C   PHE d   1      21.704  26.687  17.613  0.00  0.00     0.241 C 
ATOM     10  O   PHE d   1      21.242  27.827  17.851  0.00  0.00    -0.271 OA
ATOM     11  H26 ASN d   1      21.325  24.798  17.051  0.00  0.00     0.163 HD
BRANCH   9  12
ATOM     12  CA  PHE d   1      23.172  26.369  17.821  0.00  0.00     0.093 C 
ATOM     13  H18 PHE d   1      23.467  25.548  17.151  0.00  0.00     0.088 H 
BRANCH  12  14
ATOM     14  N   PHE d   1      23.996  27.535  17.501  0.00  0.00    -0.346 N 
ATOM     15  C   SER d   1      24.849  27.543  16.472  0.00  0.00     0.243 C 
ATOM     16  O   SER d   1      25.054  26.507  15.828  0.00  0.00    -0.271 OA
ATOM     17  H17 PHE d   1      23.918  28.353  18.071  0.00  0.00     0.163 HD
BRANCH  15  18
ATOM     18  CA  SER d   1      25.567  28.820  16.104  0.00  0.00     0.109 C 
ATOM     19  H13 SER d   1      25.250  29.611  16.799  0.00  0.00     0.090 H 
BRANCH  18  20
ATOM     20  N   SER d   1      27.020  28.642  16.215  0.00  0.00    -0.344 N 
ATOM     21  C   VAL d   1      27.550  28.520  17.429  0.00  0.00     0.249 C 
ATOM     22  O   VAL d   1      26.943  28.951  18.407  0.00  0.00    -0.271 OA
ATOM     23  H12 SER d   1      27.597  28.613  15.399  0.00  0.00     0.163 HD
BRANCH  21  24
ATOM     24  CA  VAL d   1      28.842  27.750  17.471  0.00  0.00     0.178 C 
ATOM     25  H4  VAL d   1      28.571  26.711  17.710  0.00  0.00     0.099 H 
BRANCH  24  26
ATOM     26  N   VAL d   1      29.492  27.765  16.154  0.00  0.00    -0.066 N 
ATOM     27  H1  VAL d   1      30.355  27.246  16.199  0.00  0.00     0.275 HD
ATOM     28  H2  VAL d   1      29.687  28.717  15.886  0.00  0.00     0.275 HD
ATOM     29  H3  VAL d   1      28.881  27.343  15.473  0.00  0.00     0.275 HD
ENDBRANCH  24  26
BRANCH  24  30
ATOM     30  CB  VAL d   1      29.899  28.182  18.500  0.00  0.00    -0.025 C 
ATOM     31  H5  VAL d   1      30.825  28.419  17.955  0.00  0.00     0.042 H 
BRANCH  30  32
ATOM     32  CG2 VAL d   1      30.150  26.972  19.406  0.00  0.00    -0.071 C 
ATOM     33  H9  VAL d   1      30.406  26.098  18.788  0.00  0.00     0.028 H 
ATOM     34  H10 VAL d   1      29.242  26.756  19.989  0.00  0.00     0.028 H 
ATOM     35  H11 VAL d   1      30.982  27.193  20.091  0.00  0.00     0.028 H 
ENDBRANCH  30  32
BRANCH  30  36
ATOM     36  CG1 VAL d   1      29.545  29.396  19.331  0.00  0.00    -0.071 C 
ATOM     37  H6  VAL d   1      30.366  29.614  20.029  0.00  0.00     0.028 H 
ATOM     38  H7  VAL d   1      28.625  29.196  19.899  0.00  0.00     0.028 H 
ATOM     39  H8  VAL d   1      29.387  30.260  18.669  0.00  0.00     0.028 H 
ENDBRANCH  30  36
ENDBRANCH  24  30
ENDBRANCH  21  24
ENDBRANCH  18  20
BRANCH  18  40
ATOM     40  CB  SER d   1      25.223  29.256  14.663  0.00  0.00     0.044 C 
ATOM     41  H14 SER d   1      25.823  28.662  13.958  0.00  0.00     0.077 H 
ATOM     42  H15 SER d   1      25.468  30.322  14.545  0.00  0.00     0.077 H 
BRANCH  40  43
ATOM     43  OG  SER d   1      23.861  29.067  14.374  0.00  0.00    -0.398 OA
ATOM     44  H16 SER d   1      23.336  29.582  14.976  0.00  0.00     0.209 HD
ENDBRANCH  40  43
ENDBRANCH  18  40
ENDBRANCH  15  18
ENDBRANCH  12  14
BRANCH  12  45
ATOM     45  CB  PHE d   1      23.318  25.904  19.262  0.00  0.00    -0.014 C 
ATOM     46  H19 PHE d   1      22.400  25.375  19.558  0.00  0.00     0.043 H 
ATOM     47  H20 PHE d   1      23.457  26.785  19.906  0.00  0.00     0.043 H 
BRANCH  45  48
ATOM     48  CG  PHE d   1      24.510  24.963  19.451  0.00  0.00    -0.056 A 
ATOM     49  CD1 PHE d   1      24.438  23.618  19.147  0.00  0.00    -0.077 A 
ATOM     50  CE1 PHE d   1      25.526  22.780  19.306  0.00  0.00    -0.082 A 
ATOM     51  H21 PHE d   1      23.506  23.209  18.775  0.00  0.00     0.084 H 
ATOM     52  CZ  PHE d   1      26.721  23.299  19.800  0.00  0.00    -0.083 A 
ATOM     53  H23 PHE d   1      25.450  21.730  19.049  0.00  0.00     0.083 H 
ATOM     54  CE2 PHE d   1      26.789  24.644  20.114  0.00  0.00    -0.082 A 
ATOM     55  H25 PHE d   1      27.584  22.658  19.936  0.00  0.00     0.083 H 
ATOM     56  CD2 PHE d   1      25.715  25.496  19.899  0.00  0.00    -0.077 A 
ATOM     57  H24 PHE d   1      27.703  25.042  20.538  0.00  0.00     0.083 H 
ATOM     58  H22 PHE d   1      25.813  26.561  20.077  0.00  0.00     0.084 H 
ENDBRANCH  45  48
ENDBRANCH  12  45
ENDBRANCH   9  12
ENDBRANCH   6   8
BRANCH   6  59
ATOM     59  CB  ASN d   1      19.641  26.169  14.986  0.00  0.00     0.036 C 
ATOM     60  H28 ASN d   1      18.619  26.319  14.608  0.00  0.00     0.051 H 
ATOM     61  H29 ASN d   1      20.089  25.292  14.496  0.00  0.00     0.051 H 
BRANCH  59  62
ATOM     62  CG  ASN d   1      20.492  27.417  14.709  0.00  0.00     0.217 C 
ATOM     63  ND2 ASN d   1      21.775  27.178  14.386  0.00  0.00    -0.370 N 
ATOM     64  H30 ASN d   1      22.392  27.941  14.191  0.00  0.00     0.159 HD
ATOM     65  H31 ASN d   1      22.112  26.238  14.340  0.00  0.00     0.159 HD
ATOM     66  OD1 ASN d   1      20.038  28.529  14.923  0.00  0.00    -0.274 OA
ENDBRANCH  59  62
ENDBRANCH   6  59
ENDBRANCH   4   6
ENDBRANCH   1   3
BRANCH   1  67
ATOM     67  C   FRD d   1      15.638  23.828  17.977  0.00  0.00     0.105 C 
ATOM     68  H33 FRD d   1      15.300  24.847  18.214  0.00  0.00     0.079 H 
ATOM     69  H34 FRD d   1      15.108  23.107  18.617  0.00  0.00     0.079 H 
BRANCH  67  70
ATOM     70  N   PRO d   1      15.277  23.555  16.627  0.00  0.00    -0.056 N 
ATOM     71  CA  PRO d   1      14.045  22.808  16.359  0.00  0.00     0.180 C 
ATOM     72  CB  PRO d   1      13.873  22.899  14.832  0.00  0.00    -0.028 C 
ATOM     73  H43 PRO d   1      13.196  23.295  16.861  0.00  0.00     0.100 H 
ATOM     74  CG  PRO d   1      15.198  23.304  14.294  0.00  0.00    -0.040 C 
ATOM     75  H44 PRO d   1      13.111  23.651  14.577  0.00  0.00     0.036 H 
ATOM     76  H45 PRO d   1      13.576  21.922  14.422  0.00  0.00     0.036 H 
ATOM     77  CD  PRO d   1      15.849  24.093  15.387  0.00  0.00     0.085 C 
ATOM     78  H46 PRO d   1      15.801  22.417  14.049  0.00  0.00     0.035 H 
ATOM     79  H47 PRO d   1      15.074  23.924  13.394  0.00  0.00     0.035 H 
ATOM     80  H48 PRO d   1      16.940  23.952  15.370  0.00  0.00     0.076 H 
ATOM     81  H49 PRO d   1      15.616  25.163  15.285  0.00  0.00     0.076 H 
ATOM     82  H42 PRO d   1      15.875  22.744  16.608  0.00  0.00     0.281 HD
BRANCH  71  83
ATOM     83  C   PRO d   1      14.126  21.367  16.845  0.00  0.00     0.249 C 
ATOM     84  O   PRO d   1      15.156  20.680  16.790  0.00  0.00    -0.271 OA
ATOM     85  N   GLN d   1      12.981  20.920  17.353  0.00  0.00    -0.346 N 
ATOM     86  H50 GLN d   1      12.180  21.515  17.419  0.00  0.00     0.163 HD
BRANCH  85  87
ATOM     87  CA  GLN d   1      12.926  19.525  17.815  0.00  0.00     0.090 C 
ATOM     88  H51 GLN d   1      13.592  18.917  17.184  0.00  0.00     0.087 H 
BRANCH  87  89
ATOM     89  CB  GLN d   1      13.445  19.462  19.262  0.00  0.00    -0.030 C 
ATOM     90  H52 GLN d   1      12.846  20.166  19.858  0.00  0.00     0.037 H 
ATOM     91  H53 GLN d   1      14.494  19.791  19.250  0.00  0.00     0.037 H 
BRANCH  89  92
ATOM     92  CG  GLN d   1      13.398  18.108  19.970  0.00  0.00     0.011 C 
ATOM     93  H54 GLN d   1      14.174  18.096  20.750  0.00  0.00     0.047 H 
ATOM     94  H55 GLN d   1      13.608  17.321  19.231  0.00  0.00     0.047 H 
BRANCH  92  95
ATOM     95  CD  GLN d   1      12.049  17.809  20.625  0.00  0.00     0.215 C 
ATOM     96  NE2 GLN d   1      11.582  16.590  20.498  0.00  0.00    -0.370 N 
ATOM     97  H56 GLN d   1      10.704  16.346  20.909  0.00  0.00     0.159 HD
ATOM     98  H57 GLN d   1      12.104  15.905  19.990  0.00  0.00     0.159 HD
ATOM     99  OE1 GLN d   1      11.396  18.695  21.142  0.00  0.00    -0.274 OA
ENDBRANCH  92  95
ENDBRANCH  89  92
ENDBRANCH  87  89
BRANCH  87 100
ATOM    100  C   GLN d   1      11.520  18.980  17.669  0.00  0.00     0.241 C 
ATOM    101  O   GLN d   1      10.542  19.588  18.124  0.00  0.00    -0.271 OA
ATOM    102  N   ILE d   1      11.412  17.745  17.186  0.00  0.00    -0.346 N 
ATOM    103  H58 ILE d   1      12.241  17.301  16.846  0.00  0.00     0.163 HD
BRANCH 102 104
ATOM    104  CA  ILE d   1      10.154  16.993  17.120  0.00  0.00     0.092 C 
ATOM    105  H59 ILE d   1       9.436  17.448  17.818  0.00  0.00     0.088 H 
BRANCH 104 106
ATOM    106  CB  ILE d   1       9.571  17.027  15.693  0.00  0.00    -0.030 C 
ATOM    107  H60 ILE d   1       8.608  16.495  15.716  0.00  0.00     0.043 H 
BRANCH 106 108
ATOM    108  CG2 ILE d   1       9.303  18.464  15.289  0.00  0.00    -0.071 C 
ATOM    109  H63 ILE d   1       8.667  18.945  16.047  0.00  0.00     0.028 H 
ATOM    110  H64 ILE d   1       8.791  18.482  14.316  0.00  0.00     0.028 H 
ATOM    111  H65 ILE d   1      10.256  19.007  15.212  0.00  0.00     0.028 H 
ENDBRANCH 106 108
BRANCH 106 112
ATOM    112  CG1 ILE d   1      10.449  16.326  14.668  0.00  0.00    -0.063 C 
ATOM    113  H61 ILE d   1      10.764  15.368  15.107  0.00  0.00     0.033 H 
ATOM    114  H62 ILE d   1      11.331  16.962  14.503  0.00  0.00     0.033 H 
BRANCH 112 115
ATOM    115  CD1 ILE d   1       9.855  16.027  13.322  0.00  0.00    -0.076 C 
ATOM    116  H66 ILE d   1      10.604  15.522  12.694  0.00  0.00     0.027 H 
ATOM    117  H67 ILE d   1       9.546  16.967  12.841  0.00  0.00     0.027 H 
ATOM    118  H68 ILE d   1       8.979  15.373  13.445  0.00  0.00     0.027 H 
ENDBRANCH 112 115
ENDBRANCH 106 112
ENDBRANCH 104 106
BRANCH 104 119
ATOM    119  C   ILE d   1      10.360  15.535  17.494  0.00  0.00     0.241 C 
ATOM    120  O   ILE d   1      11.495  15.081  17.507  0.00  0.00    -0.271 OA
ATOM    121  N   THR d   1       9.303  14.799  17.787  0.00  0.00    -0.344 N 
ATOM    122  H69 THR d   1       8.410  15.239  17.877  0.00  0.00     0.163 HD
BRANCH 121 123
ATOM    123  CA  THR d   1       9.412  13.356  17.982  0.00  0.00     0.113 C 
ATOM    124  H70 THR d   1      10.351  13.126  18.506  0.00  0.00     0.091 H 
BRANCH 123 125
ATOM    125  CB  THR d   1       8.234  12.803  18.799  0.00  0.00     0.060 C 
ATOM    126  H71 THR d   1       7.273  13.083  18.342  0.00  0.00     0.086 H 
BRANCH 125 127
ATOM    127  CG2 THR d   1       8.319  11.290  18.896  0.00  0.00    -0.050 C 
ATOM    128  H73 THR d   1       7.469  10.912  19.483  0.00  0.00     0.031 H 
ATOM    129  H74 THR d   1       9.261  11.007  19.389  0.00  0.00     0.031 H 
ATOM    130  H75 THR d   1       8.289  10.855  17.886  0.00  0.00     0.031 H 
ENDBRANCH 125 127
BRANCH 125 131
ATOM    131  OG1 THR d   1       8.389  13.438  20.080  0.00  0.00    -0.393 OA
ATOM    132  H72 THR d   1       8.329  14.380  19.974  0.00  0.00     0.210 HD
ENDBRANCH 125 131
ENDBRANCH 123 125
BRANCH 123 133
ATOM    133  C   THR d   1       9.418  12.716  16.599  0.00  0.00     0.243 C 
ATOM    134  O   THR d   1       8.490  13.041  15.863  0.00  0.00    -0.271 OA
ATOM    135  N   ALA d   1      10.433  11.904  16.359  0.00  0.00    -0.345 N 
ATOM    136  H76 ALA d   1      11.055  11.687  17.111  0.00  0.00     0.163 HD
BRANCH 135 137
ATOM    137  CA  ALA d   1      10.691  11.312  15.062  0.00  0.00     0.090 C 
ATOM    138  H77 ALA d   1      10.857  12.126  14.341  0.00  0.00     0.088 H 
BRANCH 137 139
ATOM    139  CB  ALA d   1      11.959  10.466  15.122  0.00  0.00    -0.048 C 
ATOM    140  H78 ALA d   1      12.149  10.020  14.135  0.00  0.00     0.030 H 
ATOM    141  H79 ALA d   1      11.832   9.667  15.867  0.00  0.00     0.030 H 
ATOM    142  H80 ALA d   1      12.810  11.101  15.407  0.00  0.00     0.030 H 
ENDBRANCH 137 139
BRANCH 137 143
ATOM    143  C   ALA d   1       9.495  10.495  14.575  0.00  0.00     0.163 C 
ATOM    144  O   ALA d   1       9.343   9.351  15.003  0.00  0.00    -0.648 OA
BRANCH 143 145
ATOM    145  O1  ALA d   1       8.633  11.011  13.704  0.00  0.00    -0.775 OA
ATOM    146  H81 ALA d   1       8.900  11.896  13.482  0.00  0.00     0.167 HD
ENDBRANCH 143 145
ENDBRANCH 137 143
ENDBRANCH 135 137
ENDBRANCH 123 133
ENDBRANCH 121 123
ENDBRANCH 104 119
ENDBRANCH 102 104
ENDBRANCH  87 100
ENDBRANCH  85  87
ENDBRANCH  71  83
ENDBRANCH  67  70
ENDBRANCH   1  67
BRANCH   1 147
ATOM    147  CB  FRD d   1      17.282  23.776  19.848  0.00  0.00    -0.018 C 
ATOM    148  H35 FRD d   1      16.658  22.986  20.292  0.00  0.00     0.043 H 
ATOM    149  H36 FRD d   1      16.951  24.757  20.220  0.00  0.00     0.043 H 
BRANCH 147 150
ATOM    150  CG  FRD d   1      18.717  23.556  20.280  0.00  0.00    -0.056 A 
ATOM    151  CD1 FRD d   1      19.442  24.524  20.953  0.00  0.00    -0.077 A 
ATOM    152  CE1 FRD d   1      20.758  24.322  21.322  0.00  0.00    -0.082 A 
ATOM    153  H37 FRD d   1      18.964  25.466  21.197  0.00  0.00     0.084 H 
ATOM    154  CZ  FRD d   1      21.381  23.126  21.046  0.00  0.00    -0.083 A 
ATOM    155  H39 FRD d   1      21.302  25.109  21.831  0.00  0.00     0.083 H 
ATOM    156  CE2 FRD d   1      20.677  22.149  20.370  0.00  0.00    -0.082 A 
ATOM    157  H41 FRD d   1      22.406  22.954  21.354  0.00  0.00     0.083 H 
ATOM    158  CD2 FRD d   1      19.379  22.366  20.008  0.00  0.00    -0.077 A 
ATOM    159  H40 FRD d   1      21.156  21.208  20.126  0.00  0.00     0.083 H 
ATOM    160  H38 FRD d   1      18.844  21.579  19.488  0.00  0.00     0.084 H 
ENDBRANCH 147 150
ENDBRANCH   1 147
TORSDOF 43
