REMARK WARNING: 32 MAX_TORS EXCEEDED!!!
REMARK  40 active torsions:
REMARK  status: ('A' for Active; 'I' for Inactive)
REMARK    1  A    between atoms: N_1  and  CA_2 
REMARK    2  A    between atoms: CA_2  and  C_3 
REMARK    3  A    between atoms: CA_2  and  CB_5 
REMARK       I    between atoms: C_3  and  N_12 
REMARK    4  A    between atoms: CB_5  and  CG_6 
REMARK    5  A    between atoms: CG_6  and  CD_7 
REMARK    6  A    between atoms: CD_7  and  NE_8 
REMARK       I    between atoms: NE_8  and  CZ_9 
REMARK       I    between atoms: CZ_9  and  NH1_10 
REMARK       I    between atoms: CZ_9  and  NH2_11 
REMARK    7  A    between atoms: CA_13  and  C_14 
REMARK       I    between atoms: C_14  and  N_19 
REMARK    8  A    between atoms: N_19  and  CA_20 
REMARK    9  A    between atoms: CA_20  and  C_21 
REMARK       I    between atoms: C_21  and  N_23 
REMARK   10  A    between atoms: N_23  and  CA_24 
REMARK   11  A    between atoms: CA_24  and  C_25 
REMARK   12  A    between atoms: CA_24  and  CB_27 
REMARK       I    between atoms: C_25  and  N_31 
REMARK   13  A    between atoms: CB_27  and  CG_28 
REMARK       I    between atoms: CG_28  and  ND2_30 
REMARK   14  A    between atoms: N_31  and  CA_32 
REMARK   15  A    between atoms: CA_32  and  C_33 
REMARK   16  A    between atoms: CA_32  and  CB_34 
REMARK   17  A    between atoms: C_33  and  N_41 
REMARK   18  A    between atoms: CB_34  and  CG_35 
REMARK   19  A    between atoms: N_41  and  CA_42 
REMARK   20  A    between atoms: CA_42  and  C_43 
REMARK   21  A    between atoms: CA_42  and  CB_45 
REMARK       I    between atoms: C_43  and  N_49 
REMARK   22  A    between atoms: CB_45  and  CG_46 
REMARK   23  A    between atoms: CG_46  and  CD1_47 
REMARK   24  A    between atoms: CG_46  and  CD2_48 
REMARK   25  A    between atoms: N_49  and  CA_50 
REMARK   26  A    between atoms: CA_50  and  C_51 
REMARK   27  A    between atoms: CA_50  and  CB_53 
REMARK       I    between atoms: C_51  and  N_58 
REMARK   28  A    between atoms: CB_53  and  CG_54 
REMARK   29  A    between atoms: CG_54  and  CD_55 
REMARK       I    between atoms: CD_55  and  NE2_57 
REMARK   30  A    between atoms: N_58  and  CA_59 
REMARK   31  A    between atoms: CA_59  and  C_60 
REMARK   32  A    between atoms: CA_59  and  CB_62 
REMARK       I    between atoms: C_60  and  N_64 
REMARK   33  A    between atoms: CB_62  and  OG_63 
REMARK   34  A    between atoms: N_64  and  CA_65 
REMARK   35  A    between atoms: CA_65  and  C_66 
REMARK   36  A    between atoms: CA_65  and  CB_68 
REMARK       I    between atoms: C_66  and  N_75 
REMARK   37  A    between atoms: CB_68  and  CG_69 
REMARK   38  A    between atoms: CG_69  and  CD_70 
REMARK   39  A    between atoms: CD_70  and  NE_71 
REMARK       I    between atoms: NE_71  and  CZ_72 
REMARK       I    between atoms: CZ_72  and  NH1_73 
REMARK   40  A    between atoms: CA_76  and  C_77 
REMARK       I    between atoms: C_77  and  N_82 
ROOT
ATOM      1  CA  LEU d   1      14.701  22.865  16.894  0.00  0.00     0.178 C 
ATOM      2  H45 LEU d   1      13.715  23.325  17.055  0.00  0.00     0.099 H 
ENDROOT
BRANCH   1   3
ATOM      3  N   LEU d   1      15.715  23.758  17.444  0.00  0.00    -0.060 N 
ATOM      4  H43 LEU d   1      16.575  23.490  16.992  0.00  0.00     0.278 HD
ATOM      5  H44 LEU d   1      15.447  24.680  17.137  0.00  0.00     0.278 HD
BRANCH   3   6
ATOM      6  C   FRD d   1      16.033  23.899  18.752  0.00  0.00     0.101 C 
ATOM      7  H34 FRD d   1      15.734  24.908  19.073  0.00  0.00     0.079 H 
ATOM      8  H35 FRD d   1      15.470  23.149  19.327  0.00  0.00     0.079 H 
BRANCH   6   9
ATOM      9  CA  FRD d   1      17.520  23.720  19.059  0.00  0.00     0.039 C 
ATOM     10  H33 FRD d   1      17.831  22.730  18.692  0.00  0.00     0.075 H 
BRANCH   9  11
ATOM     11  N   FRD d   1      18.295  24.757  18.404  0.00  0.00    -0.353 N 
ATOM     12  C   ASN d   1      19.078  24.512  17.366  0.00  0.00     0.241 C 
ATOM     13  O   ASN d   1      19.185  23.436  16.790  0.00  0.00    -0.271 OA
ATOM     14  H32 FRD d   1      18.235  25.693  18.750  0.00  0.00     0.163 HD
BRANCH  12  15
ATOM     15  CA  ASN d   1      19.889  25.731  16.924  0.00  0.00     0.097 C 
ATOM     16  H27 ASN d   1      19.375  26.622  17.312  0.00  0.00     0.088 H 
BRANCH  15  17
ATOM     17  N   ASN d   1      21.238  25.733  17.496  0.00  0.00    -0.346 N 
ATOM     18  C   GLY d   1      21.696  26.787  18.167  0.00  0.00     0.236 C 
ATOM     19  O   GLY d   1      21.050  27.835  18.315  0.00  0.00    -0.272 OA
ATOM     20  H26 ASN d   1      21.823  24.930  17.380  0.00  0.00     0.163 HD
BRANCH  18  21
ATOM     21  CA  GLY d   1      23.056  26.771  18.818  0.00  0.00     0.069 C 
ATOM     22  H24 GLY d   1      23.506  27.764  18.672  0.00  0.00     0.078 H 
ATOM     23  H25 GLY d   1      22.908  26.589  19.893  0.00  0.00     0.078 H 
BRANCH  21  24
ATOM     24  N   GLY d   1      23.973  25.815  18.347  0.00  0.00    -0.351 N 
ATOM     25  C   PRO d   1      24.886  25.296  19.175  0.00  0.00     0.241 C 
ATOM     26  O   PRO d   1      25.003  25.678  20.340  0.00  0.00    -0.271 OA
ATOM     27  H23 GLY d   1      23.942  25.523  17.391  0.00  0.00     0.163 HD
BRANCH  25  28
ATOM     28  CA  PRO d   1      25.773  24.239  18.536  0.00  0.00     0.091 C 
ATOM     29  N   PRO d   1      27.179  24.546  18.843  0.00  0.00    -0.337 N 
ATOM     30  C   ARG d   1      27.721  25.542  18.162  0.00  0.00     0.251 C 
ATOM     31  CD  PRO d   1      27.651  23.648  19.911  0.00  0.00    -0.001 C 
ATOM     32  O   ARG d   1      26.967  26.287  17.498  0.00  0.00    -0.271 OA
ATOM     33  CG  PRO d   1      26.407  22.923  20.367  0.00  0.00    -0.048 C 
ATOM     34  H21 PRO d   1      28.091  24.224  20.738  0.00  0.00     0.064 H 
ATOM     35  H22 PRO d   1      28.395  22.938  19.522  0.00  0.00     0.064 H 
ATOM     36  CB  PRO d   1      25.538  22.865  19.158  0.00  0.00    -0.036 C 
ATOM     37  H19 PRO d   1      26.655  21.910  20.716  0.00  0.00     0.035 H 
ATOM     38  H20 PRO d   1      25.909  23.478  21.176  0.00  0.00     0.035 H 
ATOM     39  H17 PRO d   1      25.851  22.059  18.478  0.00  0.00     0.036 H 
ATOM     40  H18 PRO d   1      24.482  22.725  19.431  0.00  0.00     0.036 H 
ATOM     41  H16 PRO d   1      25.599  24.211  17.450  0.00  0.00     0.087 H 
BRANCH  30  42
ATOM     42  CA  ARG d   1      29.201  25.878  18.098  0.00  0.00     0.176 C 
ATOM     43  H4  ARG d   1      29.355  26.826  18.635  0.00  0.00     0.099 H 
BRANCH  42  44
ATOM     44  N   ARG d   1      30.079  24.892  18.688  0.00  0.00    -0.067 N 
ATOM     45  H1  ARG d   1      31.035  25.198  18.600  0.00  0.00     0.275 HD
ATOM     46  H2  ARG d   1      29.963  24.011  18.212  0.00  0.00     0.275 HD
ATOM     47  H3  ARG d   1      29.851  24.780  19.663  0.00  0.00     0.275 HD
ENDBRANCH  42  44
BRANCH  42  48
ATOM     48  CB  ARG d   1      29.585  26.071  16.609  0.00  0.00    -0.029 C 
ATOM     49  H5  ARG d   1      29.137  25.259  16.017  0.00  0.00     0.036 H 
ATOM     50  H6  ARG d   1      30.680  26.032  16.515  0.00  0.00     0.036 H 
BRANCH  48  51
ATOM     51  CG  ARG d   1      29.093  27.400  16.070  0.00  0.00    -0.047 C 
ATOM     52  H7  ARG d   1      29.954  28.072  15.936  0.00  0.00     0.035 H 
ATOM     53  H8  ARG d   1      28.392  27.841  16.794  0.00  0.00     0.035 H 
BRANCH  51  54
ATOM     54  CD  ARG d   1      28.381  27.233  14.728  0.00  0.00     0.009 C 
ATOM     55  H9  ARG d   1      27.291  27.219  14.878  0.00  0.00     0.064 H 
ATOM     56  H10 ARG d   1      28.697  26.296  14.247  0.00  0.00     0.064 H 
BRANCH  54  57
ATOM     57  NE  ARG d   1      28.761  28.382  13.894  0.00  0.00    -0.227 N 
ATOM     58  CZ  ARG d   1      30.002  28.495  13.427  0.00  0.00     0.665 C 
ATOM     59  NH1 ARG d   1      30.909  27.563  13.699  0.00  0.00    -0.235 N 
ATOM     60  NH2 ARG d   1      30.336  29.537  12.681  0.00  0.00    -0.235 N 
ATOM     61  H12 ARG d   1      31.868  27.656  13.335  0.00  0.00     0.174 HD
ATOM     62  H13 ARG d   1      30.653  26.748  14.274  0.00  0.00     0.174 HD
ATOM     63  H14 ARG d   1      29.637  30.262  12.467  0.00  0.00     0.174 HD
ATOM     64  H15 ARG d   1      31.295  29.622  12.315  0.00  0.00     0.174 HD
ATOM     65  H11 ARG d   1      28.062  29.105  13.669  0.00  0.00     0.177 HD
ENDBRANCH  54  57
ENDBRANCH  51  54
ENDBRANCH  48  51
ENDBRANCH  42  48
ENDBRANCH  30  42
ENDBRANCH  25  28
ENDBRANCH  21  24
ENDBRANCH  18  21
ENDBRANCH  15  17
BRANCH  15  66
ATOM     66  CB  ASN d   1      19.908  25.848  15.395  0.00  0.00     0.036 C 
ATOM     67  H28 ASN d   1      18.880  25.939  15.013  0.00  0.00     0.051 H 
ATOM     68  H29 ASN d   1      20.385  24.959  14.957  0.00  0.00     0.051 H 
BRANCH  66  69
ATOM     69  CG  ASN d   1      20.705  27.092  15.037  0.00  0.00     0.217 C 
ATOM     70  OD1 ASN d   1      20.287  28.223  15.240  0.00  0.00    -0.274 OA
ATOM     71  ND2 ASN d   1      21.910  26.845  14.533  0.00  0.00    -0.370 N 
ATOM     72  H30 ASN d   1      22.506  27.603  14.268  0.00  0.00     0.159 HD
ATOM     73  H31 ASN d   1      22.220  25.901  14.419  0.00  0.00     0.159 HD
ENDBRANCH  66  69
ENDBRANCH  15  66
ENDBRANCH  12  15
ENDBRANCH   9  11
BRANCH   9  74
ATOM     74  CB  FRD d   1      17.871  23.839  20.566  0.00  0.00    -0.021 C 
ATOM     75  H36 FRD d   1      17.329  23.071  21.138  0.00  0.00     0.043 H 
ATOM     76  H37 FRD d   1      17.593  24.837  20.937  0.00  0.00     0.043 H 
BRANCH  74  77
ATOM     77  CG  FRD d   1      19.372  23.631  20.714  0.00  0.00    -0.056 A 
ATOM     78  CD1 FRD d   1      20.233  24.622  21.112  0.00  0.00    -0.077 A 
ATOM     79  CE1 FRD d   1      21.593  24.403  21.234  0.00  0.00    -0.082 A 
ATOM     80  H38 FRD d   1      19.836  25.605  21.337  0.00  0.00     0.084 H 
ATOM     81  CZ  FRD d   1      22.114  23.160  20.926  0.00  0.00    -0.083 A 
ATOM     82  H40 FRD d   1      22.246  25.201  21.569  0.00  0.00     0.083 H 
ATOM     83  CE2 FRD d   1      21.261  22.157  20.537  0.00  0.00    -0.082 A 
ATOM     84  H42 FRD d   1      23.181  22.980  20.991  0.00  0.00     0.083 H 
ATOM     85  CD2 FRD d   1      19.909  22.385  20.423  0.00  0.00    -0.077 A 
ATOM     86  H41 FRD d   1      21.658  21.173  20.317  0.00  0.00     0.083 H 
ATOM     87  H39 FRD d   1      19.256  21.582  20.102  0.00  0.00     0.084 H 
ENDBRANCH  74  77
ENDBRANCH   9  74
ENDBRANCH   6   9
ENDBRANCH   3   6
ENDBRANCH   1   3
BRANCH   1  88
ATOM     88  C   LEU d   1      14.736  21.492  17.549  0.00  0.00     0.249 C 
ATOM     89  O   LEU d   1      15.779  20.862  17.670  0.00  0.00    -0.271 OA
ATOM     90  N   GLN d   1      13.566  21.030  18.004  0.00  0.00    -0.346 N 
ATOM     91  H55 GLN d   1      12.772  21.637  18.033  0.00  0.00     0.163 HD
BRANCH  90  92
ATOM     92  CA  GLN d   1      13.436  19.644  18.460  0.00  0.00     0.090 C 
ATOM     93  H56 GLN d   1      14.198  19.032  17.956  0.00  0.00     0.087 H 
BRANCH  92  94
ATOM     94  C   GLN d   1      12.043  19.151  18.038  0.00  0.00     0.241 C 
ATOM     95  O   GLN d   1      11.072  19.877  18.249  0.00  0.00    -0.271 OA
ATOM     96  N   SER d   1      11.996  17.929  17.489  0.00  0.00    -0.344 N 
ATOM     97  H63 SER d   1      12.836  17.396  17.387  0.00  0.00     0.163 HD
BRANCH  96  98
ATOM     98  CA  SER d   1      10.725  17.374  17.040  0.00  0.00     0.109 C 
ATOM     99  H64 SER d   1       9.919  18.042  17.378  0.00  0.00     0.090 H 
BRANCH  98 100
ATOM    100  C   SER d   1      10.465  15.985  17.606  0.00  0.00     0.243 C 
ATOM    101  O   SER d   1      11.386  15.144  17.626  0.00  0.00    -0.271 OA
ATOM    102  N   ARG d   1       9.242  15.725  18.045  0.00  0.00    -0.346 N 
ATOM    103  H68 ARG d   1       8.564  16.460  18.064  0.00  0.00     0.163 HD
BRANCH 102 104
ATOM    104  CA  ARG d   1       8.860  14.387  18.503  0.00  0.00     0.089 C 
ATOM    105  H69 ARG d   1       9.574  14.073  19.279  0.00  0.00     0.087 H 
BRANCH 104 106
ATOM    106  C   ARG d   1       8.951  13.410  17.341  0.00  0.00     0.243 C 
ATOM    107  O   ARG d   1       8.991  13.850  16.205  0.00  0.00    -0.271 OA
ATOM    108  N   PRO d   1       9.031  12.101  17.545  0.00  0.00    -0.337 N 
ATOM    109  CA  PRO d   1       9.015  11.143  16.441  0.00  0.00     0.091 C 
ATOM    110  CD  PRO d   1       9.166  11.422  18.856  0.00  0.00    -0.001 C 
ATOM    111  CB  PRO d   1       9.037   9.772  17.105  0.00  0.00    -0.036 C 
ATOM    112  H81 PRO d   1       9.893  11.285  15.794  0.00  0.00     0.087 H 
ATOM    113  CG  PRO d   1       8.926   9.974  18.558  0.00  0.00    -0.048 C 
ATOM    114  H82 PRO d   1       9.980   9.257  16.870  0.00  0.00     0.036 H 
ATOM    115  H83 PRO d   1       8.191   9.168  16.745  0.00  0.00     0.036 H 
ATOM    116  H84 PRO d   1       9.676   9.359  19.076  0.00  0.00     0.035 H 
ATOM    117  H85 PRO d   1       7.920   9.687  18.897  0.00  0.00     0.035 H 
ATOM    118  H86 PRO d   1       8.418  11.801  19.568  0.00  0.00     0.064 H 
ATOM    119  H87 PRO d   1      10.175  11.572  19.269  0.00  0.00     0.064 H 
BRANCH 109 120
ATOM    120  C   PRO d   1       7.730  11.260  15.610  0.00  0.00     0.238 C 
ATOM    121  O   PRO d   1       6.704  11.648  16.181  0.00  0.00    -0.271 OA
ATOM    122  N   NH2 d   1       7.778  10.939  14.399  0.00  0.00    -0.368 N 
ATOM    123  H88 NH2 d   1       6.957  11.004  13.832  0.00  0.00     0.159 HD
ATOM    124  H89 NH2 d   1       8.637  10.618  14.001  0.00  0.00     0.159 HD
ENDBRANCH 109 120
ENDBRANCH 104 106
BRANCH 104 125
ATOM    125  CB  ARG d   1       7.464  14.369  19.116  0.00  0.00    -0.036 C 
ATOM    126  H70 ARG d   1       7.365  15.231  19.792  0.00  0.00     0.036 H 
ATOM    127  H71 ARG d   1       7.343  13.438  19.689  0.00  0.00     0.036 H 
BRANCH 125 128
ATOM    128  CG  ARG d   1       6.358  14.443  18.061  0.00  0.00    -0.048 C 
ATOM    129  H72 ARG d   1       6.404  13.545  17.427  0.00  0.00     0.035 H 
ATOM    130  H73 ARG d   1       6.512  15.338  17.441  0.00  0.00     0.035 H 
BRANCH 128 131
ATOM    131  CD  ARG d   1       5.009  14.519  18.705  0.00  0.00     0.009 C 
ATOM    132  H74 ARG d   1       4.938  13.711  19.448  0.00  0.00     0.064 H 
ATOM    133  H75 ARG d   1       4.248  14.369  17.925  0.00  0.00     0.064 H 
BRANCH 131 134
ATOM    134  NE  ARG d   1       4.725  15.793  19.384  0.00  0.00    -0.227 N 
ATOM    135  CZ  ARG d   1       4.215  16.849  18.783  0.00  0.00     0.665 C 
ATOM    136  NH1 ARG d   1       4.000  17.930  19.539  0.00  0.00    -0.235 N 
ATOM    137  NH2 ARG d   1       3.934  16.871  17.484  0.00  0.00    -0.235 N 
ATOM    138  H77 ARG d   1       3.603  18.782  19.118  0.00  0.00     0.174 HD
ATOM    139  H78 ARG d   1       4.231  17.911  20.543  0.00  0.00     0.174 HD
ATOM    140  H79 ARG d   1       4.102  16.035  16.907  0.00  0.00     0.174 HD
ATOM    141  H80 ARG d   1       3.548  17.724  17.055  0.00  0.00     0.174 HD
ATOM    142  H76 ARG d   1       4.938  15.864  20.389  0.00  0.00     0.177 HD
ENDBRANCH 131 134
ENDBRANCH 128 131
ENDBRANCH 125 128
ENDBRANCH 104 125
ENDBRANCH 102 104
ENDBRANCH  98 100
BRANCH  98 143
ATOM    143  CB  SER d   1      10.706  17.308  15.506  0.00  0.00     0.044 C 
ATOM    144  H65 SER d   1       9.736  16.911  15.172  0.00  0.00     0.077 H 
ATOM    145  H66 SER d   1      11.512  16.643  15.162  0.00  0.00     0.077 H 
BRANCH 143 146
ATOM    146  OG  SER d   1      10.899  18.608  14.948  0.00  0.00    -0.398 OA
ATOM    147  H67 SER d   1      10.203  19.184  15.242  0.00  0.00     0.209 HD
ENDBRANCH 143 146
ENDBRANCH  98 143
ENDBRANCH  96  98
ENDBRANCH  92  94
BRANCH  92 148
ATOM    148  CB  GLN d   1      13.650  19.515  19.964  0.00  0.00    -0.030 C 
ATOM    149  H57 GLN d   1      12.862  20.083  20.480  0.00  0.00     0.037 H 
ATOM    150  H58 GLN d   1      14.633  19.940  20.215  0.00  0.00     0.037 H 
BRANCH 148 151
ATOM    151  CG  GLN d   1      13.606  18.058  20.458  0.00  0.00     0.011 C 
ATOM    152  H59 GLN d   1      14.327  17.930  21.279  0.00  0.00     0.047 H 
ATOM    153  H60 GLN d   1      13.870  17.384  19.629  0.00  0.00     0.047 H 
BRANCH 151 154
ATOM    154  CD  GLN d   1      12.192  17.714  20.964  0.00  0.00     0.215 C 
ATOM    155  OE1 GLN d   1      11.447  18.622  21.342  0.00  0.00    -0.274 OA
ATOM    156  NE2 GLN d   1      11.757  16.504  20.891  0.00  0.00    -0.370 N 
ATOM    157  H61 GLN d   1      10.839  16.282  21.220  0.00  0.00     0.159 HD
ATOM    158  H62 GLN d   1      12.337  15.787  20.506  0.00  0.00     0.159 HD
ENDBRANCH 151 154
ENDBRANCH 148 151
ENDBRANCH  92 148
ENDBRANCH  90  92
ENDBRANCH   1  88
BRANCH   1 159
ATOM    159  CB  LEU d   1      14.908  22.605  15.393  0.00  0.00    -0.027 C 
ATOM    160  H46 LEU d   1      15.948  22.274  15.257  0.00  0.00     0.037 H 
ATOM    161  H47 LEU d   1      14.756  23.561  14.870  0.00  0.00     0.037 H 
BRANCH 159 162
ATOM    162  CG  LEU d   1      14.005  21.566  14.721  0.00  0.00    -0.059 C 
ATOM    163  H48 LEU d   1      14.052  20.625  15.288  0.00  0.00     0.038 H 
BRANCH 162 164
ATOM    164  CD1 LEU d   1      12.584  22.125  14.765  0.00  0.00    -0.073 C 
ATOM    165  H49 LEU d   1      11.894  21.411  14.292  0.00  0.00     0.028 H 
ATOM    166  H50 LEU d   1      12.550  23.082  14.224  0.00  0.00     0.028 H 
ATOM    167  H51 LEU d   1      12.285  22.285  15.812  0.00  0.00     0.028 H 
ENDBRANCH 162 164
BRANCH 162 168
ATOM    168  CD2 LEU d   1      14.403  21.288  13.297  0.00  0.00    -0.073 C 
ATOM    169  H52 LEU d   1      15.427  20.886  13.274  0.00  0.00     0.028 H 
ATOM    170  H53 LEU d   1      14.363  22.221  12.716  0.00  0.00     0.028 H 
ATOM    171  H54 LEU d   1      13.711  20.553  12.860  0.00  0.00     0.028 H 
ENDBRANCH 162 168
ENDBRANCH 159 162
ENDBRANCH   1 159
TORSDOF 40
