REMARK WARNING: 32 MAX_TORS EXCEEDED!!!
REMARK  45 active torsions:
REMARK  status: ('A' for Active; 'I' for Inactive)
REMARK    1  A    between atoms: N_1  and  CA_2 
REMARK    2  A    between atoms: CA_2  and  C_3 
REMARK    3  A    between atoms: CA_2  and  CB_5 
REMARK       I    between atoms: C_3  and  N_8 
REMARK    4  A    between atoms: CB_5  and  CG1_6 
REMARK    5  A    between atoms: CB_5  and  CG2_7 
REMARK    6  A    between atoms: N_8  and  CA_9 
REMARK    7  A    between atoms: CA_9  and  C_10 
REMARK    8  A    between atoms: CA_9  and  CB_12 
REMARK       I    between atoms: C_10  and  N_14 
REMARK    9  A    between atoms: CB_12  and  OG_13 
REMARK   10  A    between atoms: N_14  and  CA_15 
REMARK   11  A    between atoms: CA_15  and  C_16 
REMARK   12  A    between atoms: CA_15  and  CB_18 
REMARK       I    between atoms: C_16  and  N_25 
REMARK   13  A    between atoms: CB_18  and  CG_19 
REMARK   14  A    between atoms: N_25  and  CA_26 
REMARK   15  A    between atoms: CA_26  and  C_27 
REMARK   16  A    between atoms: CA_26  and  CB_29 
REMARK       I    between atoms: C_27  and  N_33 
REMARK   17  A    between atoms: CB_29  and  CG_30 
REMARK       I    between atoms: CG_30  and  ND2_32 
REMARK   18  A    between atoms: N_33  and  CA_34 
REMARK   19  A    between atoms: CA_34  and  C_35 
REMARK   20  A    between atoms: CA_34  and  CB_36 
REMARK   21  A    between atoms: C_35  and  N_43 
REMARK   22  A    between atoms: CB_36  and  CG_37 
REMARK   23  A    between atoms: CA_44  and  C_45 
REMARK       I    between atoms: C_45  and  N_50 
REMARK   24  A    between atoms: N_50  and  CA_51 
REMARK   25  A    between atoms: CA_51  and  C_52 
REMARK   26  A    between atoms: CA_51  and  CB_54 
REMARK       I    between atoms: C_52  and  N_59 
REMARK   27  A    between atoms: CB_54  and  CG_55 
REMARK   28  A    between atoms: CG_55  and  CD_56 
REMARK       I    between atoms: CD_56  and  NE2_58 
REMARK   29  A    between atoms: N_59  and  CA_60 
REMARK   30  A    between atoms: CA_60  and  C_61 
REMARK   31  A    between atoms: CA_60  and  CB_63 
REMARK       I    between atoms: C_61  and  N_67 
REMARK   32  A    between atoms: CB_63  and  CG1_64 
REMARK   33  A    between atoms: CB_63  and  CG2_65 
REMARK   34  A    between atoms: CG1_64  and  CD1_66 
REMARK   35  A    between atoms: N_67  and  CA_68 
REMARK   36  A    between atoms: CA_68  and  C_69 
REMARK   37  A    between atoms: CA_68  and  CB_71 
REMARK       I    between atoms: C_69  and  N_74 
REMARK   38  A    between atoms: CB_71  and  OG1_72 
REMARK   39  A    between atoms: CB_71  and  CG2_73 
REMARK   40  A    between atoms: N_74  and  CA_75 
REMARK   41  A    between atoms: CA_75  and  C_76 
REMARK   42  A    between atoms: CA_75  and  CB_78 
REMARK       I    between atoms: C_76  and  N_79 
REMARK   43  A    between atoms: N_79  and  CA_80 
REMARK   44  A    between atoms: CA_80  and  C_81 
REMARK   45  A    between atoms: CA_80  and  CB_83 
REMARK       I    between atoms: C_81  and  N_84 
ROOT
ATOM      1  N   PRO d   1      15.646  23.826  16.734  0.00  0.00    -0.056 N 
ATOM      2  CA  PRO d   1      14.416  23.054  16.546  0.00  0.00     0.180 C 
ATOM      3  CB  PRO d   1      14.140  23.139  15.040  0.00  0.00    -0.028 C 
ATOM      4  CG  PRO d   1      15.489  23.397  14.443  0.00  0.00    -0.040 C 
ATOM      5  CD  PRO d   1      16.252  24.207  15.454  0.00  0.00     0.085 C 
ATOM      6  H43 PRO d   1      16.217  22.996  16.778  0.00  0.00     0.281 HD
ATOM      7  H44 PRO d   1      13.597  23.508  17.123  0.00  0.00     0.100 H 
ATOM      8  H45 PRO d   1      13.448  23.963  14.815  0.00  0.00     0.036 H 
ATOM      9  H46 PRO d   1      13.720  22.194  14.665  0.00  0.00     0.036 H 
ATOM     10  H47 PRO d   1      15.388  23.959  13.503  0.00  0.00     0.035 H 
ATOM     11  H48 PRO d   1      16.007  22.446  14.248  0.00  0.00     0.035 H 
ATOM     12  H49 PRO d   1      17.322  23.951  15.435  0.00  0.00     0.076 H 
ATOM     13  H50 PRO d   1      16.129  25.284  15.267  0.00  0.00     0.076 H 
ENDROOT
BRANCH   1  14
ATOM     14  C   FRD d   1      16.051  24.155  17.973  0.00  0.00     0.103 C 
ATOM     15  H34 FRD d   1      15.724  25.190  18.150  0.00  0.00     0.079 H 
ATOM     16  H35 FRD d   1      15.528  23.482  18.668  0.00  0.00     0.079 H 
BRANCH  14  17
ATOM     17  CA  FRD d   1      17.525  24.093  18.328  0.00  0.00     0.039 C 
ATOM     18  H33 FRD d   1      17.929  23.156  17.917  0.00  0.00     0.075 H 
BRANCH  17  19
ATOM     19  N   FRD d   1      18.243  25.206  17.726  0.00  0.00    -0.353 N 
ATOM     20  C   ASN d   1      19.160  25.098  16.778  0.00  0.00     0.241 C 
ATOM     21  O   ASN d   1      19.459  24.061  16.168  0.00  0.00    -0.271 OA
ATOM     22  H32 FRD d   1      18.026  26.125  18.055  0.00  0.00     0.163 HD
BRANCH  20  23
ATOM     23  CA  ASN d   1      19.946  26.347  16.400  0.00  0.00     0.097 C 
ATOM     24  H27 ASN d   1      19.505  27.211  16.918  0.00  0.00     0.088 H 
BRANCH  23  25
ATOM     25  N   ASN d   1      21.346  26.191  16.816  0.00  0.00    -0.346 N 
ATOM     26  C   PHE d   1      21.992  27.167  17.428  0.00  0.00     0.241 C 
ATOM     27  O   PHE d   1      21.455  28.223  17.797  0.00  0.00    -0.271 OA
ATOM     28  H26 ASN d   1      21.819  25.329  16.632  0.00  0.00     0.163 HD
BRANCH  26  29
ATOM     29  CA  PHE d   1      23.484  26.909  17.574  0.00  0.00     0.093 C 
ATOM     30  H18 PHE d   1      23.793  26.129  16.863  0.00  0.00     0.088 H 
BRANCH  29  31
ATOM     31  N   PHE d   1      24.211  28.124  17.255  0.00  0.00    -0.346 N 
ATOM     32  C   SER d   1      25.147  28.220  16.318  0.00  0.00     0.243 C 
ATOM     33  O   SER d   1      25.574  27.328  15.579  0.00  0.00    -0.271 OA
ATOM     34  H17 PHE d   1      23.991  28.948  17.778  0.00  0.00     0.163 HD
BRANCH  32  35
ATOM     35  CA  SER d   1      25.771  29.637  16.237  0.00  0.00     0.109 C 
ATOM     36  H13 SER d   1      25.200  30.329  16.873  0.00  0.00     0.090 H 
BRANCH  35  37
ATOM     37  N   SER d   1      27.084  29.554  16.748  0.00  0.00    -0.344 N 
ATOM     38  C   VAL d   1      28.238  28.996  16.686  0.00  0.00     0.249 C 
ATOM     39  O   VAL d   1      28.973  29.020  17.694  0.00  0.00    -0.271 OA
ATOM     40  H12 SER d   1      27.140  30.229  17.484  0.00  0.00     0.163 HD
BRANCH  38  41
ATOM     41  CA  VAL d   1      28.765  28.354  15.406  0.00  0.00     0.178 C 
ATOM     42  H4  VAL d   1      29.780  27.980  15.605  0.00  0.00     0.099 H 
BRANCH  41  43
ATOM     43  N   VAL d   1      27.982  27.220  14.944  0.00  0.00    -0.066 N 
ATOM     44  H1  VAL d   1      27.953  26.516  15.665  0.00  0.00     0.275 HD
ATOM     45  H2  VAL d   1      28.405  26.835  14.114  0.00  0.00     0.275 HD
ATOM     46  H3  VAL d   1      27.044  27.523  14.733  0.00  0.00     0.275 HD
ENDBRANCH  41  43
BRANCH  41  47
ATOM     47  CB  VAL d   1      28.860  29.488  14.354  0.00  0.00    -0.025 C 
ATOM     48  H5  VAL d   1      27.842  29.768  14.045  0.00  0.00     0.042 H 
BRANCH  47  49
ATOM     49  CG1 VAL d   1      29.524  30.685  15.018  0.00  0.00    -0.071 C 
ATOM     50  H6  VAL d   1      29.605  31.508  14.293  0.00  0.00     0.028 H 
ATOM     51  H7  VAL d   1      30.529  30.401  15.365  0.00  0.00     0.028 H 
ATOM     52  H8  VAL d   1      28.918  31.011  15.876  0.00  0.00     0.028 H 
ENDBRANCH  47  49
BRANCH  47  53
ATOM     53  CG2 VAL d   1      29.623  29.071  13.129  0.00  0.00    -0.071 C 
ATOM     54  H9  VAL d   1      29.127  28.206  12.665  0.00  0.00     0.028 H 
ATOM     55  H10 VAL d   1      30.650  28.797  13.412  0.00  0.00     0.028 H 
ATOM     56  H11 VAL d   1      29.651  29.905  12.413  0.00  0.00     0.028 H 
ENDBRANCH  47  53
ENDBRANCH  41  47
ENDBRANCH  38  41
ENDBRANCH  35  37
BRANCH  35  57
ATOM     57  CB  SER d   1      25.658  30.123  14.785  0.00  0.00     0.044 C 
ATOM     58  H14 SER d   1      26.629  30.052  14.274  0.00  0.00     0.077 H 
ATOM     59  H15 SER d   1      25.300  31.163  14.749  0.00  0.00     0.077 H 
BRANCH  57  60
ATOM     60  OG  SER d   1      24.704  29.238  14.186  0.00  0.00    -0.398 OA
ATOM     61  H16 SER d   1      25.025  28.346  14.238  0.00  0.00     0.209 HD
ENDBRANCH  57  60
ENDBRANCH  35  57
ENDBRANCH  32  35
ENDBRANCH  29  31
BRANCH  29  62
ATOM     62  CB  PHE d   1      23.722  26.389  18.999  0.00  0.00    -0.014 C 
ATOM     63  H19 PHE d   1      22.832  25.834  19.331  0.00  0.00     0.043 H 
ATOM     64  H20 PHE d   1      23.892  27.244  19.669  0.00  0.00     0.043 H 
BRANCH  62  65
ATOM     65  CG  PHE d   1      24.936  25.464  19.055  0.00  0.00    -0.056 A 
ATOM     66  CD1 PHE d   1      26.207  26.015  19.011  0.00  0.00    -0.077 A 
ATOM     67  CE1 PHE d   1      27.329  25.204  19.056  0.00  0.00    -0.082 A 
ATOM     68  H21 PHE d   1      26.324  27.090  18.941  0.00  0.00     0.084 H 
ATOM     69  CZ  PHE d   1      27.156  23.836  19.151  0.00  0.00    -0.083 A 
ATOM     70  H23 PHE d   1      28.323  25.634  19.017  0.00  0.00     0.083 H 
ATOM     71  CE2 PHE d   1      25.897  23.272  19.193  0.00  0.00    -0.082 A 
ATOM     72  H25 PHE d   1      28.027  23.193  19.193  0.00  0.00     0.083 H 
ATOM     73  CD2 PHE d   1      24.783  24.093  19.140  0.00  0.00    -0.077 A 
ATOM     74  H24 PHE d   1      25.781  22.197  19.267  0.00  0.00     0.083 H 
ATOM     75  H22 PHE d   1      23.790  23.660  19.165  0.00  0.00     0.084 H 
ENDBRANCH  62  65
ENDBRANCH  29  62
ENDBRANCH  26  29
ENDBRANCH  23  25
BRANCH  23  76
ATOM     76  CB  ASN d   1      19.919  26.606  14.884  0.00  0.00     0.036 C 
ATOM     77  H28 ASN d   1      18.874  26.675  14.547  0.00  0.00     0.051 H 
ATOM     78  H29 ASN d   1      20.417  25.774  14.365  0.00  0.00     0.051 H 
BRANCH  76  79
ATOM     79  CG  ASN d   1      20.643  27.912  14.552  0.00  0.00     0.217 C 
ATOM     80  OD1 ASN d   1      20.096  28.975  14.830  0.00  0.00    -0.274 OA
ATOM     81  ND2 ASN d   1      21.875  27.845  14.069  0.00  0.00    -0.370 N 
ATOM     82  H30 ASN d   1      22.370  28.684  13.844  0.00  0.00     0.159 HD
ATOM     83  H31 ASN d   1      22.310  26.955  13.930  0.00  0.00     0.159 HD
ENDBRANCH  76  79
ENDBRANCH  23  76
ENDBRANCH  20  23
ENDBRANCH  17  19
BRANCH  17  84
ATOM     84  CB  FRD d   1      17.773  24.091  19.850  0.00  0.00    -0.021 C 
ATOM     85  H36 FRD d   1      17.233  23.241  20.293  0.00  0.00     0.043 H 
ATOM     86  H37 FRD d   1      17.385  25.031  20.270  0.00  0.00     0.043 H 
BRANCH  84  87
ATOM     87  CG  FRD d   1      19.247  23.970  20.209  0.00  0.00    -0.056 A 
ATOM     88  CD1 FRD d   1      19.919  25.011  20.822  0.00  0.00    -0.077 A 
ATOM     89  CE1 FRD d   1      21.257  24.906  21.126  0.00  0.00    -0.082 A 
ATOM     90  H38 FRD d   1      19.385  25.922  21.066  0.00  0.00     0.084 H 
ATOM     91  CZ  FRD d   1      21.946  23.739  20.845  0.00  0.00    -0.083 A 
ATOM     92  H40 FRD d   1      21.773  25.740  21.587  0.00  0.00     0.083 H 
ATOM     93  CE2 FRD d   1      21.278  22.697  20.222  0.00  0.00    -0.082 A 
ATOM     94  H42 FRD d   1      22.993  23.642  21.108  0.00  0.00     0.083 H 
ATOM     95  CD2 FRD d   1      19.936  22.810  19.909  0.00  0.00    -0.077 A 
ATOM     96  H41 FRD d   1      21.812  21.786  19.978  0.00  0.00     0.083 H 
ATOM     97  H39 FRD d   1      19.422  21.986  19.427  0.00  0.00     0.084 H 
ENDBRANCH  84  87
ENDBRANCH  17  84
ENDBRANCH  14  17
ENDBRANCH   1  14
BRANCH   2  98
ATOM     98  C   PRO d   1      14.547  21.586  16.937  0.00  0.00     0.249 C 
ATOM     99  O   PRO d   1      15.578  20.924  16.824  0.00  0.00    -0.271 OA
ATOM    100  N   GLN d   1      13.431  21.034  17.407  0.00  0.00    -0.346 N 
ATOM    101  H51 GLN d   1      12.616  21.595  17.554  0.00  0.00     0.163 HD
BRANCH 100 102
ATOM    102  CA  GLN d   1      13.402  19.603  17.707  0.00  0.00     0.090 C 
ATOM    103  H52 GLN d   1      14.105  19.082  17.040  0.00  0.00     0.087 H 
BRANCH 102 104
ATOM    104  C   GLN d   1      12.010  19.044  17.478  0.00  0.00     0.241 C 
ATOM    105  O   GLN d   1      11.011  19.683  17.802  0.00  0.00    -0.271 OA
ATOM    106  N   ILE d   1      11.950  17.805  16.993  0.00  0.00    -0.346 N 
ATOM    107  H59 ILE d   1      12.789  17.408  16.620  0.00  0.00     0.163 HD
BRANCH 106 108
ATOM    108  CA  ILE d   1      10.744  16.991  16.970  0.00  0.00     0.092 C 
ATOM    109  H60 ILE d   1      10.039  17.422  17.697  0.00  0.00     0.088 H 
BRANCH 108 110
ATOM    110  C   ILE d   1      10.973  15.522  17.322  0.00  0.00     0.241 C 
ATOM    111  O   ILE d   1      12.043  14.924  17.177  0.00  0.00    -0.271 OA
ATOM    112  N   THR d   1       9.881  14.885  17.800  0.00  0.00    -0.344 N 
ATOM    113  H70 THR d   1       9.012  15.364  17.922  0.00  0.00     0.163 HD
BRANCH 112 114
ATOM    114  CA  THR d   1      10.020  13.476  18.130  0.00  0.00     0.113 C 
ATOM    115  H71 THR d   1      11.027  13.325  18.546  0.00  0.00     0.091 H 
BRANCH 114 116
ATOM    116  C   THR d   1       9.856  12.621  16.876  0.00  0.00     0.243 C 
ATOM    117  O   THR d   1       8.936  12.897  16.116  0.00  0.00    -0.271 OA
ATOM    118  N   ALA d   1      10.728  11.658  16.775  0.00  0.00    -0.346 N 
ATOM    119  H77 ALA d   1      11.611  11.902  17.177  0.00  0.00     0.163 HD
BRANCH 118 120
ATOM    120  CA  ALA d   1      10.729  10.337  16.229  0.00  0.00     0.086 C 
ATOM    121  H78 ALA d   1      11.409   9.732  16.846  0.00  0.00     0.086 H 
BRANCH 120 122
ATOM    122  C   ALA d   1      11.241  10.293  14.772  0.00  0.00     0.240 C 
ATOM    123  O   ALA d   1      12.324  10.853  14.580  0.00  0.00    -0.271 OA
ATOM    124  N   ALA d   1      10.428   9.657  13.985  0.00  0.00    -0.346 N 
ATOM    125  H82 ALA d   1       9.605   9.494  14.529  0.00  0.00     0.163 HD
BRANCH 124 126
ATOM    126  CA  ALA d   1      10.160   9.083  12.710  0.00  0.00     0.086 C 
ATOM    127  H83 ALA d   1      11.122   8.934  12.198  0.00  0.00     0.086 H 
BRANCH 126 128
ATOM    128  C   ALA d   1       9.259   9.903  11.787  0.00  0.00     0.237 C 
ATOM    129  O   ALA d   1       8.970  11.076  12.066  0.00  0.00    -0.271 OA
ATOM    130  N   NH2 d   1       8.822   9.353  10.753  0.00  0.00    -0.368 N 
ATOM    131  H87 NH2 d   1       8.230   9.862  10.128  0.00  0.00     0.159 HD
ATOM    132  H88 NH2 d   1       9.064   8.404  10.551  0.00  0.00     0.159 HD
ENDBRANCH 126 128
BRANCH 126 133
ATOM    133  CB  ALA d   1       9.483   7.720  12.936  0.00  0.00    -0.049 C 
ATOM    134  H84 ALA d   1       9.264   7.254  11.964  0.00  0.00     0.030 H 
ATOM    135  H85 ALA d   1       8.545   7.864  13.493  0.00  0.00     0.030 H 
ATOM    136  H86 ALA d   1      10.155   7.068  13.513  0.00  0.00     0.030 H 
ENDBRANCH 126 133
ENDBRANCH 124 126
ENDBRANCH 120 122
BRANCH 120 137
ATOM    137  CB  ALA d   1       9.343   9.683  16.270  0.00  0.00    -0.049 C 
ATOM    138  H79 ALA d   1       9.402   8.672  15.839  0.00  0.00     0.030 H 
ATOM    139  H80 ALA d   1       8.634  10.289  15.687  0.00  0.00     0.030 H 
ATOM    140  H81 ALA d   1       8.999   9.618  17.313  0.00  0.00     0.030 H 
ENDBRANCH 120 137
ENDBRANCH 118 120
ENDBRANCH 114 116
BRANCH 114 141
ATOM    141  CB  THR d   1       8.988  12.962  19.148  0.00  0.00     0.060 C 
ATOM    142  H72 THR d   1       7.981  13.288  18.849  0.00  0.00     0.086 H 
BRANCH 141 143
ATOM    143  OG1 THR d   1       9.305  13.453  20.454  0.00  0.00    -0.393 OA
ATOM    144  H73 THR d   1       9.291  14.403  20.446  0.00  0.00     0.210 HD
ENDBRANCH 141 143
BRANCH 141 145
ATOM    145  CG2 THR d   1       9.048  11.442  19.240  0.00  0.00    -0.050 C 
ATOM    146  H74 THR d   1       8.305  11.089  19.971  0.00  0.00     0.031 H 
ATOM    147  H75 THR d   1      10.054  11.133  19.561  0.00  0.00     0.031 H 
ATOM    148  H76 THR d   1       8.828  11.006  18.254  0.00  0.00     0.031 H 
ENDBRANCH 141 145
ENDBRANCH 114 141
ENDBRANCH 112 114
ENDBRANCH 108 110
BRANCH 108 149
ATOM    149  CB  ILE d   1      10.091  16.984  15.570  0.00  0.00    -0.030 C 
ATOM    150  H61 ILE d   1       9.074  16.579  15.681  0.00  0.00     0.043 H 
BRANCH 149 151
ATOM    151  CG1 ILE d   1      10.857  16.043  14.647  0.00  0.00    -0.063 C 
ATOM    152  H62 ILE d   1      10.895  15.052  15.122  0.00  0.00     0.033 H 
ATOM    153  H63 ILE d   1      11.879  16.433  14.530  0.00  0.00     0.033 H 
BRANCH 151 154
ATOM    154  CD1 ILE d   1      10.254  15.884  13.274  0.00  0.00    -0.076 C 
ATOM    155  H67 ILE d   1      10.870  15.191  12.681  0.00  0.00     0.027 H 
ATOM    156  H68 ILE d   1      10.218  16.863  12.774  0.00  0.00     0.027 H 
ATOM    157  H69 ILE d   1       9.234  15.482  13.366  0.00  0.00     0.027 H 
ENDBRANCH 151 154
ENDBRANCH 149 151
BRANCH 149 158
ATOM    158  CG2 ILE d   1       9.950  18.382  15.003  0.00  0.00    -0.071 C 
ATOM    159  H64 ILE d   1       9.391  19.011  15.712  0.00  0.00     0.028 H 
ATOM    160  H65 ILE d   1       9.408  18.337  14.047  0.00  0.00     0.028 H 
ATOM    161  H66 ILE d   1      10.948  18.814  14.839  0.00  0.00     0.028 H 
ENDBRANCH 149 158
ENDBRANCH 108 149
ENDBRANCH 106 108
ENDBRANCH 102 104
BRANCH 102 162
ATOM    162  CB  GLN d   1      13.839  19.387  19.157  0.00  0.00    -0.030 C 
ATOM    163  H53 GLN d   1      13.224  20.040  19.794  0.00  0.00     0.037 H 
ATOM    164  H54 GLN d   1      14.895  19.685  19.238  0.00  0.00     0.037 H 
BRANCH 162 165
ATOM    165  CG  GLN d   1      13.716  17.979  19.686  0.00  0.00     0.011 C 
ATOM    166  H55 GLN d   1      14.546  17.805  20.387  0.00  0.00     0.047 H 
ATOM    167  H56 GLN d   1      13.804  17.288  18.835  0.00  0.00     0.047 H 
BRANCH 165 168
ATOM    168  CD  GLN d   1      12.416  17.668  20.412  0.00  0.00     0.215 C 
ATOM    169  OE1 GLN d   1      11.751  18.552  20.928  0.00  0.00    -0.274 OA
ATOM    170  NE2 GLN d   1      12.035  16.401  20.378  0.00  0.00    -0.370 N 
ATOM    171  H57 GLN d   1      11.190  16.121  20.833  0.00  0.00     0.159 HD
ATOM    172  H58 GLN d   1      12.592  15.724  19.897  0.00  0.00     0.159 HD
ENDBRANCH 165 168
ENDBRANCH 162 165
ENDBRANCH 102 162
ENDBRANCH 100 102
ENDBRANCH   2  98
TORSDOF 45
