REMARK  9 active torsions:
REMARK  status: ('A' for Active; 'I' for Inactive)
REMARK    1  A    between atoms: C7_7  and  N2_12 
REMARK    2  A    between atoms: N2_12  and  C10_13 
REMARK    3  A    between atoms: C13_16  and  O_19 
REMARK    4  A    between atoms: C14_17  and  C16_20 
REMARK    5  A    between atoms: C16_20  and  N3_21 
REMARK    6  A    between atoms: N3_21  and  C17_22 
REMARK    7  A    between atoms: N3_21  and  C19_24 
REMARK    8  A    between atoms: C17_22  and  C18_23 
REMARK    9  A    between atoms: C19_24  and  C20_25 
ROOT
ATOM      1  C10 CQA d   1      51.762  -7.999  30.803  0.00  0.00     0.033 A 
ATOM      2  C11 CQA d   1      52.239  -7.146  29.749  0.00  0.00    -0.055 A 
ATOM      3  C12 CQA d   1      52.387  -7.688  28.423  0.00  0.00    -0.048 A 
ATOM      4  C13 CQA d   1      52.085  -9.071  28.124  0.00  0.00     0.073 A 
ATOM      5  C14 CQA d   1      51.622  -9.936  29.216  0.00  0.00     0.003 A 
ATOM      6  C15 CQA d   1      51.458  -9.370  30.510  0.00  0.00    -0.047 A 
ATOM      7  H7  CQA d   1      52.484  -6.109  29.949  0.00  0.00     0.087 H 
ATOM      8  H8  CQA d   1      52.735  -7.041  27.626  0.00  0.00     0.087 H 
ATOM      9  H9  CQA d   1      51.087 -10.002  31.309  0.00  0.00     0.088 H 
ENDROOT
BRANCH   5  10
ATOM     10  C16 CQA d   1      51.542 -11.314  28.629  0.00  0.00     0.110 C 
ATOM     11  H11 CQA d   1      51.395 -11.132  27.554  0.00  0.00     0.083 H 
ATOM     12  H12 CQA d   1      50.619 -11.729  29.060  0.00  0.00     0.083 H 
BRANCH  10  13
ATOM     13  N3  CQA d   1      52.470 -12.426  28.667  0.00  0.00    -0.068 N 
ATOM     14  H13 CQA d   1      53.320 -12.302  29.195  0.00  0.00     0.280 HD
BRANCH  13  15
ATOM     15  C17 CQA d   1      52.645 -12.478  27.242  0.00  0.00     0.081 C 
ATOM     16  H14 CQA d   1      53.697 -12.797  27.198  0.00  0.00     0.075 H 
ATOM     17  H15 CQA d   1      52.577 -11.405  27.009  0.00  0.00     0.075 H 
BRANCH  15  18
ATOM     18  C18 CQA d   1      52.152 -13.052  25.932  0.00  0.00    -0.053 C 
ATOM     19  H16 CQA d   1      52.770 -12.667  25.107  0.00  0.00     0.029 H 
ATOM     20  H17 CQA d   1      51.104 -12.758  25.774  0.00  0.00     0.029 H 
ATOM     21  H18 CQA d   1      52.224 -14.149  25.962  0.00  0.00     0.029 H 
ENDBRANCH  15  18
ENDBRANCH  13  15
BRANCH  13  22
ATOM     22  C19 CQA d   1      51.637 -13.490  29.161  0.00  0.00     0.081 C 
ATOM     23  H19 CQA d   1      52.216 -14.320  28.730  0.00  0.00     0.075 H 
ATOM     24  H20 CQA d   1      50.766 -13.281  28.523  0.00  0.00     0.075 H 
BRANCH  22  25
ATOM     25  C20 CQA d   1      50.902 -14.307  30.207  0.00  0.00    -0.053 C 
ATOM     26  H21 CQA d   1      50.375 -15.140  29.718  0.00  0.00     0.029 H 
ATOM     27  H22 CQA d   1      50.174 -13.667  30.727  0.00  0.00     0.029 H 
ATOM     28  H23 CQA d   1      51.624 -14.706  30.934  0.00  0.00     0.029 H 
ENDBRANCH  22  25
ENDBRANCH  13  22
ENDBRANCH  10  13
ENDBRANCH   5  10
BRANCH   4  29
ATOM     29  O   CQA d   1      52.261  -9.531  26.684  0.00  0.00    -0.360 OA
ATOM     30  H10 CQA d   1      52.569  -8.804  26.156  0.00  0.00     0.217 HD
ENDBRANCH   4  29
BRANCH   1  31
ATOM     31  N2  CQA d   1      51.557  -7.392  32.129  0.00  0.00    -0.355 N 
ATOM     32  H6  CQA d   1      50.769  -6.746  32.282  0.00  0.00     0.166 HD
BRANCH  31  33
ATOM     33  C7  CQA d   1      52.482  -7.708  33.247  0.00  0.00     0.046 A 
ATOM     34  C4  CQA d   1      52.627  -6.790  34.359  0.00  0.00     0.019 A 
ATOM     35  C3  CQA d   1      51.896  -5.539  34.432  0.00  0.00    -0.067 A 
ATOM     36  C5  CQA d   1      53.551  -7.150  35.435  0.00  0.00     0.070 A 
ATOM     37  C2  CQA d   1      52.088  -4.652  35.560  0.00  0.00    -0.061 A 
ATOM     38  H2  CQA d   1      51.206  -5.268  33.641  0.00  0.00     0.085 H 
ATOM     39  C1  CQA d   1      53.006  -5.020  36.616  0.00  0.00     0.036 A 
ATOM     40  H1  CQA d   1      51.546  -3.715  35.613  0.00  0.00     0.086 H 
ATOM     41  C6  CQA d   1      53.732  -6.260  36.555  0.00  0.00    -0.033 A 
ATOM     42 CL   CQA d   1      53.278  -4.003  37.966  0.00  0.00    -0.084 Cl
ATOM     43  H3  CQA d   1      54.416  -6.526  37.352  0.00  0.00     0.089 H 
ATOM     44  N1  CQA d   1      54.282  -8.331  35.411  0.00  0.00    -0.260 NA
ATOM     45  C9  CQA d   1      54.147  -9.207  34.351  0.00  0.00     0.005 A 
ATOM     46  C8  CQA d   1      53.265  -8.940  33.263  0.00  0.00    -0.039 A 
ATOM     47  H5  CQA d   1      54.728 -10.122  34.346  0.00  0.00     0.114 H 
ATOM     48  H4  CQA d   1      53.176  -9.650  32.449  0.00  0.00     0.089 H 
ENDBRANCH  31  33
ENDBRANCH   1  31
TORSDOF 9
