REMARK  4 active torsions:
REMARK  status: ('A' for Active; 'I' for Inactive)
REMARK    1  A    between atoms: C2_2  and  N3_13 
REMARK    2  A    between atoms: C3_4  and  N4_14 
REMARK    3  A    between atoms: C4_5  and  C6_7 
REMARK    4  A    between atoms: C5_6  and  C12_15 
ROOT
ATOM      1  N1  C2M d   1      43.545 -32.796  -5.145  0.00  0.00    -0.067 NA
ATOM      2  C2  C2M d   1      43.750 -31.843  -4.154  0.00  0.00     0.722 A 
ATOM      3  N2  C2M d   1      43.361 -32.176  -2.885  0.00  0.00    -0.045 NA
ATOM      4  C3  C2M d   1      42.785 -33.393  -2.564  0.00  0.00     0.153 A 
ATOM      5  C4  C2M d   1      42.523 -34.456  -3.571  0.00  0.00     0.045 A 
ATOM      6  C5  C2M d   1      42.959 -34.047  -4.899  0.00  0.00     0.064 A 
ENDROOT
BRANCH   5   7
ATOM      7  C6  C2M d   1      41.898 -35.745  -3.228  0.00  0.00    -0.018 A 
ATOM      8  C7  C2M d   1      40.432 -35.770  -3.010  0.00  0.00    -0.049 A 
ATOM      9  C8  C2M d   1      39.750 -37.013  -2.652  0.00  0.00     0.056 A 
ATOM     10  H1  C2M d   1      39.859 -34.856  -3.117  0.00  0.00     0.087 H 
ATOM     11  C9  C2M d   1      40.558 -38.303  -2.497  0.00  0.00     0.055 A 
ATOM     12 CL2  C2M d   1      38.091 -36.870  -2.444  0.00  0.00    -0.083 Cl
ATOM     13  C10 C2M d   1      42.017 -38.286  -2.719  0.00  0.00    -0.059 A 
ATOM     14 CL1  C2M d   1      39.886 -39.784  -2.059  0.00  0.00    -0.083 Cl
ATOM     15  C11 C2M d   1      42.682 -37.010  -3.084  0.00  0.00    -0.070 A 
ATOM     16  H2  C2M d   1      42.597 -39.196  -2.617  0.00  0.00     0.086 H 
ATOM     17  H3  C2M d   1      43.753 -36.995  -3.249  0.00  0.00     0.084 H 
ENDBRANCH   5   7
BRANCH   4  18
ATOM     18  N4  C2M d   1      42.446 -33.576  -1.191  0.00  0.00    -0.383 N 
ATOM     19  H6  C2M d   1      42.014 -34.458  -0.880  0.00  0.00     0.157 HD
ATOM     20  H7  C2M d   1      42.633 -32.826  -0.510  0.00  0.00     0.157 HD
ENDBRANCH   4  18
BRANCH   6  21
ATOM     21  C12 C2M d   1      42.854 -34.845  -6.155  0.00  0.00    -0.034 C 
ATOM     22  H8  C2M d   1      42.392 -35.819  -5.933  0.00  0.00     0.035 H 
ATOM     23  H9  C2M d   1      43.859 -35.003  -6.574  0.00  0.00     0.035 H 
ATOM     24  H10 C2M d   1      42.234 -34.302  -6.883  0.00  0.00     0.035 H 
ENDBRANCH   6  21
BRANCH   2  25
ATOM     25  N3  C2M d   1      44.339 -30.534  -4.435  0.00  0.00    -0.231 N 
ATOM     26  H4  C2M d   1      44.628 -30.294  -5.394  0.00  0.00     0.174 HD
ATOM     27  H5  C2M d   1      44.465 -29.852  -3.674  0.00  0.00     0.174 HD
ENDBRANCH   2  25
TORSDOF 4
