REMARK  1 active torsions:
REMARK  status: ('A' for Active; 'I' for Inactive)
REMARK    1  A    between atoms: C10_10  and  N15_15 
ROOT
ATOM      1  C1  THA d   1      52.145  -6.035  31.217  0.00  0.00    -0.060 C 
ATOM      2  C2  THA d   1      51.939  -7.587  31.516  0.00  0.00    -0.024 C 
ATOM      3  C3  THA d   1      52.552  -8.552  30.478  0.00  0.00     0.043 A 
ATOM      4  C4  THA d   1      53.201  -8.097  29.183  0.00  0.00    -0.006 A 
ATOM      5  C5  THA d   1      53.276  -6.589  28.905  0.00  0.00    -0.037 C 
ATOM      6  C6  THA d   1      52.321  -5.642  29.731  0.00  0.00    -0.061 C 
ATOM      7  N7  THA d   1      52.460  -9.898  30.801  0.00  0.00    -0.252 NA
ATOM      8  C8  THA d   1      52.912 -10.963  29.879  0.00  0.00     0.069 A 
ATOM      9  C9  THA d   1      53.586 -10.544  28.547  0.00  0.00     0.019 A 
ATOM     10  C10 THA d   1      53.738  -9.100  28.208  0.00  0.00     0.046 A 
ATOM     11  C11 THA d   1      52.710 -12.347  30.265  0.00  0.00    -0.054 A 
ATOM     12  C12 THA d   1      53.161 -13.364  29.368  0.00  0.00    -0.081 A 
ATOM     13  C13 THA d   1      53.830 -12.966  28.075  0.00  0.00    -0.082 A 
ATOM     14  C14 THA d   1      54.047 -11.589  27.651  0.00  0.00    -0.069 A 
ATOM     15  H1  THA d   1      53.043  -5.705  31.760  0.00  0.00     0.033 H 
ATOM     16  H2  THA d   1      51.266  -5.499  31.604  0.00  0.00     0.033 H 
ATOM     17  H3  THA d   1      50.858  -7.782  31.563  0.00  0.00     0.042 H 
ATOM     18  H4  THA d   1      52.394  -7.807  32.493  0.00  0.00     0.042 H 
ATOM     19  H5  THA d   1      53.046  -6.439  27.840  0.00  0.00     0.040 H 
ATOM     20  H6  THA d   1      54.309  -6.269  29.105  0.00  0.00     0.040 H 
ATOM     21  H7  THA d   1      52.733  -4.623  29.693  0.00  0.00     0.033 H 
ATOM     22  H8  THA d   1      51.330  -5.655  29.254  0.00  0.00     0.033 H 
ATOM     23  H9  THA d   1      52.232 -12.601  31.204  0.00  0.00     0.087 H 
ATOM     24  H10 THA d   1      53.024 -14.411  29.614  0.00  0.00     0.083 H 
ATOM     25  H11 THA d   1      54.172 -13.757  27.418  0.00  0.00     0.083 H 
ATOM     26  H12 THA d   1      54.531 -11.355  26.709  0.00  0.00     0.085 H 
ENDROOT
BRANCH  10  27
ATOM     27  N15 THA d   1      54.385  -8.709  26.911  0.00  0.00    -0.398 N 
ATOM     28  H13 THA d   1      54.494  -7.714  26.669  0.00  0.00     0.156 HD
ATOM     29  H14 THA d   1      54.720  -9.436  26.263  0.00  0.00     0.156 HD
ENDBRANCH  10  27
TORSDOF 1
