REMARK  1 active torsions:
REMARK  status: ('A' for Active; 'I' for Inactive)
REMARK    1  A    between atoms: C10_10  and  N15_15 
ROOT
ATOM      1  C1  THA d   1      51.802  -5.677  30.634  0.00  0.00    -0.060 C 
ATOM      2  C2  THA d   1      51.642  -7.180  31.217  0.00  0.00    -0.024 C 
ATOM      3  C3  THA d   1      52.099  -8.267  30.283  0.00  0.00     0.043 A 
ATOM      4  C4  THA d   1      52.887  -7.983  29.065  0.00  0.00    -0.006 A 
ATOM      5  C5  THA d   1      53.295  -6.563  28.664  0.00  0.00    -0.037 C 
ATOM      6  C6  THA d   1      52.966  -5.399  29.642  0.00  0.00    -0.061 C 
ATOM      7  N7  THA d   1      51.752  -9.534  30.613  0.00  0.00    -0.252 NA
ATOM      8  C8  THA d   1      52.191 -10.721  29.786  0.00  0.00     0.069 A 
ATOM      9  C9  THA d   1      52.980 -10.441  28.534  0.00  0.00     0.019 A 
ATOM     10  C10 THA d   1      53.302  -9.066  28.197  0.00  0.00     0.046 A 
ATOM     11  C11 THA d   1      51.867 -12.112  30.151  0.00  0.00    -0.054 A 
ATOM     12  C12 THA d   1      52.309 -13.196  29.301  0.00  0.00    -0.081 A 
ATOM     13  C13 THA d   1      53.073 -12.876  28.091  0.00  0.00    -0.082 A 
ATOM     14  C14 THA d   1      53.409 -11.531  27.704  0.00  0.00    -0.069 A 
ATOM     15  H1  THA d   1      51.938  -5.005  31.494  0.00  0.00     0.033 H 
ATOM     16  H2  THA d   1      50.864  -5.425  30.117  0.00  0.00     0.033 H 
ATOM     17  H3  THA d   1      50.579  -7.348  31.445  0.00  0.00     0.042 H 
ATOM     18  H4  THA d   1      52.231  -7.253  32.143  0.00  0.00     0.042 H 
ATOM     19  H5  THA d   1      52.796  -6.338  27.710  0.00  0.00     0.040 H 
ATOM     20  H6  THA d   1      54.385  -6.566  28.516  0.00  0.00     0.040 H 
ATOM     21  H7  THA d   1      53.870  -5.183  30.230  0.00  0.00     0.033 H 
ATOM     22  H8  THA d   1      52.699  -4.516  29.043  0.00  0.00     0.033 H 
ATOM     23  H9  THA d   1      51.301 -12.322  31.051  0.00  0.00     0.087 H 
ATOM     24  H10 THA d   1      52.080 -14.225  29.554  0.00  0.00     0.083 H 
ATOM     25  H11 THA d   1      53.401 -13.692  27.457  0.00  0.00     0.083 H 
ATOM     26  H12 THA d   1      53.977 -11.344  26.800  0.00  0.00     0.085 H 
ENDROOT
BRANCH  10  27
ATOM     27  N15 THA d   1      54.060  -8.748  26.968  0.00  0.00    -0.398 N 
ATOM     28  H13 THA d   1      54.283  -7.769  26.739  0.00  0.00     0.156 HD
ATOM     29  H14 THA d   1      54.365  -9.506  26.341  0.00  0.00     0.156 HD
ENDBRANCH  10  27
TORSDOF 1
