REMARK  7 active torsions:
REMARK  status: ('A' for Active; 'I' for Inactive)
REMARK    1  A    between atoms: C2_3  and  C9_4 
REMARK    2  A    between atoms: C4_6  and  C10_9 
REMARK    3  A    between atoms: C4_6  and  C5_10 
REMARK    4  A    between atoms: C3_7  and  O2_8 
REMARK    5  A    between atoms: C6_11  and  C11_12 
REMARK    6  A    between atoms: C6_11  and  C7_13 
REMARK    7  A    between atoms: C8_14  and  C12_15 
ROOT
ATOM      1  O1  TL5 d   1      22.148  87.694   0.915  0.00  0.00    -0.280 OA
ATOM      2  C1  TL5 d   1      22.920  88.624   1.087  0.00  0.00     0.218 C 
ATOM      3  C2  TL5 d   1      23.254  89.080   2.290  0.00  0.00     0.026 C 
ATOM      4  S1  TL5 d   1      23.625  89.411  -0.200  0.00  0.00    -0.067 SA
ATOM      5  C4  TL5 d   1      24.469  90.537   0.868  0.00  0.00     0.079 C 
ATOM      6  C3  TL5 d   1      24.171  90.036   2.257  0.00  0.00     0.076 C 
ENDROOT
BRANCH   5   7
ATOM      7  C10 TL5 d   1      23.929  91.958   0.729  0.00  0.00    -0.051 C 
ATOM      8  H5  TL5 d   1      24.478  92.627   1.408  0.00  0.00     0.030 H 
ATOM      9  H6  TL5 d   1      22.860  91.971   0.987  0.00  0.00     0.030 H 
ATOM     10  H7  TL5 d   1      24.060  92.300  -0.308  0.00  0.00     0.030 H 
ENDBRANCH   5   7
BRANCH   5  11
ATOM     11  C5  TL5 d   1      25.964  90.488   0.603  0.00  0.00    -0.073 C 
ATOM     12  C6  TL5 d   1      26.552  90.777  -0.579  0.00  0.00    -0.064 C 
ATOM     13  H8  TL5 d   1      26.612  90.198   1.429  0.00  0.00     0.080 H 
BRANCH  12  14
ATOM     14  C11 TL5 d   1      25.818  91.211  -1.824  0.00  0.00    -0.051 C 
ATOM     15  H9  TL5 d   1      26.541  91.379  -2.636  0.00  0.00     0.033 H 
ATOM     16  H10 TL5 d   1      25.271  92.144  -1.621  0.00  0.00     0.033 H 
ATOM     17  H11 TL5 d   1      25.107  90.427  -2.123  0.00  0.00     0.033 H 
ENDBRANCH  12  14
BRANCH  12  18
ATOM     18  C7  TL5 d   1      28.025  90.692  -0.622  0.00  0.00    -0.081 C 
ATOM     19  C8  TL5 d   1      28.721  91.036  -1.704  0.00  0.00    -0.106 C 
ATOM     20  H13 TL5 d   1      28.208  91.372  -2.604  0.00  0.00     0.076 H 
ATOM     21  H12 TL5 d   1      28.559  90.337   0.258  0.00  0.00     0.083 H 
BRANCH  19  22
ATOM     22  C12 TL5 d   1      30.219  90.957  -1.672  0.00  0.00    -0.060 C 
ATOM     23  H14 TL5 d   1      30.624  91.276  -2.644  0.00  0.00     0.032 H 
ATOM     24  H15 TL5 d   1      30.527  89.921  -1.469  0.00  0.00     0.032 H 
ATOM     25  H16 TL5 d   1      30.604  91.616  -0.880  0.00  0.00     0.032 H 
ENDBRANCH  19  22
ENDBRANCH  12  18
ENDBRANCH   5  11
BRANCH   6  26
ATOM     26  O2  TL5 d   1      24.780  90.504   3.346  0.00  0.00    -0.362 OA
ATOM     27  H4  TL5 d   1      24.445  90.054   4.113  0.00  0.00     0.217 HD
ENDBRANCH   6  26
BRANCH   3  28
ATOM     28  C9  TL5 d   1      22.634  88.562   3.555  0.00  0.00    -0.045 C 
ATOM     29  H1  TL5 d   1      21.906  87.775   3.311  0.00  0.00     0.033 H 
ATOM     30  H2  TL5 d   1      22.123  89.385   4.077  0.00  0.00     0.033 H 
ATOM     31  H3  TL5 d   1      23.419  88.147   4.205  0.00  0.00     0.033 H 
ENDBRANCH   3  28
TORSDOF 7
