REMARK  5 active torsions:
REMARK  status: ('A' for Active; 'I' for Inactive)
REMARK    1  A    between atoms: C4_4  and  C10_5 
REMARK    2  A    between atoms: C4_4  and  C5_10 
REMARK    3  A    between atoms: C3_6  and  O2_7 
REMARK    4  A    between atoms: C2_8  and  C9_9 
REMARK    5  A    between atoms: C6_11  and  C7_12 
ROOT
ATOM      1  O1  TL6 d   1      22.266  88.016   1.116  0.00  0.00    -0.280 OA
ATOM      2  C1  TL6 d   1      23.076  88.927   1.182  0.00  0.00     0.218 C 
ATOM      3  S1  TL6 d   1      23.805  89.529  -0.193  0.00  0.00    -0.067 SA
ATOM      4  C4  TL6 d   1      24.693  90.730   0.751  0.00  0.00     0.079 C 
ATOM      5  C3  TL6 d   1      24.380  90.416   2.190  0.00  0.00     0.076 C 
ATOM      6  C2  TL6 d   1      23.436  89.494   2.330  0.00  0.00     0.026 C 
ENDROOT
BRANCH   4   7
ATOM      7  C10 TL6 d   1      24.180  92.118   0.399  0.00  0.00    -0.051 C 
ATOM      8  H1  TL6 d   1      24.729  92.871   0.984  0.00  0.00     0.030 H 
ATOM      9  H2  TL6 d   1      23.107  92.183   0.633  0.00  0.00     0.030 H 
ATOM     10  H3  TL6 d   1      24.333  92.304  -0.674  0.00  0.00     0.030 H 
ENDBRANCH   4   7
BRANCH   4  11
ATOM     11  C5  TL6 d   1      26.189  90.617   0.524  0.00  0.00    -0.079 C 
ATOM     12  C6  TL6 d   1      26.732  90.452  -0.683  0.00  0.00    -0.086 C 
ATOM     13  H9  TL6 d   1      26.101  90.394  -1.568  0.00  0.00     0.083 H 
ATOM     14  H8  TL6 d   1      26.851  90.673   1.387  0.00  0.00     0.079 H 
BRANCH  12  15
ATOM     15  C7  TL6 d   1      28.187  90.350  -0.803  0.00  0.00    -0.092 C 
ATOM     16  C8  TL6 d   1      28.833  90.927  -1.801  0.00  0.00    -0.121 C 
ATOM     17  H11 TL6 d   1      29.916  90.839  -1.872  0.00  0.00     0.066 H 
ATOM     18  H12 TL6 d   1      28.282  91.491  -2.553  0.00  0.00     0.066 H 
ATOM     19  H10 TL6 d   1      28.747  89.789  -0.057  0.00  0.00     0.082 H 
ENDBRANCH  12  15
ENDBRANCH   4  11
BRANCH   5  20
ATOM     20  O2  TL6 d   1      25.005  91.001   3.217  0.00  0.00    -0.362 OA
ATOM     21  H4  TL6 d   1      24.657  90.661   4.033  0.00  0.00     0.217 HD
ENDBRANCH   5  20
BRANCH   6  22
ATOM     22  C9  TL6 d   1      22.824  89.130   3.650  0.00  0.00    -0.045 C 
ATOM     23  H5  TL6 d   1      22.070  88.344   3.500  0.00  0.00     0.033 H 
ATOM     24  H6  TL6 d   1      22.346  90.018   4.090  0.00  0.00     0.033 H 
ATOM     25  H7  TL6 d   1      23.608  88.762   4.328  0.00  0.00     0.033 H 
ENDBRANCH   6  22
TORSDOF 5
