REMARK  16 active torsions:
REMARK  status: ('A' for Active; 'I' for Inactive)
REMARK    1  A    between atoms: CA_2  and  N_1 
REMARK    2  A    between atoms: CA_2  and  CB_5 
REMARK    3  A    between atoms: C_3  and  CA_2 
REMARK       I    between atoms: N_7  and  C_3 
REMARK    4  A    between atoms: CB_5  and  SG_6 
REMARK    5  A    between atoms: CA_8  and  N_7 
REMARK    6  A    between atoms: C_9  and  CA_8 
REMARK       I    between atoms: N_11  and  C_9 
REMARK    7  A    between atoms: CA_12  and  N_11 
REMARK    8  A    between atoms: CA_12  and  CB_15 
REMARK    9  A    between atoms: C_13  and  CA_12 
REMARK       I    between atoms: C_13  and  N_16 
REMARK   10  A    between atoms: N_16  and  CA_17 
REMARK   11  A    between atoms: CA_17  and  CB_20 
REMARK   12  A    between atoms: CA_17  and  C_18 
REMARK   13  A    between atoms: C_18  and  O1_27 
REMARK   14  A    between atoms: CB_20  and  CG_21 
REMARK   15  A    between atoms: CG_21  and  CD_22 
REMARK   16  A    between atoms: CD_22  and  NE_23 
REMARK       I    between atoms: NE_23  and  CZ_24 
REMARK       I    between atoms: CZ_24  and  NH1_25 
ROOT
ATOM      1  CA  LYS d   1      60.069  52.587  10.696  0.00  0.00     0.086 C 
ATOM      2  H12 LYS d   1      59.155  53.189  10.804  0.00  0.00     0.086 H 
ENDROOT
BRANCH   1   3
ATOM      3  N   LYS d   1      60.623  52.801   9.370  0.00  0.00    -0.347 N 
ATOM      4  C   GLY d   1      60.062  53.654   8.520  0.00  0.00     0.236 C 
ATOM      5  O   GLY d   1      58.985  54.172   8.729  0.00  0.00    -0.272 OA
ATOM      6  H11 LYS d   1      61.441  52.297   9.092  0.00  0.00     0.163 HD
BRANCH   4   7
ATOM      7  CA  GLY d   1      60.825  53.936   7.245  0.00  0.00     0.069 C 
ATOM      8  H9  GLY d   1      60.102  54.144   6.442  0.00  0.00     0.078 H 
ATOM      9  H10 GLY d   1      61.460  54.820   7.405  0.00  0.00     0.078 H 
BRANCH   7  10
ATOM     10  N   GLY d   1      61.669  52.827   6.832  0.00  0.00    -0.351 N 
ATOM     11  C   CYS d   1      61.157  51.760   6.243  0.00  0.00     0.249 C 
ATOM     12  O   CYS d   1      59.952  51.517   6.273  0.00  0.00    -0.271 OA
ATOM     13  H8  GLY d   1      62.654  52.872   6.996  0.00  0.00     0.163 HD
BRANCH  11  14
ATOM     14  CA  CYS d   1      62.145  50.868   5.507  0.00  0.00     0.183 C 
ATOM     15  H4  CYS d   1      63.099  50.903   6.053  0.00  0.00     0.100 H 
BRANCH  14  16
ATOM     16  N   CYS d   1      61.714  49.409   5.432  0.00  0.00    -0.066 N 
ATOM     17  H1  CYS d   1      62.411  48.878   4.934  0.00  0.00     0.275 HD
ATOM     18  H2  CYS d   1      60.832  49.343   4.948  0.00  0.00     0.275 HD
ATOM     19  H3  CYS d   1      61.614  49.040   6.365  0.00  0.00     0.275 HD
ENDBRANCH  14  16
BRANCH  14  20
ATOM     20  CB  CYS d   1      62.371  51.428   4.102  0.00  0.00     0.009 C 
ATOM     21  H5  CYS d   1      62.997  50.711   3.550  0.00  0.00     0.052 H 
ATOM     22  H6  CYS d   1      62.908  52.383   4.202  0.00  0.00     0.052 H 
BRANCH  20  23
ATOM     23  SG  CYS d   1      60.880  51.732   3.120  0.00  0.00    -0.180 SA
ATOM     24  H7  CYS d   1      60.295  52.400   3.598  0.00  0.00     0.101 HD
ENDBRANCH  20  23
ENDBRANCH  14  20
ENDBRANCH  11  14
ENDBRANCH   7  10
ENDBRANCH   4   7
ENDBRANCH   1   3
BRANCH   1  25
ATOM     25  CB  LYS d   1      59.694  51.106  10.884  0.00  0.00    -0.049 C 
ATOM     26  H13 LYS d   1      59.276  50.959  11.891  0.00  0.00     0.030 H 
ATOM     27  H14 LYS d   1      60.592  50.482  10.765  0.00  0.00     0.030 H 
ATOM     28  H15 LYS d   1      58.945  50.819  10.131  0.00  0.00     0.030 H 
ENDBRANCH   1  25
BRANCH   1  29
ATOM     29  C   LYS d   1      61.097  53.067  11.734  0.00  0.00     0.240 C 
ATOM     30  O   LYS d   1      62.329  52.844  11.610  0.00  0.00    -0.271 OA
ATOM     31  N   ARG d   1      60.604  53.752  12.747  0.00  0.00    -0.345 N 
ATOM     32  H16 ARG d   1      59.627  53.963  12.761  0.00  0.00     0.163 HD
BRANCH  31  33
ATOM     33  CA  ARG d   1      61.445  54.211  13.850  0.00  0.00     0.093 C 
ATOM     34  H17 ARG d   1      62.474  53.855  13.691  0.00  0.00     0.089 H 
BRANCH  33  35
ATOM     35  CB  ARG d   1      61.449  55.726  13.927  0.00  0.00    -0.035 C 
ATOM     36  H18 ARG d   1      60.441  56.066  14.206  0.00  0.00     0.036 H 
ATOM     37  H19 ARG d   1      61.710  56.127  12.937  0.00  0.00     0.036 H 
BRANCH  35  38
ATOM     38  CG  ARG d   1      62.425  56.253  14.928  0.00  0.00    -0.047 C 
ATOM     39  H20 ARG d   1      63.264  55.545  15.004  0.00  0.00     0.035 H 
ATOM     40  H21 ARG d   1      61.919  56.328  15.902  0.00  0.00     0.035 H 
BRANCH  38  41
ATOM     41  CD  ARG d   1      62.970  57.595  14.574  0.00  0.00     0.009 C 
ATOM     42  H22 ARG d   1      63.371  57.558  13.550  0.00  0.00     0.064 H 
ATOM     43  H23 ARG d   1      63.779  57.848  15.276  0.00  0.00     0.064 H 
BRANCH  41  44
ATOM     44  NE  ARG d   1      61.944  58.628  14.643  0.00  0.00    -0.227 N 
ATOM     45  CZ  ARG d   1      62.167  59.915  14.424  0.00  0.00     0.665 C 
ATOM     46  NH2 ARG d   1      61.168  60.793  14.535  0.00  0.00    -0.235 N 
ATOM     47  NH1 ARG d   1      63.389  60.326  14.114  0.00  0.00    -0.235 N 
ATOM     48  H27 ARG d   1      60.221  60.468  14.776  0.00  0.00     0.174 HD
ATOM     49  H28 ARG d   1      61.344  61.796  14.380  0.00  0.00     0.174 HD
ATOM     50  H25 ARG d   1      63.568  61.326  13.943  0.00  0.00     0.174 HD
ATOM     51  H26 ARG d   1      64.159  59.645  14.044  0.00  0.00     0.174 HD
ATOM     52  H24 ARG d   1      60.984  58.338  14.877  0.00  0.00     0.177 HD
ENDBRANCH  41  44
ENDBRANCH  38  41
ENDBRANCH  35  38
ENDBRANCH  33  35
BRANCH  33  53
ATOM     53  C   ARG d   1      60.912  53.647  15.156  0.00  0.00     0.163 C 
ATOM     54  O   ARG d   1      59.803  53.125  15.156  0.00  0.00    -0.648 OA
BRANCH  53  55
ATOM     55  O1  ARG d   1      61.631  53.718  16.272  0.00  0.00    -0.775 OA
ATOM     56  H29 ARG d   1      61.152  54.213  16.926  0.00  0.00     0.167 HD
ENDBRANCH  53  55
ENDBRANCH  33  53
ENDBRANCH  31  33
ENDBRANCH   1  29
TORSDOF 16
