REMARK  8 active torsions:
REMARK  status: ('A' for Active; 'I' for Inactive)
REMARK    1  A    between atoms: P_2  and  O5'_5 
REMARK    2  A    between atoms: O5'_5  and  C5'_6 
REMARK    3  A    between atoms: C5'_6  and  C4'_7 
REMARK    4  A    between atoms: C3'_8  and  O3'_9 
REMARK    5  A    between atoms: C2'_10  and  O2'_11 
REMARK    6  A    between atoms: C1'_13  and  N1_14 
REMARK    7  A    between atoms: C5_15  and  N6_16 
REMARK    8  A    between atoms: C4_17  and  N7_18 
ROOT
ATOM      1  C4' NIA d   1      13.348 -11.780 -12.767  0.00  0.00     0.089 C 
ATOM      2  C3' NIA d   1      12.538 -13.077 -12.506  0.00  0.00     0.091 C 
ATOM      3  C2' NIA d   1      13.214 -14.092 -13.440  0.00  0.00     0.105 C 
ATOM      4  O4' NIA d   1      14.405 -12.071 -13.715  0.00  0.00    -0.353 OA
ATOM      5  C1' NIA d   1      13.973 -13.175 -14.462  0.00  0.00     0.139 C 
ATOM      6  H3  NIA d   1      12.655 -11.040 -13.193  0.00  0.00     0.090 H 
ATOM      7  H4  NIA d   1      12.626 -13.398 -11.457  0.00  0.00     0.091 H 
ATOM      8  H6  NIA d   1      13.950 -14.670 -12.863  0.00  0.00     0.093 H 
ATOM      9  H8  NIA d   1      13.276 -12.786 -15.218  0.00  0.00     0.122 H 
ENDROOT
BRANCH   5  10
ATOM     10  N1  NIA d   1      14.874 -14.073 -15.154  0.00  0.00    -0.294 N 
ATOM     11  C5  NIA d   1      14.777 -14.288 -16.484  0.00  0.00     0.157 A 
ATOM     12  C4  NIA d   1      15.589 -15.360 -16.772  0.00  0.00     0.240 A 
ATOM     13  N3  NIA d   1      16.244 -15.741 -15.652  0.00  0.00    -0.217 NA
ATOM     14  C2  NIA d   1      15.760 -14.958 -14.663  0.00  0.00     0.072 A 
ATOM     15  H11 NIA d   1      16.047 -15.033 -13.615  0.00  0.00     0.144 H 
BRANCH  11  16
ATOM     16  N6  NIA d   1      13.915 -13.641 -17.316  0.00  0.00    -0.382 N 
ATOM     17  H9  NIA d   1      13.904 -13.864 -18.321  0.00  0.00     0.157 HD
ATOM     18  H10 NIA d   1      13.274 -12.928 -16.940  0.00  0.00     0.157 HD
ENDBRANCH  11  16
BRANCH  12  19
ATOM     19  N7  NIA d   1      15.774 -15.971 -17.958  0.00  0.00    -0.092 N 
ATOM     20  O72 NIA d   1      14.989 -15.749 -18.913  0.00  0.00    -0.530 OA
ATOM     21  O71 NIA d   1      16.485 -17.004 -17.967  0.00  0.00    -0.530 OA
ENDBRANCH  12  19
ENDBRANCH   5  10
BRANCH   3  22
ATOM     22  O2' NIA d   1      12.306 -15.067 -14.060  0.00  0.00    -0.388 OA
ATOM     23  H7  NIA d   1      11.871 -15.569 -13.381  0.00  0.00     0.210 HD
ENDBRANCH   3  22
BRANCH   2  24
ATOM     24  O3' NIA d   1      11.150 -12.861 -12.819  0.00  0.00    -0.390 OA
ATOM     25  H5  NIA d   1      10.662 -13.660 -12.656  0.00  0.00     0.210 HD
ENDBRANCH   2  24
BRANCH   1  26
ATOM     26  C5' NIA d   1      14.044 -11.149 -11.593  0.00  0.00     0.059 C 
ATOM     27  H1  NIA d   1      14.726 -10.363 -11.948  0.00  0.00     0.079 H 
ATOM     28  H2  NIA d   1      13.298 -10.708 -10.916  0.00  0.00     0.079 H 
BRANCH  26  29
ATOM     29  O5' NIA d   1      14.781 -12.140 -10.905  0.00  0.00    -0.280 OA
BRANCH  29  30
ATOM     30  P   NIA d   1      15.601 -11.667  -9.589  0.00  0.00     0.422 P 
ATOM     31  O8  NIA d   1      16.277 -12.941  -9.181  0.00  0.00    -0.617 OA
ATOM     32  O6  NIA d   1      14.590 -11.160  -8.616  0.00  0.00    -0.617 OA
ATOM     33  O7  NIA d   1      16.536 -10.585 -10.075  0.00  0.00    -0.617 OA
ENDBRANCH  29  30
ENDBRANCH  26  29
ENDBRANCH   1  26
TORSDOF 8
