REMARK  12 active torsions:
REMARK  status: ('A' for Active; 'I' for Inactive)
REMARK    1  A    between atoms: C13_1  and  C12_2 
REMARK    2  A    between atoms: C12_2  and  C11_3 
REMARK    3  A    between atoms: C11_3  and  C10_4 
REMARK    4  A    between atoms: C2_8  and  C1_9 
REMARK    5  A    between atoms: C9_16  and  O14_17 
REMARK    6  A    between atoms: O14_17  and  C15_18 
REMARK    7  A    between atoms: C15_18  and  C16_19 
REMARK    8  A    between atoms: C16_19  and  C17_20 
REMARK    9  A    between atoms: C17_20  and  O18_21 
REMARK   10  A    between atoms: O18_21  and  C19_22 
REMARK   11  A    between atoms: N27_30  and  C28_31 
REMARK   12  A    between atoms: C28_31  and  C29_32 
ROOT
ATOM      1  C15 3EA d   1      15.306   3.454  38.264  0.00  0.00     0.028 C 
ATOM      2  H10 3EA d   1      15.137   4.182  39.071  0.00  0.00     0.075 H 
ATOM      3  H11 3EA d   1      14.841   2.494  38.533  0.00  0.00     0.075 H 
ENDROOT
BRANCH   1   4
ATOM      4  O14 3EA d   1      16.714   3.281  38.032  0.00  0.00    -0.350 OA
BRANCH   4   5
ATOM      5  C9  3EA d   1      17.561   3.905  38.896  0.00  0.00     0.077 A 
ATOM      6  C10 3EA d   1      18.824   4.242  38.409  0.00  0.00     0.012 A 
ATOM      7  C5  3EA d   1      19.734   4.819  39.283  0.00  0.00     0.122 A 
ATOM      8  O4  3EA d   1      21.014   5.258  39.081  0.00  0.00    -0.211 OA
ATOM      9  C6  3EA d   1      19.412   5.061  40.615  0.00  0.00     0.036 A 
ATOM     10  N3  3EA d   1      21.490   5.787  40.297  0.00  0.00    -0.122 NA
ATOM     11  C2  3EA d   1      20.516   5.666  41.197  0.00  0.00     0.180 A 
ATOM     12  C7  3EA d   1      18.150   4.719  41.094  0.00  0.00    -0.065 A 
ATOM     13  C8  3EA d   1      17.229   4.142  40.229  0.00  0.00    -0.049 A 
ATOM     14  H8  3EA d   1      17.889   4.901  42.130  0.00  0.00     0.085 H 
ATOM     15  H9  3EA d   1      16.244   3.874  40.593  0.00  0.00     0.087 H 
BRANCH   6  16
ATOM     16  C11 3EA d   1      19.206   3.911  36.963  0.00  0.00    -0.036 C 
ATOM     17  H6  3EA d   1      20.092   3.259  36.972  0.00  0.00     0.040 H 
ATOM     18  H7  3EA d   1      18.366   3.382  36.488  0.00  0.00     0.040 H 
BRANCH  16  19
ATOM     19  C12 3EA d   1      19.525   5.161  36.145  0.00  0.00    -0.065 C 
ATOM     20  H4  3EA d   1      18.631   5.800  36.088  0.00  0.00     0.032 H 
ATOM     21  H5  3EA d   1      20.343   5.716  36.628  0.00  0.00     0.032 H 
BRANCH  19  22
ATOM     22  C13 3EA d   1      19.950   4.752  34.734  0.00  0.00    -0.076 C 
ATOM     23  H1  3EA d   1      20.180   5.652  34.145  0.00  0.00     0.027 H 
ATOM     24  H2  3EA d   1      19.132   4.197  34.251  0.00  0.00     0.027 H 
ATOM     25  H3  3EA d   1      20.844   4.113  34.791  0.00  0.00     0.027 H 
ENDBRANCH  19  22
ENDBRANCH  16  19
ENDBRANCH   6  16
BRANCH  11  26
ATOM     26  C1  3EA d   1      20.628   6.223  42.622  0.00  0.00     0.437 C 
ATOM     27  F34 3EA d   1      19.867   7.301  42.783  0.00  0.00    -0.164 F 
ATOM     28  F33 3EA d   1      20.274   5.329  43.538  0.00  0.00    -0.164 F 
ATOM     29  F32 3EA d   1      21.891   6.572  42.831  0.00  0.00    -0.164 F 
ENDBRANCH  11  26
ENDBRANCH   4   5
ENDBRANCH   1   4
BRANCH   1  30
ATOM     30  C16 3EA d   1      14.729   3.975  36.949  0.00  0.00    -0.024 C 
ATOM     31  H12 3EA d   1      13.678   4.273  37.081  0.00  0.00     0.039 H 
ATOM     32  H13 3EA d   1      14.796   3.204  36.167  0.00  0.00     0.039 H 
BRANCH  30  33
ATOM     33  C17 3EA d   1      15.586   5.186  36.580  0.00  0.00     0.028 C 
ATOM     34  H14 3EA d   1      16.582   4.843  36.264  0.00  0.00     0.075 H 
ATOM     35  H15 3EA d   1      15.685   5.841  37.458  0.00  0.00     0.075 H 
BRANCH  33  36
ATOM     36  O18 3EA d   1      14.977   5.919  35.510  0.00  0.00    -0.351 OA
BRANCH  36  37
ATOM     37  C19 3EA d   1      15.724   7.007  35.186  0.00  0.00     0.069 A 
ATOM     38  C20 3EA d   1      15.416   8.244  35.750  0.00  0.00    -0.039 A 
ATOM     39  C21 3EA d   1      16.100   9.372  35.318  0.00  0.00    -0.005 A 
ATOM     40  H16 3EA d   1      14.653   8.324  36.516  0.00  0.00     0.089 H 
ATOM     41  C22 3EA d   1      17.093   9.261  34.344  0.00  0.00     0.045 A 
ATOM     42  C25 3EA d   1      15.985  10.667  35.607  0.00  0.00    -0.056 A 
ATOM     43  C23 3EA d   1      17.409   8.022  33.795  0.00  0.00    -0.054 A 
ATOM     44  N27 3EA d   1      17.522  10.495  34.112  0.00  0.00    -0.346 N 
ATOM     45  C24 3EA d   1      16.716   6.890  34.217  0.00  0.00    -0.049 A 
ATOM     46  H18 3EA d   1      18.188   7.939  33.045  0.00  0.00     0.087 H 
ATOM     47  H17 3EA d   1      16.949   5.920  33.792  0.00  0.00     0.087 H 
ATOM     48  C26 3EA d   1      16.847  11.361  34.868  0.00  0.00    -0.019 A 
ATOM     49  H20 3EA d   1      16.978  12.442  34.879  0.00  0.00     0.111 H 
ATOM     50  H19 3EA d   1      15.294  11.091  36.334  0.00  0.00     0.086 H 
BRANCH  44  51
ATOM     51  C28 3EA d   1      18.680  10.836  33.271  0.00  0.00     0.079 C 
ATOM     52  H21 3EA d   1      19.473  10.088  33.419  0.00  0.00     0.081 H 
ATOM     53  H22 3EA d   1      19.057  11.830  33.553  0.00  0.00     0.081 H 
BRANCH  51  54
ATOM     54  C29 3EA d   1      18.261  10.849  31.797  0.00  0.00     0.191 C 
ATOM     55  O31 3EA d   1      19.167  10.664  30.957  0.00  0.00    -0.647 OA
ATOM     56  O30 3EA d   1      17.052  11.039  31.542  0.00  0.00    -0.647 OA
ENDBRANCH  51  54
ENDBRANCH  44  51
ENDBRANCH  36  37
ENDBRANCH  33  36
ENDBRANCH  30  33
ENDBRANCH   1  30
TORSDOF 12
