REMARK WARNING: 32 MAX_TORS EXCEEDED!!!
REMARK  71 active torsions:
REMARK  status: ('A' for Active; 'I' for Inactive)
REMARK    1  A    between atoms: C1A_1  and  C2A_2 
REMARK       I    between atoms: C1A_1  and  N_4 
REMARK    2  A    between atoms: N_4  and  CA_5 
REMARK    3  A    between atoms: CA_5  and  C_6 
REMARK    4  A    between atoms: CA_5  and  CB_8 
REMARK       I    between atoms: C_6  and  N_10 
REMARK    5  A    between atoms: CB_8  and  OG_9 
REMARK    6  A    between atoms: N_10  and  CA_11 
REMARK    7  A    between atoms: CA_11  and  C_12 
REMARK    8  A    between atoms: CA_11  and  CB_14 
REMARK       I    between atoms: C_12  and  N_18 
REMARK    9  A    between atoms: CB_14  and  CG_15 
REMARK   10  A    between atoms: CG_15  and  CD1_16 
REMARK   11  A    between atoms: CG_15  and  CD2_17 
REMARK   12  A    between atoms: N_18  and  CA_19 
REMARK   13  A    between atoms: CA_19  and  C_20 
REMARK   14  A    between atoms: CA_19  and  CB_22 
REMARK       I    between atoms: C_20  and  N_26 
REMARK   15  A    between atoms: CB_22  and  CG_23 
REMARK   16  A    between atoms: CG_23  and  SD_24 
REMARK   17  A    between atoms: SD_24  and  CE_25 
REMARK   18  A    between atoms: N_26  and  CA_27 
REMARK   19  A    between atoms: CA_27  and  C_28 
REMARK   20  A    between atoms: CA_27  and  CB_30 
REMARK       I    between atoms: C_28  and  N_37 
REMARK   21  A    between atoms: CB_30  and  CG_31 
REMARK   22  A    between atoms: CG_31  and  CD_32 
REMARK   23  A    between atoms: CD_32  and  NE_33 
REMARK       I    between atoms: NE_33  and  CZ_34 
REMARK       I    between atoms: CZ_34  and  NH1_35 
REMARK       I    between atoms: CZ_34  and  NH2_36 
REMARK   24  A    between atoms: N_37  and  CA_38 
REMARK   25  A    between atoms: CA_38  and  C_39 
REMARK   26  A    between atoms: CA_38  and  CB_41 
REMARK       I    between atoms: C_39  and  N_44 
REMARK   27  A    between atoms: CB_41  and  CG1_42 
REMARK   28  A    between atoms: CB_41  and  CG2_43 
REMARK   29  A    between atoms: N_44  and  CA_45 
REMARK   30  A    between atoms: CA_45  and  C_46 
REMARK   31  A    between atoms: CA_45  and  CB_48 
REMARK       I    between atoms: C_46  and  N_53 
REMARK   32  A    between atoms: CB_48  and  CG_49 
REMARK   33  A    between atoms: CG_49  and  CD_50 
REMARK       I    between atoms: CD_50  and  NE2_52 
REMARK   34  A    between atoms: N_53  and  CA_54 
REMARK   35  A    between atoms: CA_54  and  C_55 
REMARK   36  A    between atoms: CA_54  and  CB_57 
REMARK       I    between atoms: C_55  and  N_58 
REMARK   37  A    between atoms: N_58  and  CA_59 
REMARK   38  A    between atoms: CA_59  and  C_60 
REMARK   39  A    between atoms: CA_59  and  CB_62 
REMARK       I    between atoms: C_60  and  N_68 
REMARK   40  A    between atoms: CB_62  and  CG_63 
REMARK   41  A    between atoms: N_68  and  CA_69 
REMARK   42  A    between atoms: CA_69  and  C_70 
REMARK   43  A    between atoms: CA_69  and  CB_72 
REMARK       I    between atoms: C_70  and  N_76 
REMARK   44  A    between atoms: CB_72  and  CG1_73 
REMARK   45  A    between atoms: CB_72  and  CG2_74 
REMARK   46  A    between atoms: CG1_73  and  CD1_75 
REMARK   47  A    between atoms: N_76  and  CA_77 
REMARK   48  A    between atoms: CA_77  and  C_78 
REMARK   49  A    between atoms: CA_77  and  CB_80 
REMARK       I    between atoms: C_78  and  N_87 
REMARK   50  A    between atoms: CB_80  and  CG_81 
REMARK   51  A    between atoms: CG_81  and  CD_82 
REMARK   52  A    between atoms: CD_82  and  NE_83 
REMARK       I    between atoms: NE_83  and  CZ_84 
REMARK       I    between atoms: CZ_84  and  NH1_85 
REMARK       I    between atoms: CZ_84  and  NH2_86 
REMARK   53  A    between atoms: N_87  and  CA_88 
REMARK   54  A    between atoms: CA_88  and  C_89 
REMARK   55  A    between atoms: CA_88  and  CB_91 
REMARK       I    between atoms: C_89  and  N_96 
REMARK   56  A    between atoms: CB_91  and  CG_92 
REMARK   57  A    between atoms: CG_92  and  CD_93 
REMARK   58  A    between atoms: CD_93  and  CE_94 
REMARK   59  A    between atoms: CE_94  and  NZ_95 
REMARK   60  A    between atoms: N_96  and  CA_97 
REMARK   61  A    between atoms: CA_97  and  C_98 
REMARK   62  A    between atoms: CA_97  and  CB_100 
REMARK       I    between atoms: C_98  and  N_107 
REMARK   63  A    between atoms: CB_100  and  CG_101 
REMARK   64  A    between atoms: CG_101  and  CD_102 
REMARK   65  A    between atoms: CD_102  and  NE_103 
REMARK       I    between atoms: NE_103  and  CZ_104 
REMARK       I    between atoms: CZ_104  and  NH1_105 
REMARK   66  A    between atoms: N_107  and  CA_108 
REMARK   67  A    between atoms: CA_108  and  C_109 
REMARK   68  A    between atoms: CA_108  and  CB_111 
REMARK       I    between atoms: C_109  and  N_115 
REMARK   69  A    between atoms: CB_111  and  CG_112 
REMARK   70  A    between atoms: CG_112  and  SD_113 
REMARK   71  A    between atoms: SD_113  and  CE_114 
ROOT
ATOM      1  CA  HIS d   1      67.646  16.705   5.962  0.00  0.00     0.094 C 
ATOM      2  H65 HIS d   1      67.057  17.124   6.791  0.00  0.00     0.088 H 
ENDROOT
BRANCH   1   3
ATOM      3  N   HIS d   1      68.185  17.818   5.188  0.00  0.00    -0.346 N 
ATOM      4  C   ALA d   1      68.724  18.889   5.765  0.00  0.00     0.240 C 
ATOM      5  O   ALA d   1      68.775  19.045   6.988  0.00  0.00    -0.271 OA
ATOM      6  H64 HIS d   1      68.148  17.774   4.190  0.00  0.00     0.163 HD
BRANCH   4   7
ATOM      7  CA  ALA d   1      69.296  19.947   4.822  0.00  0.00     0.086 C 
ATOM      8  H60 ALA d   1      70.108  20.465   5.354  0.00  0.00     0.086 H 
BRANCH   7   9
ATOM      9  N   ALA d   1      69.865  19.354   3.610  0.00  0.00    -0.346 N 
ATOM     10  C   GLN d   1      70.974  18.615   3.626  0.00  0.00     0.241 C 
ATOM     11  O   GLN d   1      71.600  18.357   4.659  0.00  0.00    -0.271 OA
ATOM     12  H59 ALA d   1      69.404  19.509   2.736  0.00  0.00     0.163 HD
BRANCH  10  13
ATOM     13  CA  GLN d   1      71.454  18.075   2.277  0.00  0.00     0.090 C 
ATOM     14  H52 GLN d   1      72.109  17.215   2.478  0.00  0.00     0.087 H 
BRANCH  13  15
ATOM     15  N   GLN d   1      70.357  17.605   1.426  0.00  0.00    -0.346 N 
ATOM     16  C   VAL d   1      69.569  16.580   1.750  0.00  0.00     0.241 C 
ATOM     17  O   VAL d   1      69.689  15.926   2.792  0.00  0.00    -0.271 OA
ATOM     18  H51 GLN d   1      70.192  18.076   0.560  0.00  0.00     0.163 HD
BRANCH  16  19
ATOM     19  CA  VAL d   1      68.459  16.244   0.749  0.00  0.00     0.092 C 
ATOM     20  H43 VAL d   1      67.725  15.608   1.265  0.00  0.00     0.088 H 
BRANCH  19  21
ATOM     21  N   VAL d   1      67.755  17.450   0.296  0.00  0.00    -0.346 N 
ATOM     22  C   ARG d   1      67.146  18.298   1.129  0.00  0.00     0.241 C 
ATOM     23  O   ARG d   1      67.142  18.163   2.353  0.00  0.00    -0.271 OA
ATOM     24  H42 VAL d   1      67.730  17.646  -0.684  0.00  0.00     0.163 HD
BRANCH  22  25
ATOM     25  CA  ARG d   1      66.436  19.491   0.484  0.00  0.00     0.089 C 
ATOM     26  H30 ARG d   1      66.177  20.211   1.275  0.00  0.00     0.087 H 
BRANCH  25  27
ATOM     27  N   ARG d   1      67.300  20.159  -0.485  0.00  0.00    -0.346 N 
ATOM     28  C   MET d   1      68.437  20.764  -0.148  0.00  0.00     0.241 C 
ATOM     29  O   MET d   1      68.823  20.872   1.017  0.00  0.00    -0.271 OA
ATOM     30  H29 ARG d   1      67.025  20.162  -1.446  0.00  0.00     0.163 HD
BRANCH  28  31
ATOM     31  CA  MET d   1      69.270  21.333  -1.305  0.00  0.00     0.090 C 
ATOM     32  H21 MET d   1      70.305  21.458  -0.954  0.00  0.00     0.087 H 
BRANCH  31  33
ATOM     33  N   MET d   1      69.281  20.431  -2.461  0.00  0.00    -0.346 N 
ATOM     34  C   LEU d   1      69.646  19.148  -2.406  0.00  0.00     0.241 C 
ATOM     35  O   LEU d   1      70.102  18.606  -1.396  0.00  0.00    -0.271 OA
ATOM     36  H20 MET d   1      68.997  20.800  -3.346  0.00  0.00     0.163 HD
BRANCH  34  37
ATOM     37  CA  LEU d   1      69.473  18.347  -3.698  0.00  0.00     0.089 C 
ATOM     38  H10 LEU d   1      69.286  17.298  -3.423  0.00  0.00     0.087 H 
BRANCH  37  39
ATOM     39  N   LEU d   1      68.327  18.818  -4.477  0.00  0.00    -0.346 N 
ATOM     40  C   SAC d   1      67.076  18.666  -4.053  0.00  0.00     0.243 C 
ATOM     41  O   SAC d   1      66.791  18.078  -3.020  0.00  0.00    -0.271 OA
ATOM     42  H9  LEU d   1      68.490  19.268  -5.355  0.00  0.00     0.163 HD
BRANCH  40  43
ATOM     43  CA  SAC d   1      65.996  19.268  -4.926  0.00  0.00     0.109 C 
ATOM     44  H5  SAC d   1      66.137  18.915  -5.958  0.00  0.00     0.090 H 
BRANCH  43  45
ATOM     45  N   SAC d   1      64.647  18.950  -4.468  0.00  0.00    -0.346 N 
ATOM     46  C1A SAC d   1      63.739  18.323  -5.219  0.00  0.00     0.214 C 
ATOM     47  OAC SAC d   1      62.617  18.075  -4.807  0.00  0.00    -0.274 OA
ATOM     48  H4  SAC d   1      64.389  19.217  -3.539  0.00  0.00     0.163 HD
BRANCH  46  49
ATOM     49  C2A SAC d   1      64.150  17.924  -6.604  0.00  0.00    -0.003 C 
ATOM     50  H1  SAC d   1      65.190  18.235  -6.782  0.00  0.00     0.040 H 
ATOM     51  H2  SAC d   1      63.491  18.412  -7.337  0.00  0.00     0.040 H 
ATOM     52  H3  SAC d   1      64.071  16.832  -6.710  0.00  0.00     0.040 H 
ENDBRANCH  46  49
ENDBRANCH  43  45
BRANCH  43  53
ATOM     53  CB  SAC d   1      66.051  20.792  -4.866  0.00  0.00     0.044 C 
ATOM     54  H6  SAC d   1      65.257  21.207  -5.504  0.00  0.00     0.077 H 
ATOM     55  H7  SAC d   1      67.031  21.133  -5.232  0.00  0.00     0.077 H 
BRANCH  53  56
ATOM     56  OG  SAC d   1      65.864  21.255  -3.520  0.00  0.00    -0.398 OA
ATOM     57  H8  SAC d   1      65.902  22.204  -3.505  0.00  0.00     0.209 HD
ENDBRANCH  53  56
ENDBRANCH  43  53
ENDBRANCH  40  43
ENDBRANCH  37  39
BRANCH  37  58
ATOM     58  CB  LEU d   1      70.755  18.399  -4.536  0.00  0.00    -0.035 C 
ATOM     59  H11 LEU d   1      70.899  19.444  -4.847  0.00  0.00     0.037 H 
ATOM     60  H12 LEU d   1      70.589  17.772  -5.424  0.00  0.00     0.037 H 
BRANCH  58  61
ATOM     61  CG  LEU d   1      72.064  17.933  -3.889  0.00  0.00    -0.059 C 
ATOM     62  H13 LEU d   1      72.207  18.506  -2.961  0.00  0.00     0.038 H 
BRANCH  61  63
ATOM     63  CD1 LEU d   1      72.012  16.451  -3.522  0.00  0.00    -0.073 C 
ATOM     64  H14 LEU d   1      72.966  16.154  -3.062  0.00  0.00     0.028 H 
ATOM     65  H15 LEU d   1      71.841  15.854  -4.430  0.00  0.00     0.028 H 
ATOM     66  H16 LEU d   1      71.192  16.278  -2.810  0.00  0.00     0.028 H 
ENDBRANCH  61  63
BRANCH  61  67
ATOM     67  CD2 LEU d   1      73.237  18.221  -4.806  0.00  0.00    -0.073 C 
ATOM     68  H17 LEU d   1      73.253  19.292  -5.056  0.00  0.00     0.028 H 
ATOM     69  H18 LEU d   1      73.135  17.631  -5.729  0.00  0.00     0.028 H 
ATOM     70  H19 LEU d   1      74.174  17.949  -4.299  0.00  0.00     0.028 H 
ENDBRANCH  61  67
ENDBRANCH  58  61
ENDBRANCH  37  58
ENDBRANCH  34  37
ENDBRANCH  31  33
BRANCH  31  71
ATOM     71  CB  MET d   1      68.729  22.701  -1.730  0.00  0.00    -0.030 C 
ATOM     72  H22 MET d   1      67.632  22.633  -1.778  0.00  0.00     0.037 H 
ATOM     73  H23 MET d   1      69.126  22.928  -2.730  0.00  0.00     0.037 H 
BRANCH  71  74
ATOM     74  CG  MET d   1      69.088  23.858  -0.808  0.00  0.00    -0.021 C 
ATOM     75  H24 MET d   1      70.105  23.693  -0.424  0.00  0.00     0.049 H 
ATOM     76  H25 MET d   1      68.376  23.868   0.031  0.00  0.00     0.049 H 
BRANCH  74  77
ATOM     77  SD  MET d   1      69.038  25.481  -1.622  0.00  0.00    -0.173 SA
BRANCH  77  78
ATOM     78  CE  MET d   1      67.280  25.683  -1.938  0.00  0.00    -0.035 C 
ATOM     79  H26 MET d   1      67.106  26.647  -2.439  0.00  0.00     0.041 H 
ATOM     80  H27 MET d   1      66.731  25.661  -0.985  0.00  0.00     0.041 H 
ATOM     81  H28 MET d   1      66.927  24.865  -2.583  0.00  0.00     0.041 H 
ENDBRANCH  77  78
ENDBRANCH  74  77
ENDBRANCH  71  74
ENDBRANCH  31  71
ENDBRANCH  28  31
ENDBRANCH  25  27
BRANCH  25  82
ATOM     82  CB  ARG d   1      65.145  19.028  -0.200  0.00  0.00    -0.036 C 
ATOM     83  H31 ARG d   1      65.394  18.189  -0.866  0.00  0.00     0.036 H 
ATOM     84  H32 ARG d   1      64.755  19.866  -0.796  0.00  0.00     0.036 H 
BRANCH  82  85
ATOM     85  CG  ARG d   1      64.047  18.571   0.742  0.00  0.00    -0.048 C 
ATOM     86  H33 ARG d   1      63.717  19.426   1.351  0.00  0.00     0.035 H 
ATOM     87  H34 ARG d   1      64.443  17.783   1.400  0.00  0.00     0.035 H 
BRANCH  85  88
ATOM     88  CD  ARG d   1      62.857  18.022  -0.030  0.00  0.00     0.009 C 
ATOM     89  H35 ARG d   1      62.244  17.418   0.655  0.00  0.00     0.064 H 
ATOM     90  H36 ARG d   1      63.232  17.385  -0.844  0.00  0.00     0.064 H 
BRANCH  88  91
ATOM     91  NE  ARG d   1      62.014  19.069  -0.609  0.00  0.00    -0.227 N 
ATOM     92  CZ  ARG d   1      60.961  19.612  -0.002  0.00  0.00     0.665 C 
ATOM     93  NH1 ARG d   1      60.614  19.222   1.216  0.00  0.00    -0.235 N 
ATOM     94  NH2 ARG d   1      60.253  20.553  -0.613  0.00  0.00    -0.235 N 
ATOM     95  H38 ARG d   1      59.798  19.646   1.680  0.00  0.00     0.174 HD
ATOM     96  H39 ARG d   1      61.160  18.494   1.699  0.00  0.00     0.174 HD
ATOM     97  H40 ARG d   1      60.516  20.862  -1.560  0.00  0.00     0.174 HD
ATOM     98  H41 ARG d   1      59.441  20.974  -0.141  0.00  0.00     0.174 HD
ATOM     99  H37 ARG d   1      62.252  19.409  -1.552  0.00  0.00     0.177 HD
ENDBRANCH  88  91
ENDBRANCH  85  88
ENDBRANCH  82  85
ENDBRANCH  25  82
ENDBRANCH  22  25
ENDBRANCH  19  21
BRANCH  19 100
ATOM    100  CB  VAL d   1      69.033  15.428  -0.448  0.00  0.00    -0.033 C 
ATOM    101  H44 VAL d   1      69.652  16.105  -1.055  0.00  0.00     0.042 H 
BRANCH 100 102
ATOM    102  CG1 VAL d   1      69.917  14.278   0.030  0.00  0.00    -0.071 C 
ATOM    103  H45 VAL d   1      70.303  13.726  -0.840  0.00  0.00     0.028 H 
ATOM    104  H46 VAL d   1      69.326  13.599   0.662  0.00  0.00     0.028 H 
ATOM    105  H47 VAL d   1      70.759  14.680   0.612  0.00  0.00     0.028 H 
ENDBRANCH 100 102
BRANCH 100 106
ATOM    106  CG2 VAL d   1      67.915  14.898  -1.321  0.00  0.00    -0.071 C 
ATOM    107  H48 VAL d   1      67.286  15.735  -1.659  0.00  0.00     0.028 H 
ATOM    108  H49 VAL d   1      67.303  14.189  -0.744  0.00  0.00     0.028 H 
ATOM    109  H50 VAL d   1      68.344  14.385  -2.195  0.00  0.00     0.028 H 
ENDBRANCH 100 106
ENDBRANCH  19 100
ENDBRANCH  16  19
ENDBRANCH  13  15
BRANCH  13 110
ATOM    110  CB  GLN d   1      72.279  19.141   1.544  0.00  0.00    -0.030 C 
ATOM    111  H53 GLN d   1      72.975  19.598   2.263  0.00  0.00     0.037 H 
ATOM    112  H54 GLN d   1      71.592  19.909   1.160  0.00  0.00     0.037 H 
BRANCH 110 113
ATOM    113  CG  GLN d   1      73.088  18.588   0.374  0.00  0.00     0.011 C 
ATOM    114  H55 GLN d   1      72.449  17.898  -0.197  0.00  0.00     0.047 H 
ATOM    115  H56 GLN d   1      73.953  18.039   0.776  0.00  0.00     0.047 H 
BRANCH 113 116
ATOM    116  CD  GLN d   1      73.596  19.663  -0.567  0.00  0.00     0.215 C 
ATOM    117  OE1 GLN d   1      72.967  20.710  -0.737  0.00  0.00    -0.274 OA
ATOM    118  NE2 GLN d   1      74.737  19.402  -1.195  0.00  0.00    -0.370 N 
ATOM    119  H57 GLN d   1      75.124  20.072  -1.829  0.00  0.00     0.159 HD
ATOM    120  H58 GLN d   1      75.210  18.535  -1.034  0.00  0.00     0.159 HD
ENDBRANCH 113 116
ENDBRANCH 110 113
ENDBRANCH  13 110
ENDBRANCH  10  13
ENDBRANCH   7   9
BRANCH   7 121
ATOM    121  CB  ALA d   1      68.235  20.978   4.467  0.00  0.00    -0.049 C 
ATOM    122  H61 ALA d   1      67.821  21.411   5.390  0.00  0.00     0.030 H 
ATOM    123  H62 ALA d   1      67.430  20.494   3.896  0.00  0.00     0.030 H 
ATOM    124  H63 ALA d   1      68.687  21.775   3.859  0.00  0.00     0.030 H 
ENDBRANCH   7 121
ENDBRANCH   4   7
ENDBRANCH   1   3
BRANCH   1 125
ATOM    125  C   HIS d   1      68.759  15.854   6.564  0.00  0.00     0.241 C 
ATOM    126  O   HIS d   1      68.656  15.422   7.712  0.00  0.00    -0.271 OA
ATOM    127  N   ILE d   1      69.817  15.625   5.787  0.00  0.00    -0.346 N 
ATOM    128  H71 ILE d   1      69.799  15.953   4.842  0.00  0.00     0.163 HD
BRANCH 127 129
ATOM    129  CA  ILE d   1      71.004  14.914   6.260  0.00  0.00     0.092 C 
ATOM    130  H72 ILE d   1      70.695  13.903   6.564  0.00  0.00     0.088 H 
BRANCH 129 131
ATOM    131  C   ILE d   1      71.606  15.617   7.480  0.00  0.00     0.241 C 
ATOM    132  O   ILE d   1      71.948  14.973   8.473  0.00  0.00    -0.271 OA
ATOM    133  N   ARG d   1      71.714  16.940   7.395  0.00  0.00    -0.346 N 
ATOM    134  H82 ARG d   1      71.417  17.392   6.554  0.00  0.00     0.163 HD
BRANCH 133 135
ATOM    135  CA  ARG d   1      72.248  17.758   8.478  0.00  0.00     0.089 C 
ATOM    136  H83 ARG d   1      73.227  17.343   8.761  0.00  0.00     0.087 H 
BRANCH 135 137
ATOM    137  C   ARG d   1      71.356  17.747   9.721  0.00  0.00     0.241 C 
ATOM    138  O   ARG d   1      71.856  17.825  10.844  0.00  0.00    -0.271 OA
ATOM    139  N   LYS d   1      70.042  17.645   9.515  0.00  0.00    -0.346 N 
ATOM    140  H95 LYS d   1      69.701  17.592   8.576  0.00  0.00     0.163 HD
BRANCH 139 141
ATOM    141  CA  LYS d   1      69.081  17.608  10.623  0.00  0.00     0.089 C 
ATOM    142  H96 LYS d   1      69.307  18.459  11.283  0.00  0.00     0.087 H 
BRANCH 141 143
ATOM    143  C   LYS d   1      69.207  16.330  11.458  0.00  0.00     0.241 C 
ATOM    144  O   LYS d   1      68.809  16.304  12.622  0.00  0.00    -0.271 OA
ATOM    145  N   ARG d   1      69.760  15.278  10.857  0.00  0.00    -0.346 N 
ATOM    146 8H10 ARG d   1      69.959  15.332   9.878  0.00  0.00     0.163 HD
BRANCH 145 147
ATOM    147  CA  ARG d   1      70.088  14.046  11.575  0.00  0.00     0.089 C 
ATOM    148 9H10 ARG d   1      69.286  13.853  12.303  0.00  0.00     0.087 H 
BRANCH 147 149
ATOM    149  C   ARG d   1      71.407  14.175  12.345  0.00  0.00     0.241 C 
ATOM    150  O   ARG d   1      72.063  13.170  12.634  0.00  0.00    -0.271 OA
ATOM    151  N   MET d   1      71.772  15.415  12.679  0.00  0.00    -0.346 N 
ATOM    152 1H12 MET d   1      71.151  16.164  12.446  0.00  0.00     0.163 HD
BRANCH 151 153
ATOM    153  CA  MET d   1      73.028  15.751  13.367  0.00  0.00     0.090 C 
ATOM    154 2H12 MET d   1      73.132  16.846  13.331  0.00  0.00     0.087 H 
BRANCH 153 155
ATOM    155  C   MET d   1      74.258  15.159  12.667  0.00  0.00     0.238 C 
ATOM    156  O   MET d   1      75.070  14.464  13.284  0.00  0.00    -0.271 OA
ATOM    157  N   VAL d   1      74.382  15.440  11.374  0.00  0.00    -0.368 N 
ATOM    158 0H13 VAL d   1      75.161  15.085  10.858  0.00  0.00     0.159 HD
ATOM    159 1H13 VAL d   1      73.696  16.006  10.917  0.00  0.00     0.159 HD
ENDBRANCH 153 155
BRANCH 153 160
ATOM    160  CB  MET d   1      72.984  15.346  14.850  0.00  0.00    -0.030 C 
ATOM    161 3H12 MET d   1      74.005  15.417  15.254  0.00  0.00     0.037 H 
ATOM    162 4H12 MET d   1      72.639  14.303  14.909  0.00  0.00     0.037 H 
BRANCH 160 163
ATOM    163  CG  MET d   1      72.067  16.199  15.727  0.00  0.00    -0.021 C 
ATOM    164 5H12 MET d   1      72.227  17.256  15.470  0.00  0.00     0.049 H 
ATOM    165 6H12 MET d   1      72.341  16.032  16.779  0.00  0.00     0.049 H 
BRANCH 163 166
ATOM    166  SD  MET d   1      70.311  15.825  15.530  0.00  0.00    -0.173 SA
BRANCH 166 167
ATOM    167  CE  MET d   1      69.615  16.685  16.941  0.00  0.00    -0.035 C 
ATOM    168 7H12 MET d   1      68.524  16.545  16.954  0.00  0.00     0.041 H 
ATOM    169 8H12 MET d   1      69.846  17.758  16.867  0.00  0.00     0.041 H 
ATOM    170 9H12 MET d   1      70.048  16.280  17.867  0.00  0.00     0.041 H 
ENDBRANCH 166 167
ENDBRANCH 163 166
ENDBRANCH 160 163
ENDBRANCH 153 160
ENDBRANCH 151 153
ENDBRANCH 147 149
BRANCH 147 171
ATOM    171  CB  ARG d   1      70.154  12.858  10.606  0.00  0.00    -0.036 C 
ATOM    172 0H11 ARG d   1      70.959  12.188  10.941  0.00  0.00     0.036 H 
ATOM    173 1H11 ARG d   1      70.393  13.246   9.605  0.00  0.00     0.036 H 
BRANCH 171 174
ATOM    174  CG  ARG d   1      68.872  12.043  10.503  0.00  0.00    -0.048 C 
ATOM    175 2H11 ARG d   1      68.401  11.999  11.496  0.00  0.00     0.035 H 
ATOM    176 3H11 ARG d   1      69.126  11.025  10.172  0.00  0.00     0.035 H 
BRANCH 174 177
ATOM    177  CD  ARG d   1      67.881  12.644   9.518  0.00  0.00     0.009 C 
ATOM    178 4H11 ARG d   1      68.381  12.781   8.548  0.00  0.00     0.064 H 
ATOM    179 5H11 ARG d   1      67.547  13.620   9.899  0.00  0.00     0.064 H 
BRANCH 177 180
ATOM    180  NE  ARG d   1      66.713  11.784   9.331  0.00  0.00    -0.227 N 
ATOM    181  CZ  ARG d   1      66.641  10.780   8.459  0.00  0.00     0.665 C 
ATOM    182  NH1 ARG d   1      67.673  10.488   7.676  0.00  0.00    -0.235 N 
ATOM    183  NH2 ARG d   1      65.530  10.062   8.369  0.00  0.00    -0.235 N 
ATOM    184 7H11 ARG d   1      67.606   9.709   7.005  0.00  0.00     0.174 HD
ATOM    185 8H11 ARG d   1      68.540  11.040   7.739  0.00  0.00     0.174 HD
ATOM    186 9H11 ARG d   1      64.725  10.281   8.973  0.00  0.00     0.174 HD
ATOM    187 0H12 ARG d   1      65.472   9.285   7.696  0.00  0.00     0.174 HD
ATOM    188 6H11 ARG d   1      65.886  11.968   9.916  0.00  0.00     0.177 HD
ENDBRANCH 177 180
ENDBRANCH 174 177
ENDBRANCH 171 174
ENDBRANCH 147 171
ENDBRANCH 145 147
ENDBRANCH 141 143
BRANCH 141 189
ATOM    189  CB  LYS d   1      67.645  17.779  10.117  0.00  0.00    -0.038 C 
ATOM    190  H97 LYS d   1      67.267  16.796   9.799  0.00  0.00     0.036 H 
ATOM    191  H98 LYS d   1      67.657  18.463   9.255  0.00  0.00     0.036 H 
BRANCH 189 192
ATOM    192  CG  LYS d   1      66.699  18.344  11.170  0.00  0.00    -0.061 C 
ATOM    193  H99 LYS d   1      66.857  19.430  11.239  0.00  0.00     0.033 H 
ATOM    194 0H10 LYS d   1      66.931  17.878  12.139  0.00  0.00     0.033 H 
BRANCH 192 195
ATOM    195  CD  LYS d   1      65.238  18.084  10.843  0.00  0.00    -0.043 C 
ATOM    196 1H10 LYS d   1      65.103  17.017  10.613  0.00  0.00     0.035 H 
ATOM    197 2H10 LYS d   1      64.949  18.687   9.970  0.00  0.00     0.035 H 
BRANCH 195 198
ATOM    198  CE  LYS d   1      64.353  18.459  12.027  0.00  0.00     0.080 C 
ATOM    199 3H10 LYS d   1      64.483  19.531  12.238  0.00  0.00     0.075 H 
ATOM    200 4H10 LYS d   1      64.669  17.872  12.902  0.00  0.00     0.075 H 
BRANCH 198 201
ATOM    201  NZ  LYS d   1      62.910  18.195  11.773  0.00  0.00    -0.079 N 
ATOM    202 5H10 LYS d   1      62.372  18.459  12.584  0.00  0.00     0.274 HD
ATOM    203 6H10 LYS d   1      62.776  17.214  11.586  0.00  0.00     0.274 HD
ATOM    204 7H10 LYS d   1      62.605  18.733  10.977  0.00  0.00     0.274 HD
ENDBRANCH 198 201
ENDBRANCH 195 198
ENDBRANCH 192 195
ENDBRANCH 189 192
ENDBRANCH 141 189
ENDBRANCH 139 141
ENDBRANCH 135 137
BRANCH 135 205
ATOM    205  CB  ARG d   1      72.454  19.196   8.000  0.00  0.00    -0.036 C 
ATOM    206  H84 ARG d   1      72.538  19.842   8.887  0.00  0.00     0.036 H 
ATOM    207  H85 ARG d   1      71.571  19.491   7.414  0.00  0.00     0.036 H 
BRANCH 205 208
ATOM    208  CG  ARG d   1      73.682  19.415   7.141  0.00  0.00    -0.048 C 
ATOM    209  H86 ARG d   1      73.538  18.913   6.173  0.00  0.00     0.035 H 
ATOM    210  H87 ARG d   1      74.558  18.986   7.649  0.00  0.00     0.035 H 
BRANCH 208 211
ATOM    211  CD  ARG d   1      73.923  20.896   6.902  0.00  0.00     0.009 C 
ATOM    212  H88 ARG d   1      73.945  21.415   7.872  0.00  0.00     0.064 H 
ATOM    213  H89 ARG d   1      73.102  21.297   6.290  0.00  0.00     0.064 H 
BRANCH 211 214
ATOM    214  NE  ARG d   1      75.188  21.131   6.210  0.00  0.00    -0.227 N 
ATOM    215  CZ  ARG d   1      75.304  21.406   4.914  0.00  0.00     0.665 C 
ATOM    216  NH1 ARG d   1      74.228  21.494   4.140  0.00  0.00    -0.235 N 
ATOM    217  NH2 ARG d   1      76.505  21.598   4.388  0.00  0.00    -0.235 N 
ATOM    218  H91 ARG d   1      74.331  21.708   3.138  0.00  0.00     0.174 HD
ATOM    219  H92 ARG d   1      73.291  21.349   4.542  0.00  0.00     0.174 HD
ATOM    220  H93 ARG d   1      77.344  21.531   4.982  0.00  0.00     0.174 HD
ATOM    221  H94 ARG d   1      76.600  21.814   3.385  0.00  0.00     0.174 HD
ATOM    222  H90 ARG d   1      76.053  21.080   6.766  0.00  0.00     0.177 HD
ENDBRANCH 211 214
ENDBRANCH 208 211
ENDBRANCH 205 208
ENDBRANCH 135 205
ENDBRANCH 133 135
ENDBRANCH 129 131
BRANCH 129 223
ATOM    223  CB  ILE d   1      72.064  14.774   5.137  0.00  0.00    -0.030 C 
ATOM    224  H73 ILE d   1      72.115  15.727   4.589  0.00  0.00     0.043 H 
BRANCH 223 225
ATOM    225  CG1 ILE d   1      71.656  13.671   4.156  0.00  0.00    -0.063 C 
ATOM    226  H74 ILE d   1      70.590  13.798   3.918  0.00  0.00     0.033 H 
ATOM    227  H75 ILE d   1      71.809  12.699   4.647  0.00  0.00     0.033 H 
BRANCH 225 228
ATOM    228  CD1 ILE d   1      72.441  13.675   2.848  0.00  0.00    -0.076 C 
ATOM    229  H79 ILE d   1      72.087  12.856   2.205  0.00  0.00     0.027 H 
ATOM    230  H80 ILE d   1      73.511  13.537   3.062  0.00  0.00     0.027 H 
ATOM    231  H81 ILE d   1      72.291  14.636   2.333  0.00  0.00     0.027 H 
ENDBRANCH 225 228
ENDBRANCH 223 225
BRANCH 223 232
ATOM    232  CG2 ILE d   1      73.450  14.478   5.719  0.00  0.00    -0.071 C 
ATOM    233  H76 ILE d   1      73.731  15.277   6.421  0.00  0.00     0.028 H 
ATOM    234  H77 ILE d   1      74.187  14.430   4.904  0.00  0.00     0.028 H 
ATOM    235  H78 ILE d   1      73.427  13.515   6.250  0.00  0.00     0.028 H 
ENDBRANCH 223 232
ENDBRANCH 129 223
ENDBRANCH 127 129
ENDBRANCH   1 125
BRANCH   1 236
ATOM    236  CB  HIS d   1      66.712  15.855   5.101  0.00  0.00     0.004 C 
ATOM    237  H66 HIS d   1      66.539  14.899   5.616  0.00  0.00     0.046 H 
ATOM    238  H67 HIS d   1      67.205  15.667   4.136  0.00  0.00     0.046 H 
BRANCH 236 239
ATOM    239  CG  HIS d   1      65.383  16.497   4.837  0.00  0.00     0.053 A 
ATOM    240  ND1 HIS d   1      64.187  15.876   5.128  0.00  0.00    -0.247 NA
ATOM    241  CE1 HIS d   1      63.187  16.672   4.795  0.00  0.00     0.064 A 
ATOM    242  NE2 HIS d   1      63.690  17.791   4.306  0.00  0.00    -0.359 N 
ATOM    243  H69 HIS d   1      62.128  16.444   4.905  0.00  0.00     0.143 H 
ATOM    244  CD2 HIS d   1      65.061  17.709   4.325  0.00  0.00     0.002 A 
ATOM    245  H70 HIS d   1      63.143  18.595   3.966  0.00  0.00     0.166 HD
ATOM    246  H68 HIS d   1      65.759  18.475   3.991  0.00  0.00     0.114 H 
ENDBRANCH 236 239
ENDBRANCH   1 236
TORSDOF 71
