REMARK  14 active torsions:
REMARK  status: ('A' for Active; 'I' for Inactive)
REMARK    1  A    between atoms: C2_2  and  C1_1 
REMARK    2  A    between atoms: C3_3  and  C2_2 
REMARK    3  A    between atoms: C4_4  and  C3_3 
REMARK    4  A    between atoms: C5_22  and  C4_4 
REMARK    5  A    between atoms: C6_21  and  O7_5 
REMARK       I    between atoms: N8_6  and  C9_7 
REMARK    6  A    between atoms: C5_22  and  N8_6 
REMARK    7  A    between atoms: C9_7  and  O11_9 
REMARK    8  A    between atoms: O11_9  and  C12_10 
REMARK    9  A    between atoms: C12_10  and  C13_11 
REMARK   10  A    between atoms: C12_10  and  C20_18 
REMARK   11  A    between atoms: C13_11  and  C14_12 
REMARK   12  A    between atoms: C20_18  and  C21_19 
REMARK   13  A    between atoms: C20_18  and  C22_20 
REMARK   14  A    between atoms: C6_21  and  C5_22 
ROOT
ATOM      1  C12 CT1 d   1      11.012  67.089  77.436  0.00  0.00     0.056 C 
ATOM      2  H12 CT1 d   1      11.140  66.495  78.353  0.00  0.00     0.085 H 
ENDROOT
BRANCH   1   3
ATOM      3  O11 CT1 d   1      11.893  66.609  76.411  0.00  0.00    -0.298 OA
BRANCH   3   4
ATOM      4  C9  CT1 d   1      12.635  65.568  76.795  0.00  0.00     0.361 C 
ATOM      5  N8  CT1 d   1      13.509  65.018  75.941  0.00  0.00    -0.330 N 
ATOM      6  H11 CT1 d   1      13.517  65.306  74.984  0.00  0.00     0.165 HD
ATOM      7  O10 CT1 d   1      12.520  65.116  77.914  0.00  0.00    -0.238 OA
BRANCH   5   8
ATOM      8  C5  CT1 d   1      14.454  63.995  76.403  0.00  0.00     0.034 C 
ATOM      9  H29 CT1 d   1      14.131  63.587  77.372  0.00  0.00     0.075 H 
BRANCH   8  10
ATOM     10  C4  CT1 d   1      14.518  62.872  75.334  0.00  0.00    -0.044 C 
ATOM     11  H8  CT1 d   1      14.859  63.298  74.379  0.00  0.00     0.036 H 
ATOM     12  H9  CT1 d   1      15.226  62.097  75.663  0.00  0.00     0.036 H 
BRANCH  10  13
ATOM     13  C3  CT1 d   1      13.117  62.238  75.141  0.00  0.00    -0.064 C 
ATOM     14  H6  CT1 d   1      12.995  61.400  75.842  0.00  0.00     0.033 H 
ATOM     15  H7  CT1 d   1      12.343  62.995  75.336  0.00  0.00     0.033 H 
BRANCH  13  16
ATOM     16  C2  CT1 d   1      12.976  61.713  73.670  0.00  0.00    -0.068 C 
ATOM     17  H4  CT1 d   1      11.940  61.856  73.329  0.00  0.00     0.032 H 
ATOM     18  H5  CT1 d   1      13.659  62.274  73.015  0.00  0.00     0.032 H 
BRANCH  16  19
ATOM     19  C1  CT1 d   1      13.329  60.221  73.616  0.00  0.00    -0.077 C 
ATOM     20  H1  CT1 d   1      13.229  59.858  72.583  0.00  0.00     0.027 H 
ATOM     21  H2  CT1 d   1      12.646  59.659  74.270  0.00  0.00     0.027 H 
ATOM     22  H3  CT1 d   1      14.365  60.077  73.956  0.00  0.00     0.027 H 
ENDBRANCH  16  19
ENDBRANCH  13  16
ENDBRANCH  10  13
ENDBRANCH   8  10
BRANCH   8  23
ATOM     23  C6  CT1 d   1      15.872  64.627  76.527  0.00  0.00     0.035 C 
ATOM     24  H27 CT1 d   1      16.033  65.337  75.702  0.00  0.00     0.077 H 
ATOM     25  H28 CT1 d   1      15.957  65.156  77.488  0.00  0.00     0.077 H 
BRANCH  23  26
ATOM     26  O7  CT1 d   1      16.832  63.610  76.465  0.00  0.00    -0.399 OA
ATOM     27  H10 CT1 d   1      16.756  63.154  75.635  0.00  0.00     0.209 HD
ENDBRANCH  23  26
ENDBRANCH   8  23
ENDBRANCH   5   8
ENDBRANCH   3   4
ENDBRANCH   1   3
BRANCH   1  28
ATOM     28  C13 CT1 d   1       9.535  67.000  76.936  0.00  0.00    -0.016 C 
ATOM     29  H13 CT1 d   1       9.422  67.632  76.043  0.00  0.00     0.043 H 
ATOM     30  H14 CT1 d   1       8.867  67.364  77.730  0.00  0.00     0.043 H 
BRANCH  28  31
ATOM     31  C14 CT1 d   1       9.145  65.558  76.579  0.00  0.00    -0.056 A 
ATOM     32  C15 CT1 d   1       8.567  64.738  77.540  0.00  0.00    -0.077 A 
ATOM     33  C16 CT1 d   1       8.213  63.430  77.212  0.00  0.00    -0.082 A 
ATOM     34  H15 CT1 d   1       8.392  65.114  78.541  0.00  0.00     0.084 H 
ATOM     35  C17 CT1 d   1       8.441  62.947  75.928  0.00  0.00    -0.083 A 
ATOM     36  H16 CT1 d   1       7.759  62.789  77.959  0.00  0.00     0.083 H 
ATOM     37  C18 CT1 d   1       9.016  63.761  74.967  0.00  0.00    -0.082 A 
ATOM     38  H17 CT1 d   1       8.167  61.928  75.678  0.00  0.00     0.083 H 
ATOM     39  C19 CT1 d   1       9.369  65.066  75.289  0.00  0.00    -0.077 A 
ATOM     40  H18 CT1 d   1       9.190  63.382  73.967  0.00  0.00     0.083 H 
ATOM     41  H19 CT1 d   1       9.819  65.705  74.538  0.00  0.00     0.084 H 
ENDBRANCH  28  31
ENDBRANCH   1  28
BRANCH   1  42
ATOM     42  C20 CT1 d   1      11.338  68.590  77.711  0.00  0.00    -0.035 C 
ATOM     43  H20 CT1 d   1      10.533  69.030  78.318  0.00  0.00     0.042 H 
BRANCH  42  44
ATOM     44  C21 CT1 d   1      11.435  69.329  76.386  0.00  0.00    -0.071 C 
ATOM     45  H21 CT1 d   1      11.665  70.388  76.573  0.00  0.00     0.028 H 
ATOM     46  H22 CT1 d   1      10.477  69.251  75.851  0.00  0.00     0.028 H 
ATOM     47  H23 CT1 d   1      12.233  68.883  75.775  0.00  0.00     0.028 H 
ENDBRANCH  42  44
BRANCH  42  48
ATOM     48  C22 CT1 d   1      12.655  68.724  78.456  0.00  0.00    -0.071 C 
ATOM     49  H24 CT1 d   1      12.589  68.191  79.416  0.00  0.00     0.028 H 
ATOM     50  H25 CT1 d   1      12.865  69.788  78.641  0.00  0.00     0.028 H 
ATOM     51  H26 CT1 d   1      13.465  68.291  77.850  0.00  0.00     0.028 H 
ENDBRANCH  42  48
ENDBRANCH   1  42
TORSDOF 14
