REMARK  10 active torsions:
REMARK  status: ('A' for Active; 'I' for Inactive)
REMARK    1  A    between atoms: C1_1  and  C2_2 
REMARK    2  A    between atoms: C2_2  and  C3_3 
REMARK    3  A    between atoms: C3_3  and  C4_4 
REMARK    4  A    between atoms: C4_4  and  C5_5 
REMARK    5  A    between atoms: C5_5  and  N8_6 
REMARK    6  A    between atoms: C5_5  and  C6_22 
REMARK       I    between atoms: N8_6  and  C9_7 
REMARK    7  A    between atoms: C9_7  and  O11_9 
REMARK    8  A    between atoms: O11_9  and  C12_10 
REMARK    9  A    between atoms: C12_10  and  C13_11 
REMARK   10  A    between atoms: C13_11  and  C14_12 
ROOT
ATOM      1  C12 CT2 d   1      71.655  -8.324 137.169  0.00  0.00     0.076 C 
ATOM      2  C20 CT2 d   1      72.753  -8.454 138.237  0.00  0.00    -0.035 C 
ATOM      3  C21 CT2 d   1      73.003  -7.062 138.792  0.00  0.00    -0.062 C 
ATOM      4  C22 CT2 d   1      71.887  -6.146 138.258  0.00  0.00    -0.062 C 
ATOM      5  C23 CT2 d   1      70.937  -7.009 137.452  0.00  0.00    -0.035 C 
ATOM      6  H19 CT2 d   1      73.674  -8.851 137.785  0.00  0.00     0.037 H 
ATOM      7  H20 CT2 d   1      72.420  -9.127 139.041  0.00  0.00     0.037 H 
ATOM      8  H21 CT2 d   1      73.984  -6.694 138.457  0.00  0.00     0.033 H 
ATOM      9  H22 CT2 d   1      72.976  -7.085 139.891  0.00  0.00     0.033 H 
ATOM     10  H23 CT2 d   1      72.318  -5.363 137.617  0.00  0.00     0.033 H 
ATOM     11  H24 CT2 d   1      71.350  -5.679 139.097  0.00  0.00     0.033 H 
ATOM     12  H25 CT2 d   1      70.018  -7.197 138.027  0.00  0.00     0.037 H 
ATOM     13  H26 CT2 d   1      70.682  -6.508 136.507  0.00  0.00     0.037 H 
ENDROOT
BRANCH   1  14
ATOM     14  O11 CT2 d   1      72.232  -8.217 135.848  0.00  0.00    -0.292 OA
BRANCH  14  15
ATOM     15  C9  CT2 d   1      73.203  -9.147 135.517  0.00  0.00     0.361 C 
ATOM     16  N8  CT2 d   1      74.024  -8.862 134.519  0.00  0.00    -0.330 N 
ATOM     17  H11 CT2 d   1      73.995  -7.955 134.098  0.00  0.00     0.165 HD
ATOM     18  O10 CT2 d   1      73.299 -10.243 136.099  0.00  0.00    -0.238 OA
BRANCH  16  19
ATOM     19  C5  CT2 d   1      74.941  -9.825 134.042  0.00  0.00     0.045 C 
ATOM     20  H10 CT2 d   1      74.829 -10.767 134.600  0.00  0.00     0.076 H 
BRANCH  19  21
ATOM     21  C4  CT2 d   1      74.666 -10.061 132.564  0.00  0.00    -0.043 C 
ATOM     22  H8  CT2 d   1      74.546  -9.093 132.055  0.00  0.00     0.036 H 
ATOM     23  H9  CT2 d   1      75.509 -10.609 132.117  0.00  0.00     0.036 H 
BRANCH  21  24
ATOM     24  C3  CT2 d   1      73.364 -10.895 132.404  0.00  0.00    -0.063 C 
ATOM     25  H6  CT2 d   1      73.343 -11.691 133.163  0.00  0.00     0.033 H 
ATOM     26  H7  CT2 d   1      72.490 -10.240 132.536  0.00  0.00     0.033 H 
BRANCH  24  27
ATOM     27  C2  CT2 d   1      73.327 -11.524 130.998  0.00  0.00    -0.068 C 
ATOM     28  H4  CT2 d   1      74.062 -11.021 130.352  0.00  0.00     0.032 H 
ATOM     29  H5  CT2 d   1      73.572 -12.594 131.069  0.00  0.00     0.032 H 
BRANCH  27  30
ATOM     30  C1  CT2 d   1      71.931 -11.360 130.403  0.00  0.00    -0.077 C 
ATOM     31  H1  CT2 d   1      71.905 -11.809 129.399  0.00  0.00     0.027 H 
ATOM     32  H2  CT2 d   1      71.686 -10.290 130.332  0.00  0.00     0.027 H 
ATOM     33  H3  CT2 d   1      71.196 -11.863 131.049  0.00  0.00     0.027 H 
ENDBRANCH  27  30
ENDBRANCH  24  27
ENDBRANCH  21  24
ENDBRANCH  19  21
BRANCH  19  34
ATOM     34  C6  CT2 d   1      76.376  -9.266 134.228  0.00  0.00     0.121 C 
ATOM     35  O7  CT2 d   1      77.282 -10.001 133.391  0.00  0.00    -0.230 OA
ATOM     36  H27 CT2 d   1      76.653  -8.446 134.889  0.00  0.00     0.095 H 
ENDBRANCH  19  34
ENDBRANCH  16  19
ENDBRANCH  14  15
ENDBRANCH   1  14
BRANCH   1  37
ATOM     37  C13 CT2 d   1      70.620  -9.533 137.262  0.00  0.00    -0.011 C 
ATOM     38  H12 CT2 d   1      70.093  -9.482 138.226  0.00  0.00     0.044 H 
ATOM     39  H13 CT2 d   1      71.169 -10.483 137.194  0.00  0.00     0.044 H 
BRANCH  37  40
ATOM     40  C14 CT2 d   1      69.596  -9.464 136.126  0.00  0.00    -0.055 A 
ATOM     41  C15 CT2 d   1      69.841 -10.125 134.926  0.00  0.00    -0.077 A 
ATOM     42  C16 CT2 d   1      68.910 -10.065 133.886  0.00  0.00    -0.082 A 
ATOM     43  H14 CT2 d   1      70.758 -10.689 134.798  0.00  0.00     0.084 H 
ATOM     44  C17 CT2 d   1      67.730  -9.340 134.047  0.00  0.00    -0.083 A 
ATOM     45  H15 CT2 d   1      69.105 -10.582 132.954  0.00  0.00     0.083 H 
ATOM     46  C18 CT2 d   1      67.480  -8.681 135.241  0.00  0.00    -0.082 A 
ATOM     47  H16 CT2 d   1      67.009  -9.292 133.239  0.00  0.00     0.083 H 
ATOM     48  C19 CT2 d   1      68.412  -8.741 136.285  0.00  0.00    -0.077 A 
ATOM     49  H17 CT2 d   1      66.562  -8.118 135.367  0.00  0.00     0.083 H 
ATOM     50  H18 CT2 d   1      68.214  -8.225 137.218  0.00  0.00     0.084 H 
ENDBRANCH  37  40
ENDBRANCH   1  37
TORSDOF 10
