REMARK  17 active torsions:
REMARK  status: ('A' for Active; 'I' for Inactive)
REMARK    1  A    between atoms: N1_1  and  C31_39 
REMARK    2  A    between atoms: C2_3  and  C3_4 
REMARK       I    between atoms: C3_4  and  N2_6 
REMARK    3  A    between atoms: N2_6  and  C4_7 
REMARK    4  A    between atoms: C4_7  and  C5_8 
REMARK    5  A    between atoms: C4_7  and  C6_9 
REMARK    6  A    between atoms: C4_7  and  C7_10 
REMARK    7  A    between atoms: N3_11  and  C10_14 
REMARK    8  A    between atoms: C10_14  and  C11_15 
REMARK    9  A    between atoms: C11_15  and  O2_16 
REMARK   10  A    between atoms: C11_15  and  C12_17 
REMARK   11  A    between atoms: C12_17  and  C13_18 
REMARK   12  A    between atoms: C13_18  and  C14_19 
REMARK   13  A    between atoms: C13_18  and  C21_26 
REMARK   14  A    between atoms: C14_19  and  C15_20 
REMARK       I    between atoms: C21_26  and  N4_28 
REMARK   15  A    between atoms: N4_28  and  C22_29 
REMARK   16  A    between atoms: C23_30  and  O4_31 
REMARK   17  A    between atoms: C31_39  and  C32_40 
ROOT
ATOM      1  C10 MK1 d   1      41.750  -5.115  30.527  0.00  0.00     0.108 C 
ATOM      2  H20 MK1 d   1      40.754  -5.066  30.991  0.00  0.00     0.080 H 
ATOM      3  H21 MK1 d   1      42.425  -5.700  31.169  0.00  0.00     0.080 H 
ENDROOT
BRANCH   1   4
ATOM      4  N3  MK1 d   1      42.279  -3.757  30.399  0.00  0.00    -0.053 N 
ATOM      5  C2  MK1 d   1      41.479  -2.677  31.067  0.00  0.00     0.203 C 
ATOM      6  C1  MK1 d   1      42.352  -1.454  30.910  0.00  0.00     0.119 C 
ATOM      7  H4  MK1 d   1      41.361  -2.936  32.130  0.00  0.00     0.102 H 
ATOM      8  N1  MK1 d   1      43.712  -1.423  31.498  0.00  0.00    -0.063 N 
ATOM      9  H2  MK1 d   1      42.471  -1.288  29.829  0.00  0.00     0.080 H 
ATOM     10  H3  MK1 d   1      41.798  -0.612  31.351  0.00  0.00     0.080 H 
ATOM     11  C9  MK1 d   1      44.442  -2.446  30.883  0.00  0.00     0.106 C 
ATOM     12  H1  MK1 d   1      43.591  -1.713  32.456  0.00  0.00     0.280 HD
ATOM     13  C8  MK1 d   1      43.733  -3.777  30.756  0.00  0.00     0.107 C 
ATOM     14  H18 MK1 d   1      45.358  -2.607  31.470  0.00  0.00     0.078 H 
ATOM     15  H19 MK1 d   1      44.709  -2.108  29.871  0.00  0.00     0.078 H 
ATOM     16  H16 MK1 d   1      44.255  -4.355  29.979  0.00  0.00     0.078 H 
ATOM     17  H17 MK1 d   1      43.827  -4.294  31.723  0.00  0.00     0.078 H 
ATOM     18  H15 MK1 d   1      42.236  -3.536  29.416  0.00  0.00     0.281 HD
BRANCH   5  19
ATOM     19  C3  MK1 d   1      40.126  -2.358  30.528  0.00  0.00     0.251 C 
ATOM     20  O1  MK1 d   1      39.942  -2.188  29.328  0.00  0.00    -0.271 OA
ATOM     21  N2  MK1 d   1      39.157  -2.268  31.439  0.00  0.00    -0.351 N 
ATOM     22  H5  MK1 d   1      39.413  -2.388  32.398  0.00  0.00     0.163 HD
BRANCH  21  23
ATOM     23  C4  MK1 d   1      37.776  -2.012  31.150  0.00  0.00     0.022 C 
BRANCH  23  24
ATOM     24  C5  MK1 d   1      37.001  -1.900  32.466  0.00  0.00    -0.054 C 
ATOM     25  H6  MK1 d   1      35.940  -1.704  32.251  0.00  0.00     0.030 H 
ATOM     26  H7  MK1 d   1      37.413  -1.074  33.065  0.00  0.00     0.030 H 
ATOM     27  H8  MK1 d   1      37.093  -2.842  33.027  0.00  0.00     0.030 H 
ENDBRANCH  23  24
BRANCH  23  28
ATOM     28  C6  MK1 d   1      37.220  -2.971  30.314  0.00  0.00    -0.054 C 
ATOM     29  H9  MK1 d   1      36.164  -2.726  30.126  0.00  0.00     0.030 H 
ATOM     30  H10 MK1 d   1      37.288  -3.959  30.793  0.00  0.00     0.030 H 
ATOM     31  H11 MK1 d   1      37.768  -2.988  29.360  0.00  0.00     0.030 H 
ENDBRANCH  23  28
BRANCH  23  32
ATOM     32  C7  MK1 d   1      37.610  -0.703  30.525  0.00  0.00    -0.054 C 
ATOM     33  H12 MK1 d   1      36.544  -0.530  30.313  0.00  0.00     0.030 H 
ATOM     34  H13 MK1 d   1      38.180  -0.670  29.585  0.00  0.00     0.030 H 
ATOM     35  H14 MK1 d   1      37.980   0.078  31.206  0.00  0.00     0.030 H 
ENDBRANCH  23  32
ENDBRANCH  21  23
ENDBRANCH   5  19
BRANCH   8  36
ATOM     36  C31 MK1 d   1      44.391  -0.140  31.617  0.00  0.00     0.108 C 
ATOM     37  H44 MK1 d   1      44.638   0.169  30.590  0.00  0.00     0.083 H 
ATOM     38  H45 MK1 d   1      45.319  -0.339  32.173  0.00  0.00     0.083 H 
BRANCH  36  39
ATOM     39  C32 MK1 d   1      43.753   1.081  32.283  0.00  0.00    -0.015 A 
ATOM     40  C33 MK1 d   1      43.284   1.065  33.603  0.00  0.00     0.009 A 
ATOM     41  N5  MK1 d   1      42.720   2.146  34.306  0.00  0.00    -0.273 NA
ATOM     42  H46 MK1 d   1      43.364   0.125  34.137  0.00  0.00     0.115 H 
ATOM     43  C34 MK1 d   1      42.680   3.296  33.512  0.00  0.00     0.002 A 
ATOM     44  C35 MK1 d   1      43.123   3.378  32.189  0.00  0.00    -0.066 A 
ATOM     45  H47 MK1 d   1      42.273   4.196  33.958  0.00  0.00     0.114 H 
ATOM     46  C36 MK1 d   1      43.657   2.253  31.573  0.00  0.00    -0.072 A 
ATOM     47  H48 MK1 d   1      43.050   4.314  31.647  0.00  0.00     0.085 H 
ATOM     48  H49 MK1 d   1      43.994   2.300  30.544  0.00  0.00     0.084 H 
ENDBRANCH  36  39
ENDBRANCH   8  36
ENDBRANCH   1   4
BRANCH   1  49
ATOM     49  C11 MK1 d   1      41.631  -5.809  29.175  0.00  0.00     0.059 C 
ATOM     50  H22 MK1 d   1      42.575  -5.714  28.619  0.00  0.00     0.085 H 
BRANCH  49  51
ATOM     51  O2  MK1 d   1      41.423  -7.099  29.666  0.00  0.00    -0.394 OA
ATOM     52  H23 MK1 d   1      40.637  -7.111  30.200  0.00  0.00     0.210 HD
ENDBRANCH  49  51
BRANCH  49  53
ATOM     53  C12 MK1 d   1      40.473  -5.460  28.209  0.00  0.00    -0.028 C 
ATOM     54  H24 MK1 d   1      40.448  -4.365  28.112  0.00  0.00     0.038 H 
ATOM     55  H25 MK1 d   1      39.541  -5.808  28.678  0.00  0.00     0.038 H 
BRANCH  53  56
ATOM     56  C13 MK1 d   1      40.512  -6.043  26.785  0.00  0.00     0.029 C 
ATOM     57  H26 MK1 d   1      40.531  -7.140  26.869  0.00  0.00     0.055 H 
BRANCH  56  58
ATOM     58  C14 MK1 d   1      39.263  -5.628  25.980  0.00  0.00    -0.029 C 
ATOM     59  H27 MK1 d   1      39.256  -4.535  25.855  0.00  0.00     0.041 H 
ATOM     60  H28 MK1 d   1      38.359  -5.941  26.522  0.00  0.00     0.041 H 
BRANCH  58  61
ATOM     61  C15 MK1 d   1      39.285  -6.276  24.644  0.00  0.00    -0.057 A 
ATOM     62  C16 MK1 d   1      39.276  -7.664  24.482  0.00  0.00    -0.077 A 
ATOM     63  C17 MK1 d   1      39.336  -8.214  23.213  0.00  0.00    -0.082 A 
ATOM     64  H29 MK1 d   1      39.222  -8.310  25.351  0.00  0.00     0.084 H 
ATOM     65  C18 MK1 d   1      39.393  -7.352  22.124  0.00  0.00    -0.083 A 
ATOM     66  H30 MK1 d   1      39.339  -9.289  23.072  0.00  0.00     0.083 H 
ATOM     67  C19 MK1 d   1      39.397  -5.967  22.283  0.00  0.00    -0.082 A 
ATOM     68  H31 MK1 d   1      39.435  -7.768  21.124  0.00  0.00     0.083 H 
ATOM     69  C20 MK1 d   1      39.342  -5.424  23.558  0.00  0.00    -0.077 A 
ATOM     70  H32 MK1 d   1      39.443  -5.319  21.416  0.00  0.00     0.083 H 
ATOM     71  H33 MK1 d   1      39.344  -4.349  23.700  0.00  0.00     0.084 H 
ENDBRANCH  58  61
ENDBRANCH  56  58
BRANCH  56  72
ATOM     72  C21 MK1 d   1      41.743  -5.597  26.006  0.00  0.00     0.222 C 
ATOM     73  O3  MK1 d   1      42.067  -4.399  25.979  0.00  0.00    -0.273 OA
ATOM     74  N4  MK1 d   1      42.421  -6.574  25.398  0.00  0.00    -0.350 N 
ATOM     75  H34 MK1 d   1      42.271  -7.520  25.686  0.00  0.00     0.163 HD
BRANCH  74  76
ATOM     76  C22 MK1 d   1      43.366  -6.305  24.336  0.00  0.00     0.063 C 
ATOM     77  C23 MK1 d   1      43.243  -7.287  23.172  0.00  0.00     0.063 C 
ATOM     78  C24 MK1 d   1      44.493  -6.993  22.356  0.00  0.00    -0.014 C 
ATOM     79  H36 MK1 d   1      42.334  -7.112  22.578  0.00  0.00     0.087 H 
ATOM     80  C25 MK1 d   1      45.648  -6.831  23.335  0.00  0.00    -0.047 A 
ATOM     81  H38 MK1 d   1      44.356  -6.066  21.779  0.00  0.00     0.044 H 
ATOM     82  H39 MK1 d   1      44.697  -7.826  21.668  0.00  0.00     0.044 H 
ATOM     83  C26 MK1 d   1      47.015  -6.977  23.350  0.00  0.00    -0.076 A 
ATOM     84  C30 MK1 d   1      44.883  -6.403  24.620  0.00  0.00    -0.027 A 
ATOM     85  C27 MK1 d   1      47.659  -6.745  24.563  0.00  0.00    -0.082 A 
ATOM     86  H40 MK1 d   1      47.566  -7.259  22.460  0.00  0.00     0.084 H 
ATOM     87  C28 MK1 d   1      46.976  -6.375  25.724  0.00  0.00    -0.082 A 
ATOM     88  H41 MK1 d   1      48.736  -6.856  24.608  0.00  0.00     0.083 H 
ATOM     89  C29 MK1 d   1      45.603  -6.197  25.754  0.00  0.00    -0.074 A 
ATOM     90  H42 MK1 d   1      47.542  -6.221  26.636  0.00  0.00     0.083 H 
ATOM     91  H43 MK1 d   1      45.109  -5.897  26.671  0.00  0.00     0.084 H 
ATOM     92  H35 MK1 d   1      43.146  -5.285  23.986  0.00  0.00     0.084 H 
BRANCH  77  93
ATOM     93  O4  MK1 d   1      43.227  -8.602  23.705  0.00  0.00    -0.393 OA
ATOM     94  H37 MK1 d   1      42.486  -8.695  24.293  0.00  0.00     0.210 HD
ENDBRANCH  77  93
ENDBRANCH  74  76
ENDBRANCH  56  72
ENDBRANCH  53  56
ENDBRANCH  49  53
ENDBRANCH   1  49
TORSDOF 17
