REMARK  5 active torsions:
REMARK  status: ('A' for Active; 'I' for Inactive)
REMARK    1  A    between atoms: S1_1  and  N1_4 
REMARK    2  A    between atoms: S1_1  and  C1_5 
REMARK    3  A    between atoms: C4_8  and  C7_11 
REMARK    4  A    between atoms: C8_12  and  C9_13 
REMARK    5  A    between atoms: C10_16  and  C11_17 
ROOT
ATOM      1  C7  COX d   1      -3.227   5.475  13.266  0.00  0.00     0.037 A 
ATOM      2  C8  COX d   1      -2.025   5.450  12.487  0.00  0.00     0.088 A 
ATOM      3  O3  COX d   1      -1.777   6.696  11.956  0.00  0.00    -0.217 OA
ATOM      4  N2  COX d   1      -2.745   7.475  12.347  0.00  0.00    -0.127 NA
ATOM      5  C10 COX d   1      -3.683   6.846  13.140  0.00  0.00     0.108 A 
ENDROOT
BRANCH   1   6
ATOM      6  C4  COX d   1      -3.820   4.380  14.012  0.00  0.00    -0.021 A 
ATOM      7  C3  COX d   1      -5.255   4.182  14.046  0.00  0.00    -0.071 A 
ATOM      8  C2  COX d   1      -5.851   3.131  14.785  0.00  0.00    -0.059 A 
ATOM      9  H4  COX d   1      -5.892   4.859  13.489  0.00  0.00     0.084 H 
ATOM     10  C1  COX d   1      -5.012   2.242  15.512  0.00  0.00     0.079 A 
ATOM     11  H3  COX d   1      -6.928   3.006  14.796  0.00  0.00     0.085 H 
ATOM     12  C6  COX d   1      -3.604   2.391  15.505  0.00  0.00    -0.059 A 
ATOM     13  C5  COX d   1      -3.019   3.448  14.766  0.00  0.00    -0.071 A 
ATOM     14  H6  COX d   1      -2.979   1.702  16.061  0.00  0.00     0.085 H 
ATOM     15  H5  COX d   1      -1.941   3.559  14.767  0.00  0.00     0.084 H 
BRANCH  10  16
ATOM     16  S1  COX d   1      -5.734   0.959  16.452  0.00  0.00     0.256 S 
ATOM     17  O1  COX d   1      -7.296   1.060  16.246  0.00  0.00    -0.201 OA
ATOM     18  O2  COX d   1      -5.163   1.148  17.904  0.00  0.00    -0.201 OA
BRANCH  16  19
ATOM     19  N1  COX d   1      -5.187  -0.540  15.863  0.00  0.00    -0.324 N 
ATOM     20  H1  COX d   1      -5.447  -0.842  14.946  0.00  0.00     0.169 HD
ATOM     21  H2  COX d   1      -4.605  -1.119  16.434  0.00  0.00     0.169 HD
ENDBRANCH  16  19
ENDBRANCH  10  16
ENDBRANCH   1   6
BRANCH   2  22
ATOM     22  C9  COX d   1      -1.030   4.342  12.179  0.00  0.00    -0.028 C 
ATOM     23  H7  COX d   1      -0.231   4.736  11.534  0.00  0.00     0.036 H 
ATOM     24  H8  COX d   1      -1.546   3.519  11.663  0.00  0.00     0.036 H 
ATOM     25  H9  COX d   1      -0.594   3.970  13.118  0.00  0.00     0.036 H 
ENDBRANCH   2  22
BRANCH   5  26
ATOM     26  C11 COX d   1      -4.861   7.522  13.635  0.00  0.00    -0.004 A 
ATOM     27  C12 COX d   1      -5.829   8.066  12.724  0.00  0.00    -0.071 A 
ATOM     28  C13 COX d   1      -6.992   8.725  13.187  0.00  0.00    -0.082 A 
ATOM     29  H10 COX d   1      -5.665   7.969  11.657  0.00  0.00     0.084 H 
ATOM     30  C14 COX d   1      -7.218   8.856  14.580  0.00  0.00    -0.083 A 
ATOM     31  H11 COX d   1      -7.707   9.128  12.479  0.00  0.00     0.083 H 
ATOM     32  C15 COX d   1      -6.285   8.334  15.510  0.00  0.00    -0.082 A 
ATOM     33  H12 COX d   1      -8.110   9.359  14.936  0.00  0.00     0.083 H 
ATOM     34  C16 COX d   1      -5.122   7.675  15.047  0.00  0.00    -0.071 A 
ATOM     35  H13 COX d   1      -6.462   8.439  16.574  0.00  0.00     0.083 H 
ATOM     36  H14 COX d   1      -4.414   7.278  15.765  0.00  0.00     0.084 H 
ENDBRANCH   5  26
TORSDOF 5
