REMARK  7 active torsions:
REMARK  status: ('A' for Active; 'I' for Inactive)
REMARK    1  A    between atoms: C7_2  and  C3_5 
REMARK    2  A    between atoms: C4_7  and  N1_8 
REMARK    3  A    between atoms: C1_13  and  N9_14 
REMARK       I    between atoms: N9_14  and  C10_15 
REMARK    4  A    between atoms: C10_15  and  C11_17 
REMARK    5  A    between atoms: C11_17  and  C12_18 
REMARK    6  A    between atoms: C11_17  and  C13_19 
REMARK    7  A    between atoms: C11_17  and  O11_20 
ROOT
ATOM      1  C3  HFT d   1      25.321   4.152   4.166  0.00  0.00     0.083 A 
ATOM      2  C2  HFT d   1      26.320   3.175   4.156  0.00  0.00    -0.040 A 
ATOM      3  C4  HFT d   1      25.693   5.471   3.892  0.00  0.00     0.118 A 
ATOM      4  C5  HFT d   1      27.021   5.770   3.599  0.00  0.00    -0.048 A 
ATOM      5  C6  HFT d   1      27.999   4.782   3.589  0.00  0.00    -0.055 A 
ATOM      6  C1  HFT d   1      27.652   3.467   3.875  0.00  0.00     0.035 A 
ATOM      7  H1  HFT d   1      26.047   2.149   4.376  0.00  0.00     0.088 H 
ATOM      8  H2  HFT d   1      27.298   6.794   3.374  0.00  0.00     0.087 H 
ATOM      9  H3  HFT d   1      29.027   5.036   3.359  0.00  0.00     0.087 H 
ENDROOT
BRANCH   6  10
ATOM     10  N9  HFT d   1      28.629   2.559   3.892  0.00  0.00    -0.325 N 
ATOM     11  C10 HFT d   1      28.507   1.264   4.176  0.00  0.00     0.256 C 
ATOM     12  O10 HFT d   1      27.453   0.705   4.478  0.00  0.00    -0.270 OA
ATOM     13  H4  HFT d   1      29.548   2.885   3.668  0.00  0.00     0.169 HD
BRANCH  11  14
ATOM     14  C11 HFT d   1      29.820   0.479   4.113  0.00  0.00     0.131 C 
BRANCH  14  15
ATOM     15  C12 HFT d   1      30.184   0.002   5.520  0.00  0.00    -0.040 C 
ATOM     16  H5  HFT d   1      31.127  -0.563   5.483  0.00  0.00     0.032 H 
ATOM     17  H6  HFT d   1      29.383  -0.646   5.906  0.00  0.00     0.032 H 
ATOM     18  H7  HFT d   1      30.304   0.872   6.183  0.00  0.00     0.032 H 
ENDBRANCH  14  15
BRANCH  14  19
ATOM     19  C13 HFT d   1      29.639  -0.721   3.181  0.00  0.00    -0.040 C 
ATOM     20  H8  HFT d   1      29.378  -0.366   2.173  0.00  0.00     0.032 H 
ATOM     21  H9  HFT d   1      28.833  -1.364   3.564  0.00  0.00     0.032 H 
ATOM     22  H10 HFT d   1      30.576  -1.295   3.136  0.00  0.00     0.032 H 
ENDBRANCH  14  19
BRANCH  14  23
ATOM     23  O11 HFT d   1      30.847   1.338   3.612  0.00  0.00    -0.381 OA
ATOM     24  H11 HFT d   1      31.669   0.862   3.580  0.00  0.00     0.211 HD
ENDBRANCH  14  23
ENDBRANCH  11  14
ENDBRANCH   6  10
BRANCH   1  25
ATOM     25  C7  HFT d   1      23.863   3.724   4.420  0.00  0.00     0.419 C 
ATOM     26  F1  HFT d   1      23.705   2.410   4.294  0.00  0.00    -0.166 F 
ATOM     27  F2  HFT d   1      23.493   4.035   5.659  0.00  0.00    -0.166 F 
ATOM     28  F3  HFT d   1      23.017   4.271   3.552  0.00  0.00    -0.166 F 
ENDBRANCH   1  25
BRANCH   3  29
ATOM     29  N1  HFT d   1      24.875   6.516   4.020  0.00  0.00    -0.115 N 
ATOM     30  O2  HFT d   1      25.325   7.805   3.628  0.00  0.00    -0.532 OA
ATOM     31  O1  HFT d   1      23.539   6.405   4.487  0.00  0.00    -0.532 OA
ENDBRANCH   3  29
TORSDOF 7
