REMARK  4 active torsions:
REMARK  status: ('A' for Active; 'I' for Inactive)
REMARK    1  A    between atoms: C1_6  and  S1_1 
REMARK    2  A    between atoms: N1_5  and  C3_9 
REMARK    3  A    between atoms: C2_8  and  C1_6 
REMARK    4  A    between atoms: C3_9  and  C2_8 
ROOT
ATOM      1  O4  NON d   1      12.449  -4.280   1.206  0.00  0.00    -0.388 OA
ATOM      2  N1  NON d   1      13.145  -3.296   3.740  0.00  0.00    -0.067 N 
ATOM      3  C4  NON d   1      12.272  -2.473   2.808  0.00  0.00     0.103 C 
ATOM      4  C5  NON d   1      12.676  -2.911   1.405  0.00  0.00     0.042 C 
ATOM      5  C6  NON d   1      13.162  -5.134   2.106  0.00  0.00     0.042 C 
ATOM      6  C7  NON d   1      12.753  -4.740   3.516  0.00  0.00     0.103 C 
ATOM      7  H1  NON d   1      14.113  -3.153   3.496  0.00  0.00     0.280 HD
ATOM      8  H8  NON d   1      12.462  -1.399   2.948  0.00  0.00     0.079 H 
ATOM      9  H9  NON d   1      11.207  -2.684   2.988  0.00  0.00     0.079 H 
ATOM     10  H10 NON d   1      12.088  -2.341   0.670  0.00  0.00     0.076 H 
ATOM     11  H11 NON d   1      13.746  -2.702   1.260  0.00  0.00     0.076 H 
ATOM     12  H12 NON d   1      14.246  -4.998   1.976  0.00  0.00     0.076 H 
ATOM     13  H13 NON d   1      12.899  -6.185   1.917  0.00  0.00     0.076 H 
ATOM     14  H14 NON d   1      11.665  -4.852   3.632  0.00  0.00     0.079 H 
ATOM     15  H15 NON d   1      13.268  -5.382   4.245  0.00  0.00     0.079 H 
ENDROOT
BRANCH   2  16
ATOM     16  C3  NON d   1      12.964  -2.984   5.210  0.00  0.00     0.085 C 
ATOM     17  H6  NON d   1      13.646  -2.166   5.484  0.00  0.00     0.076 H 
ATOM     18  H7  NON d   1      13.215  -3.881   5.795  0.00  0.00     0.076 H 
BRANCH  16  19
ATOM     19  C2  NON d   1      11.566  -2.573   5.540  0.00  0.00    -0.028 C 
ATOM     20  H4  NON d   1      11.454  -1.488   5.401  0.00  0.00     0.036 H 
ATOM     21  H5  NON d   1      10.857  -3.102   4.886  0.00  0.00     0.036 H 
BRANCH  19  22
ATOM     22  C1  NON d   1      11.294  -2.941   7.009  0.00  0.00     0.047 C 
ATOM     23  H2  NON d   1      10.213  -2.920   7.213  0.00  0.00     0.060 H 
ATOM     24  H3  NON d   1      11.689  -3.943   7.230  0.00  0.00     0.060 H 
BRANCH  22  25
ATOM     25  S1  NON d   1      12.160  -1.676   8.027  0.00  0.00     0.101 S 
ATOM     26  O1  NON d   1      13.600  -1.986   7.994  0.00  0.00    -0.595 OA
ATOM     27  O2  NON d   1      11.596  -1.773   9.415  0.00  0.00    -0.595 OA
ATOM     28  O3  NON d   1      11.915  -0.341   7.461  0.00  0.00    -0.595 OA
ENDBRANCH  22  25
ENDBRANCH  19  22
ENDBRANCH  16  19
ENDBRANCH   2  16
TORSDOF 4
