REMARK  4 active torsions:
REMARK  status: ('A' for Active; 'I' for Inactive)
REMARK    1  A    between atoms: CA_1  and  C_2 
REMARK    2  A    between atoms: CA_1  and  CB_5 
REMARK    3  A    between atoms: CB_5  and  CG_6 
REMARK    4  A    between atoms: CZ_11  and  NH_12 
ROOT
ATOM      1  CG  AHC d   1     101.344  44.973  11.226  0.00  0.00    -0.058 A 
ATOM      2  CD1 AHC d   1     101.543  43.668  10.784  0.00  0.00    -0.075 A 
ATOM      3  CD2 AHC d   1     100.299  45.224  12.101  0.00  0.00    -0.075 A 
ATOM      4  CE1 AHC d   1     100.710  42.634  11.212  0.00  0.00    -0.057 A 
ATOM      5  CE2 AHC d   1      99.469  44.196  12.530  0.00  0.00    -0.057 A 
ATOM      6  CZ  AHC d   1      99.664  42.891  12.089  0.00  0.00     0.025 A 
ATOM      7  H5  AHC d   1     102.355  43.453  10.099  0.00  0.00     0.084 H 
ATOM      8  H6  AHC d   1     100.127  46.234  12.455  0.00  0.00     0.084 H 
ATOM      9  H7  AHC d   1     100.880  41.624  10.858  0.00  0.00     0.086 H 
ATOM     10  H8  AHC d   1      98.659  44.413  13.217  0.00  0.00     0.086 H 
ENDROOT
BRANCH   1  11
ATOM     11  CB  AHC d   1     102.229  46.093  10.744  0.00  0.00    -0.032 C 
ATOM     12  H3  AHC d   1     102.671  45.794   9.782  0.00  0.00     0.040 H 
ATOM     13  H4  AHC d   1     101.606  46.988  10.599  0.00  0.00     0.040 H 
BRANCH  11  14
ATOM     14  CA  AHC d   1     103.363  46.448  11.704  0.00  0.00     0.019 C 
ATOM     15  H1  AHC d   1     103.878  45.520  11.995  0.00  0.00     0.049 H 
ATOM     16  H2  AHC d   1     104.069  47.110  11.181  0.00  0.00     0.049 H 
BRANCH  14  17
ATOM     17  C   AHC d   1     102.886  47.149  12.962  0.00  0.00     0.172 C 
ATOM     18  OT1 AHC d   1     103.340  46.770  14.056  0.00  0.00    -0.648 OA
ATOM     19  OT2 AHC d   1     102.059  48.082  12.867  0.00  0.00    -0.648 OA
ENDBRANCH  14  17
ENDBRANCH  11  14
ENDBRANCH   1  11
BRANCH   6  20
ATOM     20  NH  AHC d   1      98.769  41.792  12.558  0.00  0.00    -0.399 N 
ATOM     21  H9  AHC d   1      98.920  40.828  12.227  0.00  0.00     0.156 HD
ATOM     22  H10 AHC d   1      98.001  41.997  13.213  0.00  0.00     0.156 HD
ENDBRANCH   6  20
TORSDOF 4
