REMARK  3 active torsions:
REMARK  status: ('A' for Active; 'I' for Inactive)
REMARK    1  A    between atoms: C1_1  and  C7_7 
REMARK    2  A    between atoms: C7_7  and  C8_8 
REMARK    3  A    between atoms: C8_8  and  C9_9 
ROOT
ATOM      1  C1  CXP d   1     101.071  44.807  11.636  0.00  0.00    -0.054 C 
ATOM      2  C2  CXP d   1      99.952  45.407  12.490  0.00  0.00    -0.062 C 
ATOM      3  C3  CXP d   1      99.134  44.355  13.235  0.00  0.00    -0.065 C 
ATOM      4  C4  CXP d   1      98.583  43.304  12.270  0.00  0.00    -0.065 C 
ATOM      5  C5  CXP d   1      99.701  42.670  11.436  0.00  0.00    -0.065 C 
ATOM      6  C6  CXP d   1     100.493  43.744  10.702  0.00  0.00    -0.062 C 
ATOM      7  H1  CXP d   1     101.758  44.293  12.324  0.00  0.00     0.040 H 
ATOM      8  H2  CXP d   1      99.276  45.974  11.833  0.00  0.00     0.033 H 
ATOM      9  H3  CXP d   1     100.402  46.087  13.228  0.00  0.00     0.033 H 
ATOM     10  H4  CXP d   1      98.295  44.848  13.747  0.00  0.00     0.033 H 
ATOM     11  H5  CXP d   1      99.776  43.859  13.978  0.00  0.00     0.033 H 
ATOM     12  H6  CXP d   1      97.860  43.783  11.594  0.00  0.00     0.033 H 
ATOM     13  H7  CXP d   1      98.078  42.517  12.849  0.00  0.00     0.033 H 
ATOM     14  H8  CXP d   1      99.259  41.981  10.701  0.00  0.00     0.033 H 
ATOM     15  H9  CXP d   1     100.377  42.112  12.101  0.00  0.00     0.033 H 
ATOM     16  H10 CXP d   1     101.323  43.261  10.165  0.00  0.00     0.033 H 
ATOM     17  H11 CXP d   1      99.827  44.238   9.979  0.00  0.00     0.033 H 
ENDROOT
BRANCH   1  18
ATOM     18  C7  CXP d   1     101.909  45.855  10.895  0.00  0.00    -0.053 C 
ATOM     19  H12 CXP d   1     101.265  46.722  10.686  0.00  0.00     0.034 H 
ATOM     20  H13 CXP d   1     102.248  45.413   9.947  0.00  0.00     0.034 H 
BRANCH  18  21
ATOM     21  C8  CXP d   1     103.146  46.353  11.658  0.00  0.00     0.016 C 
ATOM     22  H14 CXP d   1     103.721  47.015  10.994  0.00  0.00     0.049 H 
ATOM     23  H15 CXP d   1     103.761  45.482  11.929  0.00  0.00     0.049 H 
BRANCH  21  24
ATOM     24  C9  CXP d   1     102.811  47.120  12.929  0.00  0.00     0.172 C 
ATOM     25  O1  CXP d   1     102.119  48.157  12.846  0.00  0.00    -0.648 OA
ATOM     26  O2  CXP d   1     103.220  46.691  14.023  0.00  0.00    -0.648 OA
ENDBRANCH  21  24
ENDBRANCH  18  21
ENDBRANCH   1  18
TORSDOF 3
