REMARK  7 active torsions:
REMARK  status: ('A' for Active; 'I' for Inactive)
REMARK    1  A    between atoms: CA_1  and  C_2 
REMARK    2  A    between atoms: CA_1  and  CB_5 
REMARK    3  A    between atoms: CB_5  and  CG_6 
REMARK    4  A    between atoms: CE1_9  and  OEA_10 
REMARK    5  A    between atoms: OEA_10  and  CEA_11 
REMARK    6  A    between atoms: CZ_13  and  OZA_14 
REMARK    7  A    between atoms: OZA_14  and  CZA_15 
ROOT
ATOM      1  CG  MPP d   1      94.038  17.746  -2.939  0.00  0.00    -0.055 A 
ATOM      2  CD1 MPP d   1      93.985  18.991  -2.298  0.00  0.00    -0.042 A 
ATOM      3  CD2 MPP d   1      94.768  16.719  -2.328  0.00  0.00    -0.074 A 
ATOM      4  CE1 MPP d   1      94.676  19.218  -1.097  0.00  0.00     0.102 A 
ATOM      5  CE2 MPP d   1      95.435  16.925  -1.117  0.00  0.00    -0.048 A 
ATOM      6  CZ  MPP d   1      95.398  18.179  -0.516  0.00  0.00     0.101 A 
ATOM      7  H5  MPP d   1      93.401  19.792  -2.737  0.00  0.00     0.088 H 
ATOM      8  H6  MPP d   1      94.817  15.746  -2.803  0.00  0.00     0.084 H 
ATOM      9  H10 MPP d   1      95.978  16.112  -0.649  0.00  0.00     0.087 H 
ENDROOT
BRANCH   1  10
ATOM     10  CB  MPP d   1      93.361  17.536  -4.281  0.00  0.00    -0.032 C 
ATOM     11  H3  MPP d   1      93.212  18.522  -4.745  0.00  0.00     0.040 H 
ATOM     12  H4  MPP d   1      94.032  16.933  -4.910  0.00  0.00     0.040 H 
BRANCH  10  13
ATOM     13  CA  MPP d   1      92.008  16.832  -4.223  0.00  0.00     0.019 C 
ATOM     14  H1  MPP d   1      91.404  17.296  -3.429  0.00  0.00     0.049 H 
ATOM     15  H2  MPP d   1      91.503  16.962  -5.191  0.00  0.00     0.049 H 
BRANCH  13  16
ATOM     16  C   MPP d   1      92.130  15.350  -3.935  0.00  0.00     0.172 C 
ATOM     17  OT1 MPP d   1      91.261  14.792  -3.233  0.00  0.00    -0.648 OA
ATOM     18  OT2 MPP d   1      93.108  14.726  -4.399  0.00  0.00    -0.648 OA
ENDBRANCH  13  16
ENDBRANCH  10  13
ENDBRANCH   1  10
BRANCH   4  19
ATOM     19  OEA MPP d   1      94.688  20.444  -0.444  0.00  0.00    -0.353 OA
BRANCH  19  20
ATOM     20  CEA MPP d   1      93.938  21.328  -1.044  0.00  0.00     0.010 C 
ATOM     21  H7  MPP d   1      93.979  22.279  -0.492  0.00  0.00     0.066 H 
ATOM     22  H8  MPP d   1      92.899  20.967  -1.075  0.00  0.00     0.066 H 
ATOM     23  H9  MPP d   1      94.303  21.483  -2.070  0.00  0.00     0.066 H 
ENDBRANCH  19  20
ENDBRANCH   4  19
BRANCH   6  24
ATOM     24  OZA MPP d   1      96.077  18.408   0.658  0.00  0.00    -0.353 OA
BRANCH  24  25
ATOM     25  CZA MPP d   1      97.364  18.239   0.481  0.00  0.00     0.010 C 
ATOM     26  H11 MPP d   1      97.892  18.426   1.428  0.00  0.00     0.066 H 
ATOM     27  H12 MPP d   1      97.724  18.942  -0.284  0.00  0.00     0.066 H 
ATOM     28  H13 MPP d   1      97.556  17.207   0.151  0.00  0.00     0.066 H 
ENDBRANCH  24  25
ENDBRANCH   6  24
TORSDOF 7
