REMARK  4 active torsions:
REMARK  status: ('A' for Active; 'I' for Inactive)
REMARK    1  A    between atoms: CA_1  and  C_2 
REMARK    2  A    between atoms: CA_1  and  CB_5 
REMARK    3  A    between atoms: CB_5  and  CG_6 
REMARK    4  A    between atoms: CZ_11  and  CH_12 
ROOT
ATOM      1  CG  PPT d   1     101.230  44.978  11.423  0.00  0.00    -0.058 A 
ATOM      2  CD1 PPT d   1     101.055  43.726  10.839  0.00  0.00    -0.076 A 
ATOM      3  CD2 PPT d   1     100.373  45.358  12.449  0.00  0.00    -0.076 A 
ATOM      4  CE1 PPT d   1     100.043  42.879  11.270  0.00  0.00    -0.077 A 
ATOM      5  CE2 PPT d   1      99.364  44.515  12.879  0.00  0.00    -0.077 A 
ATOM      6  CZ  PPT d   1      99.184  43.268  12.294  0.00  0.00    -0.062 A 
ATOM      7  H5  PPT d   1     101.716  43.410  10.040  0.00  0.00     0.084 H 
ATOM      8  H6  PPT d   1     100.497  46.327  12.918  0.00  0.00     0.084 H 
ATOM      9  H7  PPT d   1      99.921  41.907  10.806  0.00  0.00     0.084 H 
ATOM     10  H8  PPT d   1      98.707  44.831  13.681  0.00  0.00     0.084 H 
ENDROOT
BRANCH   1  11
ATOM     11  CB  PPT d   1     102.309  45.917  10.925  0.00  0.00    -0.032 C 
ATOM     12  H3  PPT d   1     102.764  45.474  10.027  0.00  0.00     0.040 H 
ATOM     13  H4  PPT d   1     101.838  46.876  10.662  0.00  0.00     0.040 H 
BRANCH  11  14
ATOM     14  CA  PPT d   1     103.420  46.191  11.940  0.00  0.00     0.019 C 
ATOM     15  H1  PPT d   1     103.742  45.232  12.372  0.00  0.00     0.049 H 
ATOM     16  H2  PPT d   1     104.265  46.659  11.415  0.00  0.00     0.049 H 
BRANCH  14  17
ATOM     17  C   PPT d   1     102.988  47.107  13.069  0.00  0.00     0.172 C 
ATOM     18  OT1 PPT d   1     103.366  46.843  14.227  0.00  0.00    -0.648 OA
ATOM     19  OT2 PPT d   1     102.259  48.089  12.810  0.00  0.00    -0.648 OA
ENDBRANCH  14  17
ENDBRANCH  11  14
ENDBRANCH   1  11
BRANCH   6  20
ATOM     20  CH  PPT d   1      98.057  42.374  12.733  0.00  0.00    -0.051 C 
ATOM     21  H9  PPT d   1      98.084  41.439  12.155  0.00  0.00     0.033 H 
ATOM     22  H10 PPT d   1      97.097  42.883  12.562  0.00  0.00     0.033 H 
ATOM     23  H11 PPT d   1      98.165  42.146  13.804  0.00  0.00     0.033 H 
ENDBRANCH   6  20
TORSDOF 4
