REMARK  3 active torsions:
REMARK  status: ('A' for Active; 'I' for Inactive)
REMARK    1  A    between atoms: C2'_4  and  C1'_1 
REMARK    2  A    between atoms: C3'_5  and  C2'_4 
REMARK    3  A    between atoms: C3_8  and  C3'_5 
ROOT
ATOM      1  N1  IOP d   1      99.048  44.985  13.231  0.00  0.00    -0.365 N 
ATOM      2  C2  IOP d   1      99.803  45.997  12.688  0.00  0.00    -0.016 A 
ATOM      3  C3  IOP d   1     100.635  45.503  11.727  0.00  0.00    -0.030 A 
ATOM      4  C3A IOP d   1     100.375  44.095  11.652  0.00  0.00    -0.002 A 
ATOM      5  C4  IOP d   1     100.888  43.056  10.875  0.00  0.00    -0.070 A 
ATOM      6  C5  IOP d   1     100.403  41.771  11.075  0.00  0.00    -0.082 A 
ATOM      7  C6  IOP d   1      99.416  41.511  12.037  0.00  0.00    -0.081 A 
ATOM      8  C7  IOP d   1      98.892  42.513  12.814  0.00  0.00    -0.056 A 
ATOM      9  C7A IOP d   1      99.381  43.808  12.611  0.00  0.00     0.042 A 
ATOM     10  H5  IOP d   1      98.348  45.093  13.979  0.00  0.00     0.165 HD
ATOM     11  H6  IOP d   1      99.745  47.044  12.983  0.00  0.00     0.112 H 
ATOM     12  H7  IOP d   1     101.651  43.249  10.129  0.00  0.00     0.084 H 
ATOM     13  H8  IOP d   1     100.793  40.955  10.478  0.00  0.00     0.083 H 
ATOM     14  H9  IOP d   1      99.059  40.496  12.169  0.00  0.00     0.083 H 
ATOM     15  H10 IOP d   1      98.129  42.309  13.556  0.00  0.00     0.086 H 
ENDROOT
BRANCH   3  16
ATOM     16  C3' IOP d   1     101.663  46.253  10.959  0.00  0.00    -0.030 C 
ATOM     17  H3  IOP d   1     101.880  45.702  10.032  0.00  0.00     0.041 H 
ATOM     18  H4  IOP d   1     101.260  47.246  10.710  0.00  0.00     0.041 H 
BRANCH  16  19
ATOM     19  C2' IOP d   1     102.958  46.434  11.730  0.00  0.00     0.019 C 
ATOM     20  H1  IOP d   1     103.369  45.443  11.971  0.00  0.00     0.049 H 
ATOM     21  H2  IOP d   1     103.672  46.984  11.100  0.00  0.00     0.049 H 
BRANCH  19  22
ATOM     22  C1' IOP d   1     102.750  47.200  13.014  0.00  0.00     0.172 C 
ATOM     23  O1  IOP d   1     103.119  46.694  14.090  0.00  0.00    -0.648 OA
ATOM     24  O2  IOP d   1     102.164  48.301  12.954  0.00  0.00    -0.648 OA
ENDBRANCH  19  22
ENDBRANCH  16  19
ENDBRANCH   3  16
TORSDOF 3
