REMARK  4 active torsions:
REMARK  status: ('A' for Active; 'I' for Inactive)
REMARK    1  A    between atoms: C3_3  and  C10_10 
REMARK    2  A    between atoms: C10_10  and  C11_11 
REMARK    3  A    between atoms: C11_11  and  C12_12 
REMARK    4  A    between atoms: C12_12  and  C13_13 
ROOT
ATOM      1  N1  3IB d   1     100.404  42.331  10.814  0.00  0.00    -0.365 N 
ATOM      2  C2  3IB d   1     100.953  43.476  10.290  0.00  0.00    -0.016 A 
ATOM      3  C3  3IB d   1     100.587  44.562  11.039  0.00  0.00    -0.030 A 
ATOM      4  C4  3IB d   1      99.094  44.658  13.167  0.00  0.00    -0.070 A 
ATOM      5  C5  3IB d   1      98.369  43.855  14.022  0.00  0.00    -0.082 A 
ATOM      6  C6  3IB d   1      98.295  42.464  13.831  0.00  0.00    -0.081 A 
ATOM      7  C7  3IB d   1      98.937  41.850  12.787  0.00  0.00    -0.056 A 
ATOM      8  C8  3IB d   1      99.670  42.660  11.923  0.00  0.00     0.042 A 
ATOM      9  C9  3IB d   1      99.762  44.059  12.092  0.00  0.00    -0.002 A 
ATOM     10  H1  3IB d   1     100.525  41.381  10.435  0.00  0.00     0.165 HD
ATOM     11  H2  3IB d   1     101.588  43.514   9.406  0.00  0.00     0.112 H 
ATOM     12  H3  3IB d   1      99.146  45.729  13.324  0.00  0.00     0.084 H 
ATOM     13  H4  3IB d   1      97.846  44.305  14.858  0.00  0.00     0.083 H 
ATOM     14  H5  3IB d   1      97.717  41.864  14.525  0.00  0.00     0.083 H 
ATOM     15  H6  3IB d   1      98.877  40.778  12.640  0.00  0.00     0.086 H 
ENDROOT
BRANCH   3  16
ATOM     16  C10 3IB d   1     100.980  45.994  10.812  0.00  0.00    -0.038 C 
ATOM     17  H7  3IB d   1     100.544  46.605  11.617  0.00  0.00     0.040 H 
ATOM     18  H8  3IB d   1     100.570  46.316   9.844  0.00  0.00     0.040 H 
BRANCH  16  19
ATOM     19  C11 3IB d   1     102.489  46.226  10.796  0.00  0.00    -0.052 C 
ATOM     20  H9  3IB d   1     102.684  47.254  10.457  0.00  0.00     0.034 H 
ATOM     21  H10 3IB d   1     102.947  45.515  10.093  0.00  0.00     0.034 H 
BRANCH  19  22
ATOM     22  C12 3IB d   1     103.129  46.035  12.173  0.00  0.00     0.016 C 
ATOM     23  H11 3IB d   1     104.222  46.008  12.050  0.00  0.00     0.049 H 
ATOM     24  H12 3IB d   1     102.783  45.077  12.589  0.00  0.00     0.049 H 
BRANCH  22  25
ATOM     25  C13 3IB d   1     102.780  47.143  13.155  0.00  0.00     0.172 C 
ATOM     26  O1  3IB d   1     103.007  46.967  14.371  0.00  0.00    -0.648 OA
ATOM     27  O2  3IB d   1     102.267  48.195  12.722  0.00  0.00    -0.648 OA
ENDBRANCH  22  25
ENDBRANCH  19  22
ENDBRANCH  16  19
ENDBRANCH   3  16
TORSDOF 4
