REMARK  4 active torsions:
REMARK  status: ('A' for Active; 'I' for Inactive)
REMARK    1  A    between atoms: CA_1  and  CB1_2 
REMARK    2  A    between atoms: CA_1  and  CB2_10 
REMARK    3  A    between atoms: CB1_2  and  CG_3 
REMARK    4  A    between atoms: CG_3  and  CD_4 
ROOT
ATOM      1  CG  CLT d   1     101.032  46.222  10.904  0.00  0.00    -0.041 C 
ATOM      2  H5  CLT d   1     100.584  46.413   9.918  0.00  0.00     0.040 H 
ATOM      3  H6  CLT d   1     100.705  46.998  11.612  0.00  0.00     0.040 H 
ENDROOT
BRANCH   1   4
ATOM      4  CB1 CLT d   1     102.550  46.308  10.766  0.00  0.00    -0.052 C 
ATOM      5  H3  CLT d   1     102.885  45.538  10.055  0.00  0.00     0.034 H 
ATOM      6  H4  CLT d   1     102.815  47.304  10.381  0.00  0.00     0.034 H 
BRANCH   4   7
ATOM      7  CA  CLT d   1     103.264  46.090  12.102  0.00  0.00     0.016 C 
ATOM      8  H1  CLT d   1     104.350  46.123  11.927  0.00  0.00     0.049 H 
ATOM      9  H2  CLT d   1     102.985  45.099  12.489  0.00  0.00     0.049 H 
BRANCH   7  10
ATOM     10  CB2 CLT d   1     102.912  47.134  13.149  0.00  0.00     0.172 C 
ATOM     11  OG1 CLT d   1     103.039  46.841  14.357  0.00  0.00    -0.648 OA
ATOM     12  OG2 CLT d   1     102.502  48.250  12.772  0.00  0.00    -0.648 OA
ENDBRANCH   7  10
ENDBRANCH   4   7
ENDBRANCH   1   4
BRANCH   1  13
ATOM     13  CD  CLT d   1     100.536  44.892  11.399  0.00  0.00    -0.058 A 
ATOM     14  CE1 CLT d   1     100.698  43.746  10.633  0.00  0.00    -0.077 A 
ATOM     15  CZ1 CLT d   1     100.237  42.516  11.086  0.00  0.00    -0.082 A 
ATOM     16  H7  CLT d   1     101.190  43.811   9.669  0.00  0.00     0.084 H 
ATOM     17  CH  CLT d   1      99.613  42.425  12.318  0.00  0.00    -0.083 A 
ATOM     18  H9  CLT d   1     100.366  41.629  10.476  0.00  0.00     0.083 H 
ATOM     19  CZ2 CLT d   1      99.444  43.566  13.094  0.00  0.00    -0.082 A 
ATOM     20  H11 CLT d   1      99.257  41.466  12.677  0.00  0.00     0.083 H 
ATOM     21  CE2 CLT d   1      99.908  44.789  12.633  0.00  0.00    -0.077 A 
ATOM     22  H10 CLT d   1      98.951  43.500  14.057  0.00  0.00     0.083 H 
ATOM     23  H8  CLT d   1      99.779  45.675  13.244  0.00  0.00     0.084 H 
ENDBRANCH   1  13
TORSDOF 4
