REMARK  4 active torsions:
REMARK  status: ('A' for Active; 'I' for Inactive)
REMARK    1  A    between atoms: C2_2  and  C6_6 
REMARK    2  A    between atoms: C6_6  and  C7_7 
REMARK    3  A    between atoms: C7_7  and  C8_8 
REMARK    4  A    between atoms: C8_8  and  C9_9 
ROOT
ATOM      1  C6  4TB d   1      93.068  18.504  -2.915  0.00  0.00    -0.034 C 
ATOM      2  H4  4TB d   1      93.070  19.467  -3.447  0.00  0.00     0.040 H 
ATOM      3  H5  4TB d   1      92.121  18.390  -2.366  0.00  0.00     0.040 H 
ENDROOT
BRANCH   1   4
ATOM      4  C2  4TB d   1      94.195  18.503  -1.927  0.00  0.00    -0.018 A 
ATOM      5  S1  4TB d   1      94.395  19.850  -0.821  0.00  0.00    -0.106 SA
ATOM      6  C5  4TB d   1      95.779  19.054  -0.083  0.00  0.00    -0.045 A 
ATOM      7  C4  4TB d   1      96.049  17.865  -0.651  0.00  0.00    -0.076 A 
ATOM      8  H3  4TB d   1      96.353  19.476   0.741  0.00  0.00     0.095 H 
ATOM      9  C3  4TB d   1      95.123  17.537  -1.735  0.00  0.00    -0.070 A 
ATOM     10  H2  4TB d   1      96.867  17.218  -0.338  0.00  0.00     0.084 H 
ATOM     11  H1  4TB d   1      95.175  16.620  -2.321  0.00  0.00     0.085 H 
ENDBRANCH   1   4
BRANCH   1  12
ATOM     12  C7  4TB d   1      93.172  17.387  -3.937  0.00  0.00    -0.052 C 
ATOM     13  H6  4TB d   1      93.810  16.589  -3.530  0.00  0.00     0.034 H 
ATOM     14  H7  4TB d   1      93.625  17.785  -4.857  0.00  0.00     0.034 H 
BRANCH  12  15
ATOM     15  C8  4TB d   1      91.812  16.808  -4.270  0.00  0.00     0.016 C 
ATOM     16  H8  4TB d   1      91.556  17.074  -5.306  0.00  0.00     0.049 H 
ATOM     17  H9  4TB d   1      91.065  17.237  -3.586  0.00  0.00     0.049 H 
BRANCH  15  18
ATOM     18  C9  4TB d   1      91.794  15.302  -4.133  0.00  0.00     0.172 C 
ATOM     19  O1  4TB d   1      91.201  14.796  -3.162  0.00  0.00    -0.648 OA
ATOM     20  O2  4TB d   1      92.410  14.614  -4.968  0.00  0.00    -0.648 OA
ENDBRANCH  15  18
ENDBRANCH  12  15
ENDBRANCH   1  12
TORSDOF 4
