REMARK  5 active torsions:
REMARK  status: ('A' for Active; 'I' for Inactive)
REMARK    1  A    between atoms: C1_1  and  O7_7 
REMARK    2  A    between atoms: C2_2  and  O8_8 
REMARK    3  A    between atoms: C4_4  and  C10_10 
REMARK    4  A    between atoms: O8_8  and  C9_9 
REMARK    5  A    between atoms: C20_20  and  C21_21 
ROOT
ATOM      1  C10 43A d   1       7.780  -3.512  16.909  0.00  0.00    -0.024 A 
ATOM      2  C11 43A d   1       7.370  -2.448  17.856  0.00  0.00    -0.046 A 
ATOM      3  C12 43A d   1       6.034  -2.476  18.439  0.00  0.00     0.047 A 
ATOM      4  C13 43A d   1       5.102  -3.515  18.121  0.00  0.00     0.006 A 
ATOM      5  C14 43A d   1       5.464  -4.582  17.195  0.00  0.00    -0.069 A 
ATOM      6  C15 43A d   1       6.804  -4.568  16.600  0.00  0.00    -0.071 A 
ATOM      7  N16 43A d   1       5.465  -1.609  19.316  0.00  0.00    -0.322 N 
ATOM      8  C17 43A d   1       4.191  -1.984  19.620  0.00  0.00     0.257 A 
ATOM      9  C18 43A d   1       3.821  -3.285  18.858  0.00  0.00     0.046 A 
ATOM     10  O19 43A d   1       3.473  -1.346  20.394  0.00  0.00    -0.267 OA
ATOM     11  C20 43A d   1       2.712  -4.088  18.782  0.00  0.00    -0.041 C 
ATOM     12  H8  43A d   1       8.060  -1.653  18.114  0.00  0.00     0.088 H 
ATOM     13  H9  43A d   1       4.758  -5.368  16.952  0.00  0.00     0.085 H 
ATOM     14  H10 43A d   1       7.083  -5.359  15.913  0.00  0.00     0.084 H 
ATOM     15  H11 43A d   1       5.921  -0.801  19.690  0.00  0.00     0.169 HD
ATOM     16  H12 43A d   1       2.851  -5.078  18.349  0.00  0.00     0.088 H 
ENDROOT
BRANCH   1  17
ATOM     17  C4  43A d   1       9.168  -3.493  16.288  0.00  0.00    -0.023 A 
ATOM     18  C3  43A d   1       9.749  -2.252  15.776  0.00  0.00    -0.037 A 
ATOM     19  C2  43A d   1      11.114  -2.209  15.165  0.00  0.00     0.102 A 
ATOM     20  H1  43A d   1       9.173  -1.336  15.841  0.00  0.00     0.089 H 
ATOM     21  C1  43A d   1      11.880  -3.481  15.087  0.00  0.00     0.099 A 
ATOM     22  C6  43A d   1      11.293  -4.711  15.596  0.00  0.00    -0.047 A 
ATOM     23  C5  43A d   1       9.965  -4.712  16.183  0.00  0.00    -0.069 A 
ATOM     24  H3  43A d   1      11.853  -5.637  15.536  0.00  0.00     0.087 H 
ATOM     25  H2  43A d   1       9.554  -5.644  16.554  0.00  0.00     0.085 H 
BRANCH  19  26
ATOM     26  O8  43A d   1      11.788  -1.042  14.630  0.00  0.00    -0.353 OA
BRANCH  26  27
ATOM     27  C9  43A d   1      11.710   0.222  15.286  0.00  0.00     0.010 C 
ATOM     28  H5  43A d   1      12.288   0.966  14.718  0.00  0.00     0.066 H 
ATOM     29  H6  43A d   1      12.123   0.134  16.302  0.00  0.00     0.066 H 
ATOM     30  H7  43A d   1      10.659   0.541  15.344  0.00  0.00     0.066 H 
ENDBRANCH  26  27
ENDBRANCH  19  26
BRANCH  21  31
ATOM     31  O7  43A d   1      13.158  -3.513  14.532  0.00  0.00    -0.358 OA
ATOM     32  H4  43A d   1      13.164  -4.103  13.787  0.00  0.00     0.217 HD
ENDBRANCH  21  31
ENDBRANCH   1  17
BRANCH  11  33
ATOM     33  C21 43A d   1       1.337  -3.740  19.233  0.00  0.00     0.032 A 
ATOM     34  N22 43A d   1       1.023  -2.719  19.780  0.00  0.00    -0.366 N 
ATOM     35  C23 43A d   1      -0.407  -2.686  20.099  0.00  0.00    -0.022 A 
ATOM     36  H13 43A d   1       1.680  -1.957  19.999  0.00  0.00     0.165 HD
ATOM     37  C24 43A d   1      -0.887  -3.841  19.656  0.00  0.00    -0.066 A 
ATOM     38  H14 43A d   1      -0.957  -1.886  20.593  0.00  0.00     0.111 H 
ATOM     39  C25 43A d   1       0.259  -4.528  19.089  0.00  0.00    -0.056 A 
ATOM     40  H15 43A d   1      -1.915  -4.196  19.707  0.00  0.00     0.085 H 
ATOM     41  H16 43A d   1       0.247  -5.514  18.626  0.00  0.00     0.087 H 
ENDBRANCH  11  33
TORSDOF 5
