REMARK  13 active torsions:
REMARK  status: ('A' for Active; 'I' for Inactive)
REMARK    1  A    between atoms: C7_2  and  C6_5 
REMARK    2  A    between atoms: C1_10  and  N2_11 
REMARK    3  A    between atoms: C13_19  and  C14_20 
REMARK    4  A    between atoms: C14_20  and  N21_21 
REMARK    5  A    between atoms: N21_21  and  C22_22 
REMARK    6  A    between atoms: N21_21  and  C23_23 
REMARK    7  A    between atoms: C23_23  and  C24_24 
REMARK    8  A    between atoms: C24_24  and  N25_25 
REMARK    9  A    between atoms: N25_25  and  C28_26 
REMARK   10  A    between atoms: N25_25  and  C26_27 
REMARK   11  A    between atoms: C26_27  and  C27_28 
REMARK   12  A    between atoms: C38_37  and  C39_38 
REMARK   13  A    between atoms: C36_39  and  C37_40 
ROOT
ATOM      1  N21 307 d   1     -22.804  75.537  30.891  0.00  0.00    -0.069 N 
ATOM      2  H12 307 d   1     -22.001  75.968  31.322  0.00  0.00     0.279 HD
ENDROOT
BRANCH   1   3
ATOM      3  C14 307 d   1     -22.305  74.210  31.093  0.00  0.00     0.109 C 
ATOM      4  H10 307 d   1     -23.199  73.610  31.318  0.00  0.00     0.083 H 
ATOM      5  H11 307 d   1     -21.901  73.914  30.113  0.00  0.00     0.083 H 
BRANCH   3   6
ATOM      6  C13 307 d   1     -21.271  73.739  32.088  0.00  0.00    -0.004 A 
ATOM      7  C12 307 d   1     -19.893  73.982  32.224  0.00  0.00    -0.006 A 
ATOM      8  N2  307 d   1     -19.448  73.200  33.241  0.00  0.00    -0.321 N 
ATOM      9  H5  307 d   1     -19.295  74.668  31.626  0.00  0.00     0.113 H 
ATOM     10  C16 307 d   1     -20.426  72.441  33.761  0.00  0.00     0.050 A 
ATOM     11  C20 307 d   1     -20.608  71.465  34.811  0.00  0.00    -0.056 A 
ATOM     12  C15 307 d   1     -21.542  72.765  33.024  0.00  0.00     0.000 A 
ATOM     13  C19 307 d   1     -21.875  70.889  35.021  0.00  0.00    -0.081 A 
ATOM     14  H6  307 d   1     -19.770  71.177  35.436  0.00  0.00     0.087 H 
ATOM     15  C18 307 d   1     -22.988  71.237  34.250  0.00  0.00    -0.082 A 
ATOM     16  H7  307 d   1     -21.992  70.151  35.806  0.00  0.00     0.083 H 
ATOM     17  C17 307 d   1     -22.848  72.189  33.238  0.00  0.00    -0.070 A 
ATOM     18  H8  307 d   1     -23.950  70.773  34.436  0.00  0.00     0.083 H 
ATOM     19  H9  307 d   1     -23.695  72.487  32.631  0.00  0.00     0.084 H 
BRANCH   8  20
ATOM     20  C1  307 d   1     -18.167  73.204  33.690  0.00  0.00     0.040 A 
ATOM     21  C11 307 d   1     -17.659  72.388  34.724  0.00  0.00    -0.042 A 
ATOM     22  C6  307 d   1     -16.339  72.410  35.183  0.00  0.00     0.050 A 
ATOM     23  H1  307 d   1     -18.343  71.693  35.197  0.00  0.00     0.088 H 
ATOM     24  C5  307 d   1     -15.429  73.260  34.574  0.00  0.00    -0.068 A 
ATOM     25  C4  307 d   1     -15.865  74.076  33.543  0.00  0.00    -0.080 A 
ATOM     26  H2  307 d   1     -14.395  73.286  34.899  0.00  0.00     0.084 H 
ATOM     27  C3  307 d   1     -17.195  74.042  33.131  0.00  0.00    -0.057 A 
ATOM     28  H3  307 d   1     -15.167  74.745  33.054  0.00  0.00     0.083 H 
ATOM     29  H4  307 d   1     -17.496  74.705  32.328  0.00  0.00     0.086 H 
BRANCH  22  30
ATOM     30  C7  307 d   1     -15.854  71.469  36.262  0.00  0.00     0.417 C 
ATOM     31  F9  307 d   1     -16.560  70.336  36.158  0.00  0.00    -0.166 F 
ATOM     32  F10 307 d   1     -14.629  71.084  35.937  0.00  0.00    -0.166 F 
ATOM     33  F8  307 d   1     -15.809  71.965  37.475  0.00  0.00    -0.166 F 
ENDBRANCH  22  30
ENDBRANCH   8  20
ENDBRANCH   3   6
ENDBRANCH   1   3
BRANCH   1  34
ATOM     34  C22 307 d   1     -23.696  76.119  31.877  0.00  0.00     0.067 C 
ATOM     35  H13 307 d   1     -23.978  77.135  31.562  0.00  0.00     0.068 H 
ATOM     36  H14 307 d   1     -23.186  76.165  32.851  0.00  0.00     0.068 H 
ATOM     37  H15 307 d   1     -24.600  75.499  31.965  0.00  0.00     0.068 H 
ENDBRANCH   1  34
BRANCH   1  38
ATOM     38  C23 307 d   1     -22.503  76.133  29.596  0.00  0.00     0.106 C 
ATOM     39  H16 307 d   1     -23.413  76.135  28.979  0.00  0.00     0.078 H 
ATOM     40  H17 307 d   1     -21.723  75.539  29.097  0.00  0.00     0.078 H 
BRANCH  38  41
ATOM     41  C24 307 d   1     -22.011  77.561  29.764  0.00  0.00     0.106 C 
ATOM     42  H18 307 d   1     -22.718  78.122  30.392  0.00  0.00     0.078 H 
ATOM     43  H19 307 d   1     -21.935  78.042  28.778  0.00  0.00     0.078 H 
BRANCH  41  44
ATOM     44  N25 307 d   1     -20.699  77.547  30.401  0.00  0.00    -0.069 N 
ATOM     45  H20 307 d   1     -21.023  76.893  31.096  0.00  0.00     0.279 HD
BRANCH  44  46
ATOM     46  C28 307 d   1     -19.637  76.614  30.037  0.00  0.00     0.067 C 
ATOM     47  H21 307 d   1     -18.751  76.806  30.660  0.00  0.00     0.068 H 
ATOM     48  H22 307 d   1     -19.377  76.750  28.977  0.00  0.00     0.068 H 
ATOM     49  H23 307 d   1     -19.983  75.583  30.200  0.00  0.00     0.068 H 
ENDBRANCH  44  46
BRANCH  44  50
ATOM     50  C26 307 d   1     -20.515  78.567  31.399  0.00  0.00     0.112 C 
ATOM     51  H24 307 d   1     -21.502  78.925  31.728  0.00  0.00     0.083 H 
ATOM     52  H25 307 d   1     -19.952  79.401  30.955  0.00  0.00     0.083 H 
BRANCH  50  53
ATOM     53  C27 307 d   1     -19.761  78.052  32.594  0.00  0.00     0.041 C 
ATOM     54  C29 307 d   1     -18.491  78.464  32.737  0.00  0.00     0.031 C 
ATOM     55  O30 307 d   1     -17.854  78.310  34.025  0.00  0.00    -0.321 OA
ATOM     56  H26 307 d   1     -17.952  78.905  31.900  0.00  0.00     0.124 H 
ATOM     57  C31 307 d   1     -18.317  77.369  34.899  0.00  0.00     0.089 A 
ATOM     58  C32 307 d   1     -19.542  76.772  34.671  0.00  0.00     0.049 A 
ATOM     59  C40 307 d   1     -17.568  77.026  36.014  0.00  0.00    -0.043 A 
ATOM     60  C35 307 d   1     -20.047  75.831  35.559  0.00  0.00    -0.060 A 
ATOM     61  C33 307 d   1     -20.328  77.214  33.479  0.00  0.00     0.194 C 
ATOM     62  C36 307 d   1     -19.294  75.465  36.661  0.00  0.00    -0.055 A 
ATOM     63  H27 307 d   1     -21.022  75.388  35.391  0.00  0.00     0.086 H 
ATOM     64  C38 307 d   1     -18.057  76.075  36.895  0.00  0.00    -0.053 A 
ATOM     65  O34 307 d   1     -21.492  76.853  33.384  0.00  0.00    -0.287 OA
ATOM     66  H28 307 d   1     -16.609  77.497  36.195  0.00  0.00     0.088 H 
BRANCH  62  67
ATOM     67  C37 307 d   1     -19.878  74.424  37.594  0.00  0.00    -0.051 C 
ATOM     68  H32 307 d   1     -20.852  74.090  37.207  0.00  0.00     0.033 H 
ATOM     69  H33 307 d   1     -20.012  74.862  38.594  0.00  0.00     0.033 H 
ATOM     70  H34 307 d   1     -19.195  73.564  37.658  0.00  0.00     0.033 H 
ENDBRANCH  62  67
BRANCH  64  71
ATOM     71  C39 307 d   1     -17.180  75.746  38.077  0.00  0.00    -0.051 C 
ATOM     72  H29 307 d   1     -16.266  76.357  38.037  0.00  0.00     0.033 H 
ATOM     73  H30 307 d   1     -16.910  74.680  38.048  0.00  0.00     0.033 H 
ATOM     74  H31 307 d   1     -17.724  75.962  39.008  0.00  0.00     0.033 H 
ENDBRANCH  64  71
ENDBRANCH  50  53
ENDBRANCH  44  50
ENDBRANCH  41  44
ENDBRANCH  38  41
ENDBRANCH   1  38
TORSDOF 13
