REMARK  16 active torsions:
REMARK  status: ('A' for Active; 'I' for Inactive)
REMARK    1  A    between atoms: C_1  and  O2_3 
REMARK       I    between atoms: C_1  and  N_11 
REMARK    2  A    between atoms: O2_3  and  C1'_4 
REMARK    3  A    between atoms: C1'_4  and  C1_5 
REMARK    4  A    between atoms: N_11  and  CA_12 
REMARK    5  A    between atoms: CA_12  and  C_13 
REMARK    6  A    between atoms: CA_12  and  CB_15 
REMARK       I    between atoms: C_13  and  N_16 
REMARK    7  A    between atoms: N_16  and  CA_17 
REMARK    8  A    between atoms: CA_17  and  C_18 
REMARK    9  A    between atoms: CA_17  and  CB_20 
REMARK       I    between atoms: C_18  and  N_23 
REMARK   10  A    between atoms: CB_20  and  CG1_21 
REMARK   11  A    between atoms: CB_20  and  CG2_22 
REMARK   12  A    between atoms: N_23  and  CA_24 
REMARK   13  A    between atoms: CA_24  and  C_25 
REMARK   14  A    between atoms: CA_24  and  CB_27 
REMARK   15  A    between atoms: C_25  and  O_26 
REMARK   16  A    between atoms: CB_27  and  CG_28 
ROOT
ATOM      1  CA  3TL d   1     -23.342  38.100  23.188  0.00  0.00     0.092 C 
ATOM      2  H14 3TL d   1     -22.868  37.108  23.161  0.00  0.00     0.088 H 
ENDROOT
BRANCH   1   3
ATOM      3  N   3TL d   1     -24.695  37.997  22.570  0.00  0.00    -0.346 N 
ATOM      4  C   3TL d   1     -25.142  37.015  21.773  0.00  0.00     0.240 C 
ATOM      5  O   3TL d   1     -24.503  36.003  21.389  0.00  0.00    -0.271 OA
ATOM      6  H13 3TL d   1     -25.336  38.737  22.771  0.00  0.00     0.163 HD
BRANCH   4   7
ATOM      7  CA  3TL d   1     -26.623  37.271  21.417  0.00  0.00     0.088 C 
ATOM      8  H9  3TL d   1     -26.891  38.285  21.750  0.00  0.00     0.087 H 
BRANCH   7   9
ATOM      9  N   3TL d   1     -26.878  37.109  20.117  0.00  0.00    -0.324 N 
ATOM     10  C   3TL d   1     -27.116  38.096  19.266  0.00  0.00     0.361 C 
ATOM     11  O1  3TL d   1     -27.205  39.334  19.257  0.00  0.00    -0.238 OA
ATOM     12  H8  3TL d   1     -26.890  36.175  19.759  0.00  0.00     0.165 HD
BRANCH  10  13
ATOM     13  O2  3TL d   1     -27.325  37.540  18.050  0.00  0.00    -0.299 OA
BRANCH  13  14
ATOM     14  C1' 3TL d   1     -28.213  38.118  17.126  0.00  0.00     0.054 C 
ATOM     15  H1  3TL d   1     -28.231  37.413  16.282  0.00  0.00     0.082 H 
ATOM     16  H2  3TL d   1     -27.720  39.051  16.815  0.00  0.00     0.082 H 
BRANCH  14  17
ATOM     17  C1  3TL d   1     -29.613  38.491  17.322  0.00  0.00    -0.034 A 
ATOM     18  C2  3TL d   1     -29.966  39.710  16.543  0.00  0.00    -0.075 A 
ATOM     19  C3  3TL d   1     -31.270  40.169  16.646  0.00  0.00    -0.082 A 
ATOM     20  H3  3TL d   1     -29.235  40.216  15.923  0.00  0.00     0.084 H 
ATOM     21  C4  3TL d   1     -32.202  39.430  17.507  0.00  0.00    -0.083 A 
ATOM     22  H4  3TL d   1     -31.593  41.051  16.105  0.00  0.00     0.083 H 
ATOM     23  C5  3TL d   1     -31.859  38.202  18.298  0.00  0.00    -0.082 A 
ATOM     24  H5  3TL d   1     -33.218  39.801  17.577  0.00  0.00     0.083 H 
ATOM     25  C6  3TL d   1     -30.498  37.710  18.198  0.00  0.00    -0.075 A 
ATOM     26  H6  3TL d   1     -32.596  37.704  18.917  0.00  0.00     0.083 H 
ATOM     27  H7  3TL d   1     -30.158  36.830  18.731  0.00  0.00     0.084 H 
ENDBRANCH  14  17
ENDBRANCH  13  14
ENDBRANCH  10  13
ENDBRANCH   7   9
BRANCH   7  28
ATOM     28  CB  3TL d   1     -27.602  36.206  22.018  0.00  0.00    -0.049 C 
ATOM     29  H10 3TL d   1     -27.517  36.208  23.115  0.00  0.00     0.030 H 
ATOM     30  H11 3TL d   1     -27.342  35.209  21.631  0.00  0.00     0.030 H 
ATOM     31  H12 3TL d   1     -28.634  36.453  21.730  0.00  0.00     0.030 H 
ENDBRANCH   7  28
ENDBRANCH   4   7
ENDBRANCH   1   3
BRANCH   1  32
ATOM     32  C   3TL d   1     -23.547  38.473  24.648  0.00  0.00     0.241 C 
ATOM     33  O   3TL d   1     -23.786  39.556  25.152  0.00  0.00    -0.271 OA
ATOM     34  N   3TL d   1     -23.403  37.418  25.450  0.00  0.00    -0.352 N 
ATOM     35  H22 3TL d   1     -23.206  36.549  24.996  0.00  0.00     0.163 HD
BRANCH  34  36
ATOM     36  CA  3TL d   1     -23.500  37.367  26.969  0.00  0.00     0.036 C 
ATOM     37  H23 3TL d   1     -23.361  38.368  27.402  0.00  0.00     0.076 H 
BRANCH  36  38
ATOM     38  C   3TL d   1     -22.302  36.466  27.264  0.00  0.00     0.036 C 
ATOM     39  H24 3TL d   1     -22.291  36.369  28.360  0.00  0.00     0.077 H 
ATOM     40  H25 3TL d   1     -21.429  37.050  26.938  0.00  0.00     0.077 H 
BRANCH  38  41
ATOM     41  O   3TL d   1     -22.065  35.214  26.808  0.00  0.00    -0.399 OA
ATOM     42  H26 3TL d   1     -22.023  35.227  25.859  0.00  0.00     0.209 HD
ENDBRANCH  38  41
ENDBRANCH  36  38
BRANCH  36  43
ATOM     43  CB  3TL d   1     -24.747  36.820  27.478  0.00  0.00    -0.020 C 
ATOM     44  H27 3TL d   1     -24.721  37.015  28.560  0.00  0.00     0.043 H 
ATOM     45  H28 3TL d   1     -24.676  35.737  27.299  0.00  0.00     0.043 H 
BRANCH  43  46
ATOM     46  CG  3TL d   1     -26.062  37.172  27.074  0.00  0.00    -0.056 A 
ATOM     47  CD1 3TL d   1     -26.809  36.568  25.941  0.00  0.00    -0.077 A 
ATOM     48  CE1 3TL d   1     -28.164  37.035  25.616  0.00  0.00    -0.082 A 
ATOM     49  H29 3TL d   1     -26.353  35.780  25.352  0.00  0.00     0.084 H 
ATOM     50  CZ  3TL d   1     -28.669  38.083  26.486  0.00  0.00    -0.083 A 
ATOM     51  H31 3TL d   1     -28.741  36.630  24.793  0.00  0.00     0.083 H 
ATOM     52  CE2 3TL d   1     -27.883  38.654  27.613  0.00  0.00    -0.082 A 
ATOM     53  H33 3TL d   1     -29.666  38.468  26.305  0.00  0.00     0.083 H 
ATOM     54  CD2 3TL d   1     -26.589  38.176  27.880  0.00  0.00    -0.077 A 
ATOM     55  H32 3TL d   1     -28.309  39.439  28.228  0.00  0.00     0.083 H 
ATOM     56  H30 3TL d   1     -26.010  38.583  28.701  0.00  0.00     0.084 H 
ENDBRANCH  43  46
ENDBRANCH  36  43
ENDBRANCH  34  36
ENDBRANCH   1  32
BRANCH   1  57
ATOM     57  CB  3TL d   1     -22.433  39.053  22.377  0.00  0.00    -0.033 C 
ATOM     58  H15 3TL d   1     -22.891  40.053  22.381  0.00  0.00     0.042 H 
BRANCH  57  59
ATOM     59  CG1 3TL d   1     -21.095  39.116  23.046  0.00  0.00    -0.071 C 
ATOM     60  H16 3TL d   1     -20.434  39.791  22.482  0.00  0.00     0.028 H 
ATOM     61  H17 3TL d   1     -20.652  38.109  23.076  0.00  0.00     0.028 H 
ATOM     62  H18 3TL d   1     -21.215  39.494  24.072  0.00  0.00     0.028 H 
ENDBRANCH  57  59
BRANCH  57  63
ATOM     63  CG2 3TL d   1     -22.222  38.621  20.906  0.00  0.00    -0.071 C 
ATOM     64  H19 3TL d   1     -23.195  38.569  20.396  0.00  0.00     0.028 H 
ATOM     65  H20 3TL d   1     -21.741  37.632  20.880  0.00  0.00     0.028 H 
ATOM     66  H21 3TL d   1     -21.580  39.355  20.397  0.00  0.00     0.028 H 
ENDBRANCH  57  63
ENDBRANCH   1  57
TORSDOF 16
