REMARK  16 active torsions:
REMARK  status: ('A' for Active; 'I' for Inactive)
REMARK    1  A    between atoms: C_1  and  O2_3 
REMARK       I    between atoms: C_1  and  N_11 
REMARK    2  A    between atoms: O2_3  and  C1'_4 
REMARK    3  A    between atoms: C1'_4  and  C1_5 
REMARK    4  A    between atoms: N_11  and  CA_12 
REMARK    5  A    between atoms: CA_12  and  C_13 
REMARK    6  A    between atoms: CA_12  and  CB_15 
REMARK       I    between atoms: C_13  and  N_16 
REMARK    7  A    between atoms: N_16  and  CA_17 
REMARK    8  A    between atoms: CA_17  and  C_18 
REMARK    9  A    between atoms: CA_17  and  CB_20 
REMARK       I    between atoms: C_18  and  N_23 
REMARK   10  A    between atoms: CB_20  and  CG1_21 
REMARK   11  A    between atoms: CB_20  and  CG2_22 
REMARK   12  A    between atoms: N_23  and  CA_24 
REMARK   13  A    between atoms: CA_24  and  C_25 
REMARK   14  A    between atoms: CA_24  and  CB_27 
REMARK   15  A    between atoms: C_25  and  O_26 
REMARK   16  A    between atoms: CB_27  and  CG_28 
ROOT
ATOM      1  CA  3TL d   1      13.579  55.499  36.819  0.00  0.00     0.092 C 
ATOM      2  H14 3TL d   1      12.480  55.469  36.792  0.00  0.00     0.088 H 
ENDROOT
BRANCH   1   3
ATOM      3  N   3TL d   1      14.030  56.773  36.246  0.00  0.00    -0.346 N 
ATOM      4  C   3TL d   1      13.320  57.645  35.545  0.00  0.00     0.240 C 
ATOM      5  O   3TL d   1      12.091  57.555  35.217  0.00  0.00    -0.271 OA
ATOM      6  H13 3TL d   1      14.988  57.011  36.404  0.00  0.00     0.163 HD
BRANCH   4   7
ATOM      7  CA  3TL d   1      14.260  58.809  35.189  0.00  0.00     0.088 C 
ATOM      8  H9  3TL d   1      15.206  58.637  35.723  0.00  0.00     0.087 H 
BRANCH   7   9
ATOM      9  N   3TL d   1      14.473  58.920  33.890  0.00  0.00    -0.324 N 
ATOM     10  C   3TL d   1      15.574  58.582  33.233  0.00  0.00     0.361 C 
ATOM     11  O1  3TL d   1      16.705  58.102  33.431  0.00  0.00    -0.238 OA
ATOM     12  H8  3TL d   1      13.725  59.299  33.345  0.00  0.00     0.165 HD
BRANCH  10  13
ATOM     13  O2  3TL d   1      15.355  58.866  31.946  0.00  0.00    -0.299 OA
BRANCH  13  14
ATOM     14  C1' 3TL d   1      15.617  60.134  31.439  0.00  0.00     0.054 C 
ATOM     15  H1  3TL d   1      14.964  60.804  32.017  0.00  0.00     0.082 H 
ATOM     16  H2  3TL d   1      15.269  60.093  30.396  0.00  0.00     0.082 H 
BRANCH  14  17
ATOM     17  C1  3TL d   1      16.883  60.828  31.373  0.00  0.00    -0.034 A 
ATOM     18  C2  3TL d   1      17.818  60.172  30.406  0.00  0.00    -0.075 A 
ATOM     19  C3  3TL d   1      19.066  60.760  30.256  0.00  0.00    -0.082 A 
ATOM     20  H3  3TL d   1      17.535  59.284  29.852  0.00  0.00     0.084 H 
ATOM     21  C4  3TL d   1      19.372  61.973  31.052  0.00  0.00    -0.083 A 
ATOM     22  H4  3TL d   1      19.799  60.343  29.574  0.00  0.00     0.083 H 
ATOM     23  C5  3TL d   1      18.438  62.635  32.025  0.00  0.00    -0.082 A 
ATOM     24  H5  3TL d   1      20.351  62.419  30.921  0.00  0.00     0.083 H 
ATOM     25  C6  3TL d   1      17.130  62.034  32.194  0.00  0.00    -0.075 A 
ATOM     26  H6  3TL d   1      18.729  63.522  32.576  0.00  0.00     0.083 H 
ATOM     27  H7  3TL d   1      16.387  62.438  32.872  0.00  0.00     0.084 H 
ENDBRANCH  14  17
ENDBRANCH  13  14
ENDBRANCH  10  13
ENDBRANCH   7   9
BRANCH   7  28
ATOM     28  CB  3TL d   1      13.748  60.241  35.482  0.00  0.00    -0.049 C 
ATOM     29  H10 3TL d   1      13.514  60.335  36.553  0.00  0.00     0.030 H 
ATOM     30  H11 3TL d   1      12.841  60.435  34.890  0.00  0.00     0.030 H 
ATOM     31  H12 3TL d   1      14.525  60.971  35.212  0.00  0.00     0.030 H 
ENDBRANCH   7  28
ENDBRANCH   4   7
ENDBRANCH   1   3
BRANCH   1  32
ATOM     32  C   3TL d   1      13.989  55.517  38.286  0.00  0.00     0.241 C 
ATOM     33  O   3TL d   1      15.055  55.218  38.842  0.00  0.00    -0.271 OA
ATOM     34  N   3TL d   1      12.991  55.929  39.048  0.00  0.00    -0.352 N 
ATOM     35  H22 3TL d   1      12.144  56.167  38.573  0.00  0.00     0.163 HD
BRANCH  34  36
ATOM     36  CA  3TL d   1      12.976  56.084  40.551  0.00  0.00     0.036 C 
ATOM     37  H23 3TL d   1      13.752  55.407  40.938  0.00  0.00     0.076 H 
BRANCH  36  38
ATOM     38  C   3TL d   1      11.659  55.381  40.892  0.00  0.00     0.036 C 
ATOM     39  H24 3TL d   1      11.568  55.403  41.988  0.00  0.00     0.077 H 
ATOM     40  H25 3TL d   1      11.764  54.340  40.554  0.00  0.00     0.077 H 
BRANCH  38  41
ATOM     41  O   3TL d   1      10.479  55.827  40.400  0.00  0.00    -0.399 OA
ATOM     42  H26 3TL d   1       9.775  55.272  40.715  0.00  0.00     0.209 HD
ENDBRANCH  38  41
ENDBRANCH  36  38
BRANCH  36  43
ATOM     43  CB  3TL d   1      13.436  57.396  41.089  0.00  0.00    -0.020 C 
ATOM     44  H27 3TL d   1      14.384  57.163  41.595  0.00  0.00     0.043 H 
ATOM     45  H28 3TL d   1      12.676  57.663  41.838  0.00  0.00     0.043 H 
BRANCH  43  46
ATOM     46  CG  3TL d   1      13.700  58.639  40.391  0.00  0.00    -0.056 A 
ATOM     47  CD1 3TL d   1      12.669  59.567  39.810  0.00  0.00    -0.077 A 
ATOM     48  CE1 3TL d   1      13.064  60.835  39.124  0.00  0.00    -0.082 A 
ATOM     49  H29 3TL d   1      11.619  59.311  39.890  0.00  0.00     0.084 H 
ATOM     50  CZ  3TL d   1      14.504  61.081  39.070  0.00  0.00    -0.083 A 
ATOM     51  H31 3TL d   1      12.338  61.519  38.699  0.00  0.00     0.083 H 
ATOM     52  CE2 3TL d   1      15.504  60.120  39.665  0.00  0.00    -0.082 A 
ATOM     53  H33 3TL d   1      14.865  61.982  38.587  0.00  0.00     0.083 H 
ATOM     54  CD2 3TL d   1      15.081  58.914  40.317  0.00  0.00    -0.077 A 
ATOM     55  H32 3TL d   1      16.562  60.345  39.599  0.00  0.00     0.083 H 
ATOM     56  H30 3TL d   1      15.806  58.230  40.743  0.00  0.00     0.084 H 
ENDBRANCH  43  46
ENDBRANCH  36  43
ENDBRANCH  34  36
ENDBRANCH   1  32
BRANCH   1  57
ATOM     57  CB  3TL d   1      14.073  54.316  35.930  0.00  0.00    -0.033 C 
ATOM     58  H15 3TL d   1      15.173  54.345  35.939  0.00  0.00     0.042 H 
BRANCH  57  59
ATOM     59  CG1 3TL d   1      13.625  52.986  36.470  0.00  0.00    -0.071 C 
ATOM     60  H16 3TL d   1      13.993  52.182  35.816  0.00  0.00     0.028 H 
ATOM     61  H17 3TL d   1      12.526  52.956  36.505  0.00  0.00     0.028 H 
ATOM     62  H18 3TL d   1      14.028  52.847  37.484  0.00  0.00     0.028 H 
ENDBRANCH  57  59
BRANCH  57  63
ATOM     63  CG2 3TL d   1      13.604  54.376  34.452  0.00  0.00    -0.071 C 
ATOM     64  H19 3TL d   1      13.909  55.336  34.009  0.00  0.00     0.028 H 
ATOM     65  H20 3TL d   1      12.508  54.285  34.411  0.00  0.00     0.028 H 
ATOM     66  H21 3TL d   1      14.062  53.550  33.888  0.00  0.00     0.028 H 
ENDBRANCH  57  63
ENDBRANCH   1  57
TORSDOF 16
