REMARK  16 active torsions:
REMARK  status: ('A' for Active; 'I' for Inactive)
REMARK    1  A    between atoms: C_1  and  O2_3 
REMARK       I    between atoms: C_1  and  N_11 
REMARK    2  A    between atoms: O2_3  and  C1'_4 
REMARK    3  A    between atoms: C1'_4  and  C1_5 
REMARK    4  A    between atoms: N_11  and  CA_12 
REMARK    5  A    between atoms: CA_12  and  C_13 
REMARK    6  A    between atoms: CA_12  and  CB_15 
REMARK       I    between atoms: C_13  and  N_16 
REMARK    7  A    between atoms: N_16  and  CA_17 
REMARK    8  A    between atoms: CA_17  and  C_18 
REMARK    9  A    between atoms: CA_17  and  CB_20 
REMARK       I    between atoms: C_18  and  N_23 
REMARK   10  A    between atoms: CB_20  and  CG1_21 
REMARK   11  A    between atoms: CB_20  and  CG2_22 
REMARK   12  A    between atoms: N_23  and  CA_24 
REMARK   13  A    between atoms: CA_24  and  C_25 
REMARK   14  A    between atoms: CA_24  and  CB_27 
REMARK   15  A    between atoms: C_25  and  O_26 
REMARK   16  A    between atoms: CB_27  and  CG_28 
ROOT
ATOM      1  CA  3TL d   1     -23.172  37.750  23.253  0.00  0.00     0.092 C 
ATOM      2  H14 3TL d   1     -22.602  36.818  23.127  0.00  0.00     0.088 H 
ENDROOT
BRANCH   1   3
ATOM      3  N   3TL d   1     -24.509  37.558  22.665  0.00  0.00    -0.346 N 
ATOM      4  C   3TL d   1     -24.934  36.493  21.990  0.00  0.00     0.240 C 
ATOM      5  O   3TL d   1     -24.295  35.445  21.692  0.00  0.00    -0.271 OA
ATOM      6  H13 3TL d   1     -25.164  38.304  22.785  0.00  0.00     0.163 HD
BRANCH   4   7
ATOM      7  CA  3TL d   1     -26.433  36.597  21.614  0.00  0.00     0.088 C 
ATOM      8  H9  3TL d   1     -26.733  37.634  21.826  0.00  0.00     0.087 H 
BRANCH   7   9
ATOM      9  N   3TL d   1     -26.710  36.295  20.382  0.00  0.00    -0.324 N 
ATOM     10  C   3TL d   1     -26.847  37.226  19.473  0.00  0.00     0.361 C 
ATOM     11  O1  3TL d   1     -26.755  38.497  19.601  0.00  0.00    -0.238 OA
ATOM     12  H8  3TL d   1     -26.820  35.335  20.124  0.00  0.00     0.165 HD
BRANCH  10  13
ATOM     13  O2  3TL d   1     -27.188  36.644  18.094  0.00  0.00    -0.299 OA
BRANCH  13  14
ATOM     14  C1' 3TL d   1     -27.901  37.416  17.151  0.00  0.00     0.054 C 
ATOM     15  H1  3TL d   1     -27.798  36.921  16.174  0.00  0.00     0.082 H 
ATOM     16  H2  3TL d   1     -27.428  38.408  17.111  0.00  0.00     0.082 H 
BRANCH  14  17
ATOM     17  C1  3TL d   1     -29.377  37.627  17.400  0.00  0.00    -0.034 A 
ATOM     18  C2  3TL d   1     -29.865  38.992  17.444  0.00  0.00    -0.075 A 
ATOM     19  C3  3TL d   1     -31.267  39.260  17.677  0.00  0.00    -0.082 A 
ATOM     20  H3  3TL d   1     -29.175  39.816  17.302  0.00  0.00     0.084 H 
ATOM     21  C4  3TL d   1     -32.180  38.147  17.866  0.00  0.00    -0.083 A 
ATOM     22  H4  3TL d   1     -31.632  40.280  17.710  0.00  0.00     0.083 H 
ATOM     23  C5  3TL d   1     -31.677  36.767  17.820  0.00  0.00    -0.082 A 
ATOM     24  H5  3TL d   1     -33.233  38.334  18.041  0.00  0.00     0.083 H 
ATOM     25  C6  3TL d   1     -30.247  36.485  17.582  0.00  0.00    -0.075 A 
ATOM     26  H6  3TL d   1     -32.367  35.943  17.963  0.00  0.00     0.083 H 
ATOM     27  H7  3TL d   1     -29.867  35.470  17.545  0.00  0.00     0.084 H 
ENDBRANCH  14  17
ENDBRANCH  13  14
ENDBRANCH  10  13
ENDBRANCH   7   9
BRANCH   7  28
ATOM     28  CB  3TL d   1     -27.380  35.664  22.270  0.00  0.00    -0.049 C 
ATOM     29  H10 3TL d   1     -27.299  35.767  23.362  0.00  0.00     0.030 H 
ATOM     30  H11 3TL d   1     -27.137  34.631  21.980  0.00  0.00     0.030 H 
ATOM     31  H12 3TL d   1     -28.407  35.901  21.954  0.00  0.00     0.030 H 
ENDBRANCH   7  28
ENDBRANCH   4   7
ENDBRANCH   1   3
BRANCH   1  32
ATOM     32  C   3TL d   1     -23.340  37.986  24.770  0.00  0.00     0.241 C 
ATOM     33  O   3TL d   1     -23.730  39.053  25.119  0.00  0.00    -0.271 OA
ATOM     34  N   3TL d   1     -23.024  36.968  25.552  0.00  0.00    -0.352 N 
ATOM     35  H22 3TL d   1     -22.725  36.168  25.032  0.00  0.00     0.163 HD
BRANCH  34  36
ATOM     36  CA  3TL d   1     -23.006  36.726  27.016  0.00  0.00     0.036 C 
ATOM     37  H23 3TL d   1     -22.905  37.743  27.423  0.00  0.00     0.076 H 
BRANCH  36  38
ATOM     38  C   3TL d   1     -21.665  36.070  27.316  0.00  0.00     0.036 C 
ATOM     39  H24 3TL d   1     -21.602  35.941  28.407  0.00  0.00     0.077 H 
ATOM     40  H25 3TL d   1     -20.881  36.766  26.983  0.00  0.00     0.077 H 
BRANCH  38  41
ATOM     41  O   3TL d   1     -21.393  34.841  26.742  0.00  0.00    -0.399 OA
ATOM     42  H26 3TL d   1     -20.530  34.551  27.012  0.00  0.00     0.209 HD
ENDBRANCH  38  41
ENDBRANCH  36  38
BRANCH  36  43
ATOM     43  CB  3TL d   1     -24.159  36.234  27.796  0.00  0.00    -0.020 C 
ATOM     44  H27 3TL d   1     -24.195  36.846  28.709  0.00  0.00     0.043 H 
ATOM     45  H28 3TL d   1     -23.926  35.192  28.062  0.00  0.00     0.043 H 
BRANCH  43  46
ATOM     46  CG  3TL d   1     -25.518  36.223  27.261  0.00  0.00    -0.056 A 
ATOM     47  CD1 3TL d   1     -26.069  35.029  26.562  0.00  0.00    -0.077 A 
ATOM     48  CE1 3TL d   1     -27.411  35.003  26.028  0.00  0.00    -0.082 A 
ATOM     49  H29 3TL d   1     -25.443  34.151  26.450  0.00  0.00     0.084 H 
ATOM     50  CZ  3TL d   1     -28.125  36.220  26.248  0.00  0.00    -0.083 A 
ATOM     51  H31 3TL d   1     -27.833  34.147  25.513  0.00  0.00     0.083 H 
ATOM     52  CE2 3TL d   1     -27.548  37.378  26.948  0.00  0.00    -0.082 A 
ATOM     53  H33 3TL d   1     -29.142  36.294  25.881  0.00  0.00     0.083 H 
ATOM     54  CD2 3TL d   1     -26.209  37.431  27.488  0.00  0.00    -0.077 A 
ATOM     55  H32 3TL d   1     -28.173  38.256  27.067  0.00  0.00     0.083 H 
ATOM     56  H30 3TL d   1     -25.790  38.289  28.001  0.00  0.00     0.084 H 
ENDBRANCH  43  46
ENDBRANCH  36  43
ENDBRANCH  34  36
ENDBRANCH   1  32
BRANCH   1  57
ATOM     57  CB  3TL d   1     -22.399  38.858  22.495  0.00  0.00    -0.033 C 
ATOM     58  H15 3TL d   1     -22.949  39.807  22.577  0.00  0.00     0.042 H 
BRANCH  57  59
ATOM     59  CG1 3TL d   1     -21.030  39.039  23.089  0.00  0.00    -0.071 C 
ATOM     60  H16 3TL d   1     -20.494  39.828  22.541  0.00  0.00     0.028 H 
ATOM     61  H17 3TL d   1     -20.470  38.095  23.014  0.00  0.00     0.028 H 
ATOM     62  H18 3TL d   1     -21.124  39.326  24.147  0.00  0.00     0.028 H 
ENDBRANCH  57  59
BRANCH  57  63
ATOM     63  CG2 3TL d   1     -22.312  38.458  21.036  0.00  0.00    -0.071 C 
ATOM     64  H19 3TL d   1     -23.326  38.333  20.629  0.00  0.00     0.028 H 
ATOM     65  H20 3TL d   1     -21.762  37.509  20.948  0.00  0.00     0.028 H 
ATOM     66  H21 3TL d   1     -21.785  39.241  20.472  0.00  0.00     0.028 H 
ENDBRANCH  57  63
ENDBRANCH   1  57
TORSDOF 16
