REMARK WARNING: 32 MAX_TORS EXCEEDED!!!
REMARK  33 active torsions:
REMARK  status: ('A' for Active; 'I' for Inactive)
REMARK    1  A    between atoms: C_1  and  O2_3 
REMARK    2  A    between atoms: O2_3  and  C1'_4 
REMARK    3  A    between atoms: C1'_4  and  C1_5 
REMARK    4  A    between atoms: CA_12  and  N_11 
REMARK    5  A    between atoms: C_13  and  CA_12 
REMARK    6  A    between atoms: CA_12  and  CB_15 
REMARK       I    between atoms: N_16  and  C_13 
REMARK    7  A    between atoms: CA_17  and  N_16 
REMARK    8  A    between atoms: C_18  and  CA_17 
REMARK    9  A    between atoms: CA_17  and  CB_20 
REMARK       I    between atoms: N_23  and  C_18 
REMARK   10  A    between atoms: CB_20  and  CG1_21 
REMARK   11  A    between atoms: CB_20  and  CG2_22 
REMARK   12  A    between atoms: CA_24  and  N_23 
REMARK   13  A    between atoms: C_25  and  CA_24 
REMARK   14  A    between atoms: CA_24  and  CB_27 
REMARK   15  A    between atoms: C_25  and  O_26 
REMARK   16  A    between atoms: C_58  and  C_25 
REMARK   17  A    between atoms: CB_27  and  CG_28 
REMARK   18  A    between atoms: C_34  and  O2_36 
REMARK       I    between atoms: N_44  and  C_34 
REMARK   19  A    between atoms: O2_36  and  C1'_37 
REMARK   20  A    between atoms: C1'_37  and  C1_38 
REMARK   21  A    between atoms: CA_45  and  N_44 
REMARK   22  A    between atoms: C_46  and  CA_45 
REMARK   23  A    between atoms: CA_45  and  CB_48 
REMARK       I    between atoms: N_49  and  C_46 
REMARK   24  A    between atoms: CA_50  and  N_49 
REMARK   25  A    between atoms: C_51  and  CA_50 
REMARK   26  A    between atoms: CA_50  and  CB_53 
REMARK       I    between atoms: N_56  and  C_51 
REMARK   27  A    between atoms: CB_53  and  CG1_54 
REMARK   28  A    between atoms: CB_53  and  CG2_55 
REMARK   29  A    between atoms: CA_57  and  N_56 
REMARK   30  A    between atoms: CA_57  and  C_58 
REMARK   31  A    between atoms: CA_57  and  CB_60 
REMARK   32  A    between atoms: C_58  and  O_59 
REMARK   33  A    between atoms: CB_60  and  CG_61 
ROOT
ATOM      1  C   3TL d   1     102.216  17.871  22.677  0.00  0.00     0.082 C 
ATOM      2  H24 3TL d   1     102.998  18.082  23.422  0.00  0.00     0.090 H 
ENDROOT
BRANCH   1   3
ATOM      3  CA  3TL d   1     102.293  19.016  21.590  0.00  0.00     0.043 C 
ATOM      4  H23 3TL d   1     103.224  18.947  21.009  0.00  0.00     0.077 H 
BRANCH   3   5
ATOM      5  N   3TL d   1     101.043  18.901  20.711  0.00  0.00    -0.352 N 
ATOM      6  C   3TL d   1     101.108  18.917  19.339  0.00  0.00     0.241 C 
ATOM      7  O   3TL d   1     102.220  19.027  18.701  0.00  0.00    -0.271 OA
ATOM      8  H22 3TL d   1     100.150  18.811  21.151  0.00  0.00     0.163 HD
BRANCH   6   9
ATOM      9  CA  3TL d   1      99.686  18.806  18.678  0.00  0.00     0.092 C 
ATOM     10  H14 3TL d   1      98.934  18.690  19.472  0.00  0.00     0.088 H 
BRANCH   9  11
ATOM     11  N   3TL d   1      99.442  20.043  17.983  0.00  0.00    -0.346 N 
ATOM     12  C   3TL d   1      98.321  20.712  18.075  0.00  0.00     0.240 C 
ATOM     13  O   3TL d   1      97.302  20.462  18.713  0.00  0.00    -0.271 OA
ATOM     14  H13 3TL d   1     100.167  20.410  17.400  0.00  0.00     0.163 HD
BRANCH  12  15
ATOM     15  CA  3TL d   1      98.307  22.051  17.183  0.00  0.00     0.087 C 
ATOM     16  H9  3TL d   1      99.178  22.019  16.512  0.00  0.00     0.087 H 
BRANCH  15  17
ATOM     17  N   3TL d   1      97.083  22.149  16.331  0.00  0.00    -0.336 N 
ATOM     18  C   3TL d   1      97.030  21.822  15.018  0.00  0.00     0.292 C 
ATOM     19  O1  3TL d   1      98.128  21.366  14.426  0.00  0.00    -0.143 OA
ATOM     20  H8  3TL d   1      96.243  22.480  16.761  0.00  0.00     0.164 HD
BRANCH  18  21
ATOM     21  O2  3TL d   1      95.670  21.997  14.376  0.00  0.00    -0.310 OA
BRANCH  21  22
ATOM     22  C1' 3TL d   1      95.791  21.614  12.939  0.00  0.00     0.053 C 
ATOM     23  H1  3TL d   1      94.786  21.476  12.514  0.00  0.00     0.082 H 
ATOM     24  H2  3TL d   1      96.354  20.672  12.861  0.00  0.00     0.082 H 
BRANCH  22  25
ATOM     25  C1  3TL d   1      96.544  22.737  12.135  0.00  0.00    -0.034 A 
ATOM     26  C2  3TL d   1      97.986  22.847  12.104  0.00  0.00    -0.075 A 
ATOM     27  C3  3TL d   1      98.674  23.849  11.352  0.00  0.00    -0.082 A 
ATOM     28  H3  3TL d   1      98.571  22.137  12.677  0.00  0.00     0.084 H 
ATOM     29  C4  3TL d   1      98.003  24.825  10.567  0.00  0.00    -0.083 A 
ATOM     30  H4  3TL d   1      99.757  23.865  11.382  0.00  0.00     0.083 H 
ATOM     31  C5  3TL d   1      96.559  24.789  10.543  0.00  0.00    -0.082 A 
ATOM     32  H5  3TL d   1      98.555  25.570  10.006  0.00  0.00     0.083 H 
ATOM     33  C6  3TL d   1      95.874  23.756  11.319  0.00  0.00    -0.075 A 
ATOM     34  H6  3TL d   1      95.996  25.511   9.963  0.00  0.00     0.083 H 
ATOM     35  H7  3TL d   1      94.790  23.742  11.289  0.00  0.00     0.084 H 
ENDBRANCH  22  25
ENDBRANCH  21  22
ENDBRANCH  18  21
ENDBRANCH  15  17
BRANCH  15  36
ATOM     36  CB  3TL d   1      98.446  23.280  18.084  0.00  0.00    -0.049 C 
ATOM     37  H10 3TL d   1      99.353  23.183  18.699  0.00  0.00     0.030 H 
ATOM     38  H11 3TL d   1      97.565  23.356  18.738  0.00  0.00     0.030 H 
ATOM     39  H12 3TL d   1      98.520  24.184  17.462  0.00  0.00     0.030 H 
ENDBRANCH  15  36
ENDBRANCH  12  15
ENDBRANCH   9  11
BRANCH   9  40
ATOM     40  CB  3TL d   1      99.577  17.591  17.744  0.00  0.00    -0.033 C 
ATOM     41  H15 3TL d   1     100.328  17.731  16.952  0.00  0.00     0.042 H 
BRANCH  40  42
ATOM     42  CG1 3TL d   1      99.985  16.382  18.552  0.00  0.00    -0.071 C 
ATOM     43  H16 3TL d   1      99.923  15.482  17.922  0.00  0.00     0.028 H 
ATOM     44  H17 3TL d   1      99.311  16.273  19.415  0.00  0.00     0.028 H 
ATOM     45  H18 3TL d   1     101.018  16.510  18.907  0.00  0.00     0.028 H 
ENDBRANCH  40  42
BRANCH  40  46
ATOM     46  CG2 3TL d   1      98.172  17.382  16.979  0.00  0.00    -0.071 C 
ATOM     47  H19 3TL d   1      97.926  18.290  16.409  0.00  0.00     0.028 H 
ATOM     48  H20 3TL d   1      97.379  17.186  17.716  0.00  0.00     0.028 H 
ATOM     49  H21 3TL d   1      98.253  16.528  16.291  0.00  0.00     0.028 H 
ENDBRANCH  40  46
ENDBRANCH   9  40
ENDBRANCH   6   9
ENDBRANCH   3   5
BRANCH   3  50
ATOM     50  CB  3TL d   1     102.127  20.423  22.266  0.00  0.00    -0.020 C 
ATOM     51  H26 3TL d   1     102.937  20.518  23.004  0.00  0.00     0.043 H 
ATOM     52  H27 3TL d   1     101.157  20.413  22.785  0.00  0.00     0.043 H 
BRANCH  50  53
ATOM     53  CG  3TL d   1     102.158  21.724  21.389  0.00  0.00    -0.056 A 
ATOM     54  CD1 3TL d   1     101.031  22.511  21.435  0.00  0.00    -0.077 A 
ATOM     55  CE1 3TL d   1     100.961  23.780  20.644  0.00  0.00    -0.082 A 
ATOM     56  H28 3TL d   1     100.189  22.211  22.048  0.00  0.00     0.084 H 
ATOM     57  CZ  3TL d   1     102.067  24.131  19.854  0.00  0.00    -0.083 A 
ATOM     58  H30 3TL d   1     100.080  24.411  20.680  0.00  0.00     0.083 H 
ATOM     59  CE2 3TL d   1     103.218  23.294  19.820  0.00  0.00    -0.082 A 
ATOM     60  H32 3TL d   1     102.044  25.043  19.268  0.00  0.00     0.083 H 
ATOM     61  CD2 3TL d   1     103.309  22.024  20.609  0.00  0.00    -0.077 A 
ATOM     62  H31 3TL d   1     104.059  23.586  19.201  0.00  0.00     0.083 H 
ATOM     63  H29 3TL d   1     104.183  21.384  20.587  0.00  0.00     0.084 H 
ENDBRANCH  50  53
ENDBRANCH   3  50
ENDBRANCH   1   3
BRANCH   1  64
ATOM     64  O   3TL d   1     100.908  17.815  23.325  0.00  0.00    -0.391 OA
ATOM     65  H25 3TL d   1     100.904  17.116  23.969  0.00  0.00     0.210 HD
ENDBRANCH   1  64
BRANCH   1  66
ATOM     66  C   3TL d   1     102.395  16.214  22.112  0.00  0.00     0.082 C 
ATOM     67  H56 3TL d   1     101.590  15.955  21.408  0.00  0.00     0.090 H 
BRANCH  66  68
ATOM     68  CA  3TL d   1     103.720  16.167  21.322  0.00  0.00     0.043 C 
ATOM     69  H55 3TL d   1     103.663  16.824  20.441  0.00  0.00     0.077 H 
BRANCH  68  70
ATOM     70  N   3TL d   1     104.760  16.614  22.198  0.00  0.00    -0.352 N 
ATOM     71  C   3TL d   1     105.601  17.634  22.040  0.00  0.00     0.241 C 
ATOM     72  O   3TL d   1     105.634  18.396  21.069  0.00  0.00    -0.271 OA
ATOM     73  H54 3TL d   1     104.870  16.090  23.042  0.00  0.00     0.163 HD
BRANCH  71  74
ATOM     74  CA  3TL d   1     106.519  17.729  23.232  0.00  0.00     0.092 C 
ATOM     75  H46 3TL d   1     106.008  17.339  24.125  0.00  0.00     0.088 H 
BRANCH  74  76
ATOM     76  N   3TL d   1     107.855  16.971  22.933  0.00  0.00    -0.346 N 
ATOM     77  C   3TL d   1     108.090  15.897  23.691  0.00  0.00     0.240 C 
ATOM     78  O   3TL d   1     107.211  15.381  24.385  0.00  0.00    -0.271 OA
ATOM     79  H45 3TL d   1     108.490  17.271  22.222  0.00  0.00     0.163 HD
BRANCH  77  80
ATOM     80  CA  3TL d   1     109.486  15.290  23.733  0.00  0.00     0.088 C 
ATOM     81  H41 3TL d   1     109.994  15.808  22.906  0.00  0.00     0.087 H 
BRANCH  80  82
ATOM     82  N   3TL d   1     109.430  13.834  23.308  0.00  0.00    -0.324 N 
ATOM     83  C   3TL d   1     110.078  13.425  22.227  0.00  0.00     0.361 C 
ATOM     84  O1  3TL d   1     110.843  14.155  21.604  0.00  0.00    -0.238 OA
ATOM     85  H40 3TL d   1     108.901  13.179  23.847  0.00  0.00     0.165 HD
BRANCH  83  86
ATOM     86  O2  3TL d   1     109.791  12.142  21.906  0.00  0.00    -0.299 OA
BRANCH  86  87
ATOM     87  C1' 3TL d   1     110.444  11.625  20.698  0.00  0.00     0.054 C 
ATOM     88  H33 3TL d   1     109.768  10.834  20.340  0.00  0.00     0.082 H 
ATOM     89  H34 3TL d   1     111.377  11.172  21.065  0.00  0.00     0.082 H 
BRANCH  87  90
ATOM     90  C1  3TL d   1     110.859  12.370  19.430  0.00  0.00    -0.034 A 
ATOM     91  C2  3TL d   1     109.968  13.271  18.797  0.00  0.00    -0.075 A 
ATOM     92  C3  3TL d   1     110.393  13.951  17.622  0.00  0.00    -0.082 A 
ATOM     93  H35 3TL d   1     108.977  13.440  19.202  0.00  0.00     0.084 H 
ATOM     94  C4  3TL d   1     111.668  13.705  17.068  0.00  0.00    -0.083 A 
ATOM     95  H36 3TL d   1     109.731  14.666  17.147  0.00  0.00     0.083 H 
ATOM     96  C5  3TL d   1     112.563  12.824  17.725  0.00  0.00    -0.082 A 
ATOM     97  H37 3TL d   1     111.962  14.188  16.143  0.00  0.00     0.083 H 
ATOM     98  C6  3TL d   1     112.143  12.147  18.885  0.00  0.00    -0.075 A 
ATOM     99  H38 3TL d   1     113.564  12.673  17.337  0.00  0.00     0.083 H 
ATOM    100  H39 3TL d   1     112.814  11.445  19.367  0.00  0.00     0.084 H 
ENDBRANCH  87  90
ENDBRANCH  86  87
ENDBRANCH  83  86
ENDBRANCH  80  82
BRANCH  80 101
ATOM    101  CB  3TL d   1     110.472  15.491  24.897  0.00  0.00    -0.049 C 
ATOM    102  H42 3TL d   1     110.491  16.553  25.182  0.00  0.00     0.030 H 
ATOM    103  H43 3TL d   1     111.479  15.178  24.583  0.00  0.00     0.030 H 
ATOM    104  H44 3TL d   1     110.151  14.886  25.758  0.00  0.00     0.030 H 
ENDBRANCH  80 101
ENDBRANCH  77  80
ENDBRANCH  74  76
BRANCH  74 105
ATOM    105  CB  3TL d   1     107.059  19.138  23.464  0.00  0.00    -0.033 C 
ATOM    106  H47 3TL d   1     107.503  19.500  22.525  0.00  0.00     0.042 H 
BRANCH 105 107
ATOM    107  CG1 3TL d   1     105.925  20.079  23.863  0.00  0.00    -0.071 C 
ATOM    108  H48 3TL d   1     106.328  21.090  24.027  0.00  0.00     0.028 H 
ATOM    109  H49 3TL d   1     105.456  19.716  24.790  0.00  0.00     0.028 H 
ATOM    110  H50 3TL d   1     105.174  20.109  23.060  0.00  0.00     0.028 H 
ENDBRANCH 105 107
BRANCH 105 111
ATOM    111  CG2 3TL d   1     108.142  19.137  24.545  0.00  0.00    -0.071 C 
ATOM    112  H51 3TL d   1     108.954  18.457  24.249  0.00  0.00     0.028 H 
ATOM    113  H52 3TL d   1     107.709  18.798  25.498  0.00  0.00     0.028 H 
ATOM    114  H53 3TL d   1     108.541  20.155  24.665  0.00  0.00     0.028 H 
ENDBRANCH 105 111
ENDBRANCH  74 105
ENDBRANCH  71  74
ENDBRANCH  68  70
BRANCH  68 115
ATOM    115  CB  3TL d   1     103.975  14.735  20.878  0.00  0.00    -0.020 C 
ATOM    116  H58 3TL d   1     103.037  14.357  20.446  0.00  0.00     0.043 H 
ATOM    117  H59 3TL d   1     104.223  14.155  21.779  0.00  0.00     0.043 H 
BRANCH 115 118
ATOM    118  CG  3TL d   1     105.069  14.475  19.865  0.00  0.00    -0.056 A 
ATOM    119  CD1 3TL d   1     106.410  14.297  20.246  0.00  0.00    -0.077 A 
ATOM    120  CE1 3TL d   1     107.376  14.010  19.277  0.00  0.00    -0.082 A 
ATOM    121  H60 3TL d   1     106.695  14.382  21.288  0.00  0.00     0.084 H 
ATOM    122  CZ  3TL d   1     107.029  13.903  17.954  0.00  0.00    -0.083 A 
ATOM    123  H62 3TL d   1     108.409  13.871  19.574  0.00  0.00     0.083 H 
ATOM    124  CE2 3TL d   1     105.709  14.086  17.559  0.00  0.00    -0.082 A 
ATOM    125  H64 3TL d   1     107.787  13.675  17.214  0.00  0.00     0.083 H 
ATOM    126  CD2 3TL d   1     104.747  14.378  18.510  0.00  0.00    -0.077 A 
ATOM    127  H63 3TL d   1     105.435  14.001  16.514  0.00  0.00     0.083 H 
ATOM    128  H61 3TL d   1     103.721  14.535  18.196  0.00  0.00     0.084 H 
ENDBRANCH 115 118
ENDBRANCH  68 115
ENDBRANCH  66  68
BRANCH  66 129
ATOM    129  O   3TL d   1     102.232  15.536  23.127  0.00  0.00    -0.391 OA
ATOM    130  H57 3TL d   1     101.362  15.694  23.475  0.00  0.00     0.210 HD
ENDBRANCH  66 129
ENDBRANCH   1  66
TORSDOF 33
