REMARK  4 active torsions:
REMARK  status: ('A' for Active; 'I' for Inactive)
REMARK    1  A    between atoms: C3_4  and  N1_9 
REMARK    2  A    between atoms: N1_9  and  C8_11 
REMARK    3  A    between atoms: C7_10  and  C13_16 
REMARK    4  A    between atoms: C13_16  and  C14_17 
ROOT
ATOM      1  C7  DIF d   1      50.718  34.163   5.112  0.00  0.00    -0.021 A 
ATOM      2  C8  DIF d   1      49.612  33.601   5.949  0.00  0.00     0.039 A 
ATOM      3  C9  DIF d   1      49.503  34.134   7.206  0.00  0.00    -0.057 A 
ATOM      4  C10 DIF d   1      50.401  35.121   7.622  0.00  0.00    -0.081 A 
ATOM      5  C11 DIF d   1      51.442  35.634   6.826  0.00  0.00    -0.082 A 
ATOM      6  C12 DIF d   1      51.596  35.145   5.564  0.00  0.00    -0.074 A 
ATOM      7  H5  DIF d   1      48.723  33.791   7.876  0.00  0.00     0.086 H 
ATOM      8  H6  DIF d   1      50.288  35.518   8.624  0.00  0.00     0.083 H 
ATOM      9  H7  DIF d   1      52.106  36.401   7.208  0.00  0.00     0.083 H 
ATOM     10  H8  DIF d   1      52.388  35.514   4.923  0.00  0.00     0.084 H 
ENDROOT
BRANCH   2  11
ATOM     11  N1  DIF d   1      48.707  32.631   5.577  0.00  0.00    -0.353 N 
ATOM     12  H4  DIF d   1      48.840  32.265   4.623  0.00  0.00     0.166 HD
BRANCH  11  13
ATOM     13  C3  DIF d   1      47.617  32.047   6.288  0.00  0.00     0.076 A 
ATOM     14  C2  DIF d   1      47.261  31.509   7.663  0.00  0.00     0.062 A 
ATOM     15  C1  DIF d   1      46.045  30.976   8.115  0.00  0.00    -0.060 A 
ATOM     16 CL2  DIF d   1      48.439  31.485   8.913  0.00  0.00    -0.082 Cl
ATOM     17  C6  DIF d   1      44.999  30.912   7.272  0.00  0.00    -0.080 A 
ATOM     18  H1  DIF d   1      45.949  30.619   9.134  0.00  0.00     0.086 H 
ATOM     19  C5  DIF d   1      45.204  31.376   5.973  0.00  0.00    -0.060 A 
ATOM     20  H3  DIF d   1      44.040  30.518   7.588  0.00  0.00     0.083 H 
ATOM     21  C4  DIF d   1      46.410  31.920   5.476  0.00  0.00     0.062 A 
ATOM     22  H2  DIF d   1      44.367  31.314   5.286  0.00  0.00     0.086 H 
ATOM     23 CL4  DIF d   1      46.745  32.527   3.849  0.00  0.00    -0.082 Cl
ENDBRANCH  11  13
ENDBRANCH   2  11
BRANCH   1  24
ATOM     24  C13 DIF d   1      50.914  33.847   3.724  0.00  0.00     0.042 C 
ATOM     25  H9  DIF d   1      50.301  34.600   3.207  0.00  0.00     0.056 H 
ATOM     26  H10 DIF d   1      50.442  32.858   3.623  0.00  0.00     0.056 H 
BRANCH  24  27
ATOM     27  C14 DIF d   1      52.073  33.741   2.889  0.00  0.00     0.177 C 
ATOM     28  O1  DIF d   1      52.705  34.816   2.779  0.00  0.00    -0.648 OA
ATOM     29  O2  DIF d   1      52.253  32.598   2.400  0.00  0.00    -0.648 OA
ENDBRANCH  24  27
ENDBRANCH   1  24
TORSDOF 4
