REMARK  11 active torsions:
REMARK  status: ('A' for Active; 'I' for Inactive)
REMARK    1  A    between atoms: C1_1  and  C3_3 
REMARK    2  A    between atoms: C12_12  and  N16_16 
REMARK    3  A    between atoms: C13_13  and  C17_17 
REMARK    4  A    between atoms: C14_14  and  N18_18 
REMARK       I    between atoms: N16_16  and  C19_19 
REMARK    5  A    between atoms: N18_18  and  C21_21 
REMARK    6  A    between atoms: C19_19  and  C22_22 
REMARK    7  A    between atoms: C22_22  and  C26_26 
REMARK    8  A    between atoms: C26_26  and  C30_30 
REMARK    9  A    between atoms: C30_30  and  N32_32 
REMARK   10  A    between atoms: N32_32  and  C33_33 
REMARK   11  A    between atoms: N32_32  and  C34_34 
ROOT
ATOM      1  C3  AIZ d   1      46.830   5.689  31.486  0.00  0.00    -0.002 A 
ATOM      2  C7  AIZ d   1      46.966   4.385  31.929  0.00  0.00    -0.045 A 
ATOM      3  C8  AIZ d   1      47.721   6.226  30.569  0.00  0.00    -0.054 A 
ATOM      4  C12 AIZ d   1      47.979   3.570  31.459  0.00  0.00     0.036 A 
ATOM      5  C13 AIZ d   1      48.757   5.423  30.086  0.00  0.00     0.043 A 
ATOM      6  C15 AIZ d   1      48.874   4.093  30.523  0.00  0.00    -0.041 A 
ATOM      7  H2  AIZ d   1      46.265   3.995  32.658  0.00  0.00     0.088 H 
ATOM      8  H3  AIZ d   1      47.615   7.251  30.233  0.00  0.00     0.086 H 
ATOM      9  H7  AIZ d   1      49.667   3.467  30.130  0.00  0.00     0.088 H 
ENDROOT
BRANCH   1  10
ATOM     10  C1  AIZ d   1      45.722   6.484  32.066  0.00  0.00     0.099 A 
ATOM     11  C2  AIZ d   1      45.646   7.932  32.273  0.00  0.00     0.024 A 
ATOM     12  C5  AIZ d   1      44.393   8.145  32.887  0.00  0.00     0.065 A 
ATOM     13  C6  AIZ d   1      46.462   9.051  31.989  0.00  0.00    -0.066 A 
ATOM     14  N9  AIZ d   1      43.789   6.933  33.053  0.00  0.00    -0.277 N 
ATOM     15  C10 AIZ d   1      44.000   9.439  33.204  0.00  0.00    -0.029 A 
ATOM     16  N4  AIZ d   1      44.628   5.948  32.560  0.00  0.00    -0.173 NA
ATOM     17  H4  AIZ d   1      42.862   6.777  33.475  0.00  0.00     0.189 HD
ATOM     18  C14 AIZ d   1      44.799  10.527  32.930  0.00  0.00     0.034 A 
ATOM     19  H5  AIZ d   1      43.039   9.597  33.680  0.00  0.00     0.090 H 
ATOM     20  C11 AIZ d   1      46.047  10.324  32.321  0.00  0.00    -0.056 A 
ATOM     21  H6  AIZ d   1      46.688  11.172  32.110  0.00  0.00     0.086 H 
ATOM     22  H1  AIZ d   1      47.422   8.908  31.506  0.00  0.00     0.085 H 
BRANCH  18  23
ATOM     23  N18 AIZ d   1      44.398  11.810  33.299  0.00  0.00    -0.355 N 
ATOM     24  H9  AIZ d   1      44.678  12.611  32.715  0.00  0.00     0.166 HD
BRANCH  23  25
ATOM     25  C21 AIZ d   1      43.626  12.037  34.441  0.00  0.00     0.054 A 
ATOM     26  C24 AIZ d   1      42.714  13.076  34.397  0.00  0.00     0.060 A 
ATOM     27  C27 AIZ d   1      41.894  13.342  35.487  0.00  0.00    -0.060 A 
ATOM     28 CL28 AIZ d   1      42.615  14.058  32.977  0.00  0.00    -0.082 Cl
ATOM     29  C31 AIZ d   1      41.976  12.538  36.621  0.00  0.00    -0.081 A 
ATOM     30  H15 AIZ d   1      41.195  14.170  35.455  0.00  0.00     0.086 H 
ATOM     31  C29 AIZ d   1      42.907  11.494  36.673  0.00  0.00    -0.081 A 
ATOM     32  H19 AIZ d   1      41.319  12.721  37.464  0.00  0.00     0.083 H 
ATOM     33  C25 AIZ d   1      43.728  11.229  35.592  0.00  0.00    -0.056 A 
ATOM     34  H16 AIZ d   1      42.985  10.888  37.568  0.00  0.00     0.083 H 
ATOM     35  H12 AIZ d   1      44.440  10.412  35.629  0.00  0.00     0.087 H 
ENDBRANCH  23  25
ENDBRANCH  18  23
ENDBRANCH   1  10
BRANCH   4  36
ATOM     36  N16 AIZ d   1      47.996   2.247  31.970  0.00  0.00    -0.327 N 
ATOM     37  C19 AIZ d   1      49.082   1.440  32.131  0.00  0.00     0.222 C 
ATOM     38  O23 AIZ d   1      50.189   1.847  31.812  0.00  0.00    -0.273 OA
ATOM     39  H8  AIZ d   1      47.113   1.864  32.242  0.00  0.00     0.169 HD
BRANCH  37  40
ATOM     40  C22 AIZ d   1      48.888   0.044  32.707  0.00  0.00     0.011 C 
ATOM     41  H10 AIZ d   1      47.891  -0.318  32.414  0.00  0.00     0.047 H 
ATOM     42  H11 AIZ d   1      48.947   0.109  33.803  0.00  0.00     0.047 H 
BRANCH  40  43
ATOM     43  C26 AIZ d   1      49.938  -0.974  32.221  0.00  0.00    -0.035 C 
ATOM     44  H13 AIZ d   1      50.920  -0.481  32.179  0.00  0.00     0.036 H 
ATOM     45  H14 AIZ d   1      49.659  -1.322  31.215  0.00  0.00     0.036 H 
BRANCH  43  46
ATOM     46  C30 AIZ d   1      50.029  -2.198  33.169  0.00  0.00     0.083 C 
ATOM     47  H17 AIZ d   1      49.176  -2.861  32.964  0.00  0.00     0.075 H 
ATOM     48  H18 AIZ d   1      49.973  -1.839  34.207  0.00  0.00     0.075 H 
BRANCH  46  49
ATOM     49  N32 AIZ d   1      51.286  -2.983  33.008  0.00  0.00    -0.079 N 
ATOM     50  H20 AIZ d   1      52.001  -2.433  32.559  0.00  0.00     0.278 HD
BRANCH  49  51
ATOM     51  C33 AIZ d   1      51.712  -3.441  34.345  0.00  0.00     0.066 C 
ATOM     52  H21 AIZ d   1      52.640  -4.024  34.254  0.00  0.00     0.068 H 
ATOM     53  H22 AIZ d   1      50.925  -4.071  34.785  0.00  0.00     0.068 H 
ATOM     54  H23 AIZ d   1      51.889  -2.569  34.992  0.00  0.00     0.068 H 
ENDBRANCH  49  51
BRANCH  49  55
ATOM     55  C34 AIZ d   1      50.981  -4.209  32.237  0.00  0.00     0.066 C 
ATOM     56  H24 AIZ d   1      50.655  -3.933  31.223  0.00  0.00     0.068 H 
ATOM     57  H25 AIZ d   1      50.179  -4.769  32.740  0.00  0.00     0.068 H 
ATOM     58  H26 AIZ d   1      51.882  -4.837  32.174  0.00  0.00     0.068 H 
ENDBRANCH  49  55
ENDBRANCH  46  49
ENDBRANCH  43  46
ENDBRANCH  40  43
ENDBRANCH  37  40
ENDBRANCH   4  36
BRANCH   5  59
ATOM     59  C17 AIZ d   1      49.697   6.020  29.112  0.00  0.00     0.209 C 
ATOM     60  O20 AIZ d   1      49.494   7.148  28.707  0.00  0.00    -0.644 OA
ATOM     61  O35 AIZ d   1      50.779   5.330  28.663  0.00  0.00    -0.644 OA
ENDBRANCH   5  59
TORSDOF 11
