REMARK  12 active torsions:
REMARK  status: ('A' for Active; 'I' for Inactive)
REMARK    1  A    between atoms: C1_1  and  O1_7 
REMARK    2  A    between atoms: C2_2  and  O2_8 
REMARK    3  A    between atoms: C3_3  and  O3_9 
REMARK    4  A    between atoms: C4_4  and  O4_10 
REMARK    5  A    between atoms: C5_5  and  C6_6 
REMARK    6  A    between atoms: C6_6  and  O6_12 
REMARK    7  A    between atoms: O1_7  and  C1P_13 
REMARK    8  A    between atoms: C2P_14  and  O2P_19 
REMARK    9  A    between atoms: C3P_15  and  O3P_20 
REMARK   10  A    between atoms: C4P_16  and  O4P_21 
REMARK   11  A    between atoms: C5P_17  and  C6P_18 
REMARK   12  A    between atoms: C6P_18  and  O6P_23 
ROOT
ATOM      1  O1  NON d   1      45.359   0.160  95.873  0.00  0.00    -0.326 OA
ENDROOT
BRANCH   1   2
ATOM      2  C1  NON d   1      45.721   1.439  95.441  0.00  0.00     0.162 C 
ATOM      3  C2  NON d   1      44.805   1.723  94.220  0.00  0.00     0.110 C 
ATOM      4  C3  NON d   1      45.141   0.656  93.135  0.00  0.00     0.092 C 
ATOM      5  H2  NON d   1      44.977   2.736  93.827  0.00  0.00     0.094 H 
ATOM      6  C4  NON d   1      46.621   0.897  92.743  0.00  0.00     0.090 C 
ATOM      7  H3  NON d   1      44.996  -0.363  93.523  0.00  0.00     0.091 H 
ATOM      8  C5  NON d   1      47.547   0.671  93.989  0.00  0.00     0.089 C 
ATOM      9  H4  NON d   1      46.730   1.925  92.368  0.00  0.00     0.091 H 
ATOM     10  O5  NON d   1      47.167   1.539  95.076  0.00  0.00    -0.348 OA
ATOM     11  H5  NON d   1      47.414  -0.374  94.304  0.00  0.00     0.090 H 
ATOM     12  H1  NON d   1      45.516   2.168  96.238  0.00  0.00     0.133 H 
BRANCH   3  13
ATOM     13  O2  NON d   1      43.483   1.588  94.642  0.00  0.00    -0.388 OA
ATOM     14  H8  NON d   1      42.901   1.707  93.900  0.00  0.00     0.210 HD
ENDBRANCH   3  13
BRANCH   4  15
ATOM     15  O3  NON d   1      44.332   0.873  92.023  0.00  0.00    -0.390 OA
ATOM     16  H9  NON d   1      44.581   0.273  91.330  0.00  0.00     0.210 HD
ENDBRANCH   4  15
BRANCH   6  17
ATOM     17  O4  NON d   1      47.054  -0.001  91.786  0.00  0.00    -0.390 OA
ATOM     18  H10 NON d   1      47.964   0.175  91.577  0.00  0.00     0.210 HD
ENDBRANCH   6  17
BRANCH   8  19
ATOM     19  C6  NON d   1      49.015   0.902  93.760  0.00  0.00     0.043 C 
ATOM     20  H6  NON d   1      49.427   0.093  93.138  0.00  0.00     0.078 H 
ATOM     21  H7  NON d   1      49.543   0.929  94.725  0.00  0.00     0.078 H 
BRANCH  19  22
ATOM     22  O6  NON d   1      49.167   2.153  93.090  0.00  0.00    -0.398 OA
ATOM     23  H11 NON d   1      48.706   2.124  92.260  0.00  0.00     0.209 HD
ENDBRANCH  19  22
ENDBRANCH   8  19
ENDBRANCH   1   2
BRANCH   1  24
ATOM     24  C1P NON d   1      45.982  -0.487  96.984  0.00  0.00     0.162 C 
ATOM     25  C2P NON d   1      45.932  -1.838  97.702  0.00  0.00     0.110 C 
ATOM     26  C3P NON d   1      44.477  -1.943  98.343  0.00  0.00     0.092 C 
ATOM     27  H13 NON d   1      46.721  -1.935  98.462  0.00  0.00     0.094 H 
ATOM     28  C4P NON d   1      44.425  -0.841  99.420  0.00  0.00     0.090 C 
ATOM     29  H14 NON d   1      43.693  -1.812  97.583  0.00  0.00     0.091 H 
ATOM     30  C5P NON d   1      44.589   0.573  98.723  0.00  0.00     0.089 C 
ATOM     31  H15 NON d   1      45.233  -1.001 100.149  0.00  0.00     0.091 H 
ATOM     32  O5P NON d   1      45.856   0.568  98.021  0.00  0.00    -0.348 OA
ATOM     33  H16 NON d   1      43.766   0.730  98.010  0.00  0.00     0.090 H 
ATOM     34  H12 NON d   1      47.031  -0.495  96.653  0.00  0.00     0.133 H 
BRANCH  25  35
ATOM     35  O2P NON d   1      46.047  -2.796  96.724  0.00  0.00    -0.388 OA
ATOM     36  H19 NON d   1      46.911  -2.745  96.332  0.00  0.00     0.210 HD
ENDBRANCH  25  35
BRANCH  26  37
ATOM     37  O3P NON d   1      44.339  -3.160  98.998  0.00  0.00    -0.390 OA
ATOM     38  H20 NON d   1      43.508  -3.179  99.457  0.00  0.00     0.210 HD
ENDBRANCH  26  37
BRANCH  28  39
ATOM     39  O4P NON d   1      43.174  -0.842 100.082  0.00  0.00    -0.390 OA
ATOM     40  H21 NON d   1      43.045  -1.679 100.512  0.00  0.00     0.210 HD
ENDBRANCH  28  39
BRANCH  30  41
ATOM     41  C6P NON d   1      44.585   1.696  99.744  0.00  0.00     0.043 C 
ATOM     42  H17 NON d   1      43.694   1.615 100.384  0.00  0.00     0.078 H 
ATOM     43  H18 NON d   1      44.580   2.668  99.229  0.00  0.00     0.078 H 
BRANCH  41  44
ATOM     44  O6P NON d   1      45.753   1.577 100.531  0.00  0.00    -0.398 OA
ATOM     45  H22 NON d   1      46.518   1.644  99.972  0.00  0.00     0.209 HD
ENDBRANCH  41  44
ENDBRANCH  30  41
ENDBRANCH   1  24
TORSDOF 12
