REMARK  12 active torsions:
REMARK  status: ('A' for Active; 'I' for Inactive)
REMARK    1  A    between atoms: O4'_21  and  C1_1 
REMARK    2  A    between atoms: C2_2  and  O2_7 
REMARK    3  A    between atoms: C3_3  and  O3_8 
REMARK    4  A    between atoms: C4_4  and  O4_9 
REMARK    5  A    between atoms: C5_5  and  C6_6 
REMARK    6  A    between atoms: C6_6  and  O6_11 
REMARK    7  A    between atoms: C1'_12  and  O1'_18 
REMARK    8  A    between atoms: C2'_13  and  O2'_19 
REMARK    9  A    between atoms: C3'_14  and  O3'_20 
REMARK   10  A    between atoms: C4'_15  and  O4'_21 
REMARK   11  A    between atoms: C5'_16  and  C6'_17 
REMARK   12  A    between atoms: C6'_17  and  O6'_23 
ROOT
ATOM      1  O4' NON d   1      45.448   2.445  96.498  0.00  0.00    -0.348 OA
ENDROOT
BRANCH   1   2
ATOM      2  C1  NON d   1      45.729   1.549  95.455  0.00  0.00     0.159 C 
ATOM      3  C2  NON d   1      44.806   1.809  94.228  0.00  0.00     0.110 C 
ATOM      4  C3  NON d   1      45.174   0.774  93.149  0.00  0.00     0.092 C 
ATOM      5  H2  NON d   1      44.966   2.828  93.845  0.00  0.00     0.094 H 
ATOM      6  C4  NON d   1      46.639   0.974  92.777  0.00  0.00     0.090 C 
ATOM      7  H3  NON d   1      45.023  -0.244  93.537  0.00  0.00     0.091 H 
ATOM      8  C5  NON d   1      47.529   0.780  94.021  0.00  0.00     0.089 C 
ATOM      9  H4  NON d   1      46.776   1.992  92.383  0.00  0.00     0.091 H 
ATOM     10  O5  NON d   1      47.138   1.699  95.083  0.00  0.00    -0.348 OA
ATOM     11  H5  NON d   1      47.395  -0.253  94.375  0.00  0.00     0.090 H 
ATOM     12  H1  NON d   1      45.558   0.522  95.810  0.00  0.00     0.133 H 
BRANCH   3  13
ATOM     13  O2  NON d   1      43.436   1.648  94.605  0.00  0.00    -0.388 OA
ATOM     14  H8  NON d   1      42.882   1.776  93.844  0.00  0.00     0.210 HD
ENDBRANCH   3  13
BRANCH   4  15
ATOM     15  O3  NON d   1      44.347   0.978  92.003  0.00  0.00    -0.390 OA
ATOM     16  H9  NON d   1      44.586   0.355  91.326  0.00  0.00     0.210 HD
ENDBRANCH   4  15
BRANCH   6  17
ATOM     17  O4  NON d   1      47.023   0.031  91.792  0.00  0.00    -0.390 OA
ATOM     18  H10 NON d   1      47.934   0.168  91.562  0.00  0.00     0.210 HD
ENDBRANCH   6  17
BRANCH   8  19
ATOM     19  C6  NON d   1      49.007   1.006  93.736  0.00  0.00     0.043 C 
ATOM     20  H6  NON d   1      49.372   0.198  93.085  0.00  0.00     0.078 H 
ATOM     21  H7  NON d   1      49.560   0.989  94.687  0.00  0.00     0.078 H 
BRANCH  19  22
ATOM     22  O6  NON d   1      49.238   2.259  93.090  0.00  0.00    -0.398 OA
ATOM     23  H11 NON d   1      48.768   2.280  92.265  0.00  0.00     0.209 HD
ENDBRANCH  19  22
ENDBRANCH   8  19
ENDBRANCH   1   2
BRANCH   1  24
ATOM     24  C4' NON d   1      45.085   1.505  97.572  0.00  0.00     0.096 C 
ATOM     25  C3' NON d   1      43.727   0.880  97.936  0.00  0.00     0.092 C 
ATOM     26  C2' NON d   1      43.378   1.062  99.430  0.00  0.00     0.110 C 
ATOM     27  H14 NON d   1      43.775  -0.199  97.726  0.00  0.00     0.091 H 
ATOM     28  C1' NON d   1      44.526   0.618 100.388  0.00  0.00     0.156 C 
ATOM     29  H13 NON d   1      43.167   2.126  99.613  0.00  0.00     0.094 H 
ATOM     30  O5' NON d   1      45.819   1.096  99.927  0.00  0.00    -0.349 OA
ATOM     31  H12 NON d   1      44.328   0.971 101.411  0.00  0.00     0.133 H 
ATOM     32  C5' NON d   1      46.161   0.865  98.516  0.00  0.00     0.089 C 
ATOM     33  H16 NON d   1      46.143  -0.218  98.324  0.00  0.00     0.090 H 
ATOM     34  H15 NON d   1      44.909   2.363  98.238  0.00  0.00     0.091 H 
BRANCH  25  35
ATOM     35  O3' NON d   1      42.717   1.460  97.118  0.00  0.00    -0.390 OA
ATOM     36  H21 NON d   1      42.914   1.290  96.204  0.00  0.00     0.210 HD
ENDBRANCH  25  35
BRANCH  26  37
ATOM     37  O2' NON d   1      42.212   0.296  99.707  0.00  0.00    -0.388 OA
ATOM     38  H20 NON d   1      42.384  -0.619  99.519  0.00  0.00     0.210 HD
ENDBRANCH  26  37
BRANCH  28  39
ATOM     39  O1' NON d   1      44.583  -0.745 100.334  0.00  0.00    -0.369 OA
ATOM     40  H19 NON d   1      43.755  -1.107 100.628  0.00  0.00     0.212 HD
ENDBRANCH  28  39
BRANCH  32  41
ATOM     41  C6' NON d   1      47.598   1.336  98.333  0.00  0.00     0.043 C 
ATOM     42  H17 NON d   1      47.912   1.120  97.301  0.00  0.00     0.078 H 
ATOM     43  H18 NON d   1      48.242   0.786  99.035  0.00  0.00     0.078 H 
BRANCH  41  44
ATOM     44  O6' NON d   1      47.747   2.737  98.575  0.00  0.00    -0.398 OA
ATOM     45  H22 NON d   1      48.656   2.984  98.450  0.00  0.00     0.209 HD
ENDBRANCH  41  44
ENDBRANCH  32  41
ENDBRANCH   1  24
TORSDOF 12
