REMARK  5 active torsions:
REMARK  status: ('A' for Active; 'I' for Inactive)
REMARK    1  A    between atoms: CAO_3  and  CAR_4 
REMARK    2  A    between atoms: CAL_7  and  CAT_8 
REMARK    3  A    between atoms: CAT_8  and  OAU_9 
REMARK    4  A    between atoms: CAI_12  and  CAD_13 
REMARK    5  A    between atoms: CAA_16  and  OAG_17 
ROOT
ATOM      1  CAK 458 d   1       2.115   4.023  -4.271  0.00  0.00    -0.044 C 
ATOM      2  CAJ 458 d   1       3.508   3.661  -4.811  0.00  0.00    -0.003 C 
ATOM      3  CAO 458 d   1       3.248   2.688  -5.927  0.00  0.00    -0.081 C 
ATOM      4  CAQ 458 d   1       2.202   3.003  -6.784  0.00  0.00    -0.100 C 
ATOM      5  CAP 458 d   1       1.376   4.124  -6.695  0.00  0.00    -0.039 C 
ATOM      6  CAL 458 d   1       1.458   4.886  -5.352  0.00  0.00     0.006 C 
ATOM      7  CAM 458 d   1       2.330   6.111  -5.531  0.00  0.00     0.030 C 
ATOM      8  OAH 458 d   1       3.474   5.664  -6.277  0.00  0.00    -0.380 OA
ATOM      9  CAI 458 d   1       4.268   4.879  -5.415  0.00  0.00     0.071 C 
ATOM     10  H1  458 d   1       2.204   4.588  -3.332  0.00  0.00     0.035 H 
ATOM     11  H2  458 d   1       1.524   3.112  -4.096  0.00  0.00     0.035 H 
ATOM     12  H3  458 d   1       4.116   3.204  -4.016  0.00  0.00     0.051 H 
ATOM     13  H7  458 d   1       2.008   2.311  -7.602  0.00  0.00     0.077 H 
ATOM     14  H8  458 d   1       0.336   3.795  -6.839  0.00  0.00     0.040 H 
ATOM     15  H9  458 d   1       1.655   4.819  -7.500  0.00  0.00     0.040 H 
ATOM     16  H13 458 d   1       2.640   6.508  -4.553  0.00  0.00     0.075 H 
ATOM     17  H14 458 d   1       1.789   6.890  -6.088  0.00  0.00     0.075 H 
ATOM     18  H15 458 d   1       4.556   5.519  -4.568  0.00  0.00     0.092 H 
ENDROOT
BRANCH   9  19
ATOM     19  CAD 458 d   1       5.589   4.458  -6.150  0.00  0.00    -0.029 A 
ATOM     20  CAC 458 d   1       5.622   4.276  -7.551  0.00  0.00    -0.072 A 
ATOM     21  CAB 458 d   1       6.836   3.903  -8.169  0.00  0.00    -0.050 A 
ATOM     22  H16 458 d   1       4.726   4.421  -8.144  0.00  0.00     0.084 H 
ATOM     23  CAA 458 d   1       7.989   3.743  -7.378  0.00  0.00     0.065 A 
ATOM     24  H17 458 d   1       6.879   3.742  -9.240  0.00  0.00     0.087 H 
ATOM     25  CAF 458 d   1       7.965   3.943  -5.981  0.00  0.00    -0.050 A 
ATOM     26  CAE 458 d   1       6.749   4.302  -5.368  0.00  0.00    -0.072 A 
ATOM     27  H19 458 d   1       8.866   3.822  -5.391  0.00  0.00     0.087 H 
ATOM     28  H20 458 d   1       6.706   4.458  -4.296  0.00  0.00     0.084 H 
BRANCH  23  29
ATOM     29  OAG 458 d   1       9.153   3.399  -7.979  0.00  0.00    -0.361 OA
ATOM     30  H18 458 d   1       9.046   2.564  -8.419  0.00  0.00     0.217 HD
ENDBRANCH  23  29
ENDBRANCH   9  19
BRANCH   3  31
ATOM     31  CAR 458 d   1       4.096   1.427  -6.108  0.00  0.00    -0.054 C 
ATOM     32  H4  458 d   1       3.734   0.864  -6.981  0.00  0.00     0.033 H 
ATOM     33  H5  458 d   1       4.017   0.800  -5.208  0.00  0.00     0.033 H 
ATOM     34  H6  458 d   1       5.147   1.711  -6.266  0.00  0.00     0.033 H 
ENDBRANCH   3  31
BRANCH   6  35
ATOM     35  CAT 458 d   1       0.049   5.332  -4.936  0.00  0.00     0.026 C 
ATOM     36  H10 458 d   1      -0.292   6.143  -5.596  0.00  0.00     0.075 H 
ATOM     37  H11 458 d   1       0.066   5.688  -3.895  0.00  0.00     0.075 H 
BRANCH  35  38
ATOM     38  OAU 458 d   1      -0.840   4.212  -5.049  0.00  0.00    -0.400 OA
ATOM     39  H12 458 d   1      -1.716   4.477  -4.794  0.00  0.00     0.209 HD
ENDBRANCH  35  38
ENDBRANCH   6  35
TORSDOF 5
