REMARK  4 active torsions:
REMARK  status: ('A' for Active; 'I' for Inactive)
REMARK    1  A    between atoms: CAR_1  and  CAB_2 
REMARK    2  A    between atoms: CAO_9  and  OAT_10 
REMARK    3  A    between atoms: CAA_19  and  CAS_20 
REMARK    4  A    between atoms: CAA_19  and  OAU_21 
ROOT
ATOM      1  CAB 17M d   1       1.942   3.738  -5.820  0.00  0.00    -0.005 C 
ATOM      2  CAP 17M d   1       2.117   3.936  -7.330  0.00  0.00    -0.051 C 
ATOM      3  CAJ 17M d   1       3.550   3.574  -7.802  0.00  0.00    -0.039 C 
ATOM      4  CAF 17M d   1       4.675   3.907  -6.796  0.00  0.00    -0.040 A 
ATOM      5  CAG 17M d   1       6.017   3.749  -7.175  0.00  0.00    -0.019 A 
ATOM      6  CAK 17M d   1       6.301   3.290  -8.455  0.00  0.00    -0.069 A 
ATOM      7  CAN 17M d   1       7.619   3.120  -8.872  0.00  0.00    -0.050 A 
ATOM      8  CAO 17M d   1       8.667   3.403  -8.004  0.00  0.00     0.066 A 
ATOM      9  CAL 17M d   1       8.390   3.864  -6.713  0.00  0.00    -0.040 A 
ATOM     10  CAH 17M d   1       7.066   4.038  -6.304  0.00  0.00    -0.023 A 
ATOM     11  CAM 17M d   1       6.779   4.496  -5.025  0.00  0.00    -0.072 A 
ATOM     12  CAI 17M d   1       5.453   4.661  -4.628  0.00  0.00    -0.075 A 
ATOM     13  CAE 17M d   1       4.414   4.351  -5.500  0.00  0.00    -0.046 A 
ATOM     14  CAD 17M d   1       2.943   4.598  -5.088  0.00  0.00    -0.018 C 
ATOM     15  CAQ 17M d   1       2.558   4.435  -3.620  0.00  0.00    -0.054 C 
ATOM     16  CAC 17M d   1       1.009   4.514  -3.726  0.00  0.00    -0.035 C 
ATOM     17  CAA 17M d   1       0.668   4.384  -5.236  0.00  0.00     0.062 C 
ATOM     18  H4  17M d   1       1.918   4.990  -7.575  0.00  0.00     0.034 H 
ATOM     19  H5  17M d   1       1.397   3.294  -7.858  0.00  0.00     0.034 H 
ATOM     20  H6  17M d   1       3.751   4.124  -8.733  0.00  0.00     0.040 H 
ATOM     21  H7  17M d   1       3.580   2.493  -8.001  0.00  0.00     0.040 H 
ATOM     22  H8  17M d   1       5.489   3.062  -9.136  0.00  0.00     0.085 H 
ATOM     23  H9  17M d   1       7.828   2.766  -9.875  0.00  0.00     0.087 H 
ATOM     24  H11 17M d   1       9.202   4.086  -6.030  0.00  0.00     0.089 H 
ATOM     25  H12 17M d   1       7.585   4.725  -4.337  0.00  0.00     0.084 H 
ATOM     26  H13 17M d   1       5.230   5.033  -3.635  0.00  0.00     0.084 H 
ATOM     27  H14 17M d   1       2.746   5.646  -5.356  0.00  0.00     0.048 H 
ATOM     28  H15 17M d   1       2.965   5.247  -3.000  0.00  0.00     0.034 H 
ATOM     29  H16 17M d   1       2.889   3.466  -3.218  0.00  0.00     0.034 H 
ATOM     30  H17 17M d   1       0.649   5.478  -3.336  0.00  0.00     0.037 H 
ATOM     31  H18 17M d   1       0.546   3.693  -3.159  0.00  0.00     0.037 H 
ENDROOT
BRANCH  17  32
ATOM     32  CAS 17M d   1      -0.563   3.535  -5.463  0.00  0.00    -0.047 C 
ATOM     33  H19 17M d   1      -0.769   3.469  -6.542  0.00  0.00     0.031 H 
ATOM     34  H20 17M d   1      -1.423   3.993  -4.953  0.00  0.00     0.031 H 
ATOM     35  H21 17M d   1      -0.392   2.526  -5.060  0.00  0.00     0.031 H 
ENDBRANCH  17  32
BRANCH  17  36
ATOM     36  OAU 17M d   1       0.433   5.683  -5.792  0.00  0.00    -0.389 OA
ATOM     37  H22 17M d   1       0.225   5.598  -6.715  0.00  0.00     0.210 HD
ENDBRANCH  17  36
BRANCH   1  38
ATOM     38  CAR 17M d   1       2.056   2.262  -5.418  0.00  0.00    -0.066 C 
ATOM     39  H1  17M d   1       2.973   1.834  -5.850  0.00  0.00     0.028 H 
ATOM     40  H2  17M d   1       1.181   1.711  -5.794  0.00  0.00     0.028 H 
ATOM     41  H3  17M d   1       2.096   2.183  -4.322  0.00  0.00     0.028 H 
ENDBRANCH   1  38
BRANCH   8  42
ATOM     42  OAT 17M d   1       9.951   3.235  -8.421  0.00  0.00    -0.361 OA
ATOM     43  H10 17M d   1      10.088   2.327  -8.663  0.00  0.00     0.217 HD
ENDBRANCH   8  42
TORSDOF 4
