REMARK WARNING: 32 MAX_TORS EXCEEDED!!!
REMARK  33 active torsions:
REMARK  status: ('A' for Active; 'I' for Inactive)
REMARK    1  A    between atoms: CA_2  and  N_1 
REMARK    2  A    between atoms: CA_2  and  CB_5 
REMARK    3  A    between atoms: C_3  and  CA_2 
REMARK       I    between atoms: N_6  and  C_3 
REMARK    4  A    between atoms: CA_7  and  N_6 
REMARK    5  A    between atoms: CA_7  and  CB_10 
REMARK    6  A    between atoms: C_8  and  CA_7 
REMARK       I    between atoms: N_17  and  C_8 
REMARK    7  A    between atoms: CB_10  and  CG_11 
REMARK    8  A    between atoms: CG_11  and  CD_12 
REMARK    9  A    between atoms: CD_12  and  NE_13 
REMARK       I    between atoms: NE_13  and  CZ_14 
REMARK       I    between atoms: CZ_14  and  NH1_15 
REMARK   10  A    between atoms: CA_18  and  N_17 
REMARK   11  A    between atoms: CA_18  and  CB_21 
REMARK   12  A    between atoms: C_19  and  CA_18 
REMARK       I    between atoms: N_24  and  C_19 
REMARK   13  A    between atoms: CB_21  and  CG2_23 
REMARK   14  A    between atoms: CB_21  and  OG1_22 
REMARK   15  A    between atoms: CA_25  and  N_24 
REMARK   16  A    between atoms: CA_25  and  CB_26 
REMARK   17  A    between atoms: C_32  and  CA_25 
REMARK   18  A    between atoms: CB_26  and  CG_27 
REMARK   19  A    between atoms: CG_27  and  CD_28 
REMARK   20  A    between atoms: CD_28  and  CE_29 
REMARK   21  A    between atoms: CE_29  and  NZ_30 
REMARK   22  A    between atoms: NZ_30  and  CM_31 
REMARK       I    between atoms: C_32  and  N_34 
REMARK   23  A    between atoms: N_34  and  CA_35 
REMARK   24  A    between atoms: CA_35  and  CB_38 
REMARK   25  A    between atoms: CA_35  and  C_36 
REMARK       I    between atoms: C_36  and  N_43 
REMARK   26  A    between atoms: CB_38  and  CG_39 
REMARK   27  A    between atoms: CG_39  and  CD_40 
REMARK       I    between atoms: CD_40  and  NE2_42 
REMARK   28  A    between atoms: N_43  and  CA_44 
REMARK   29  A    between atoms: CA_44  and  CB_47 
REMARK   30  A    between atoms: CA_44  and  C_45 
REMARK   31  A    between atoms: C_45  and  O1_50 
REMARK   32  A    between atoms: CB_47  and  CG2_49 
REMARK   33  A    between atoms: CB_47  and  OG1_48 
ROOT
ATOM      1  CA  MLZ d   1     -27.355  -5.860  -3.431  0.00  0.00     0.089 C 
ATOM      2  H29 MLZ d   1     -27.757  -6.862  -3.642  0.00  0.00     0.087 H 
ENDROOT
BRANCH   1   3
ATOM      3  N   MLZ d   1     -28.167  -4.879  -4.119  0.00  0.00    -0.346 N 
ATOM      4  C   THR d   1     -29.371  -5.196  -4.565  0.00  0.00     0.243 C 
ATOM      5  O   THR d   1     -29.805  -6.344  -4.528  0.00  0.00    -0.271 OA
ATOM      6  H28 MLZ d   1     -27.815  -3.954  -4.258  0.00  0.00     0.163 HD
BRANCH   4   7
ATOM      7  CA  THR d   1     -30.216  -4.065  -5.122  0.00  0.00     0.113 C 
ATOM      8  H22 THR d   1     -29.760  -3.655  -6.035  0.00  0.00     0.091 H 
BRANCH   7   9
ATOM      9  N   THR d   1     -31.518  -4.640  -5.441  0.00  0.00    -0.344 N 
ATOM     10  C   ARG d   1     -31.985  -4.600  -6.700  0.00  0.00     0.241 C 
ATOM     11  O   ARG d   1     -31.507  -3.864  -7.576  0.00  0.00    -0.271 OA
ATOM     12  H21 THR d   1     -32.065  -5.066  -4.720  0.00  0.00     0.163 HD
BRANCH  10  13
ATOM     13  CA  ARG d   1     -33.202  -5.478  -7.002  0.00  0.00     0.089 C 
ATOM     14  H9  ARG d   1     -33.250  -6.250  -6.219  0.00  0.00     0.087 H 
BRANCH  13  15
ATOM     15  N   ARG d   1     -34.482  -4.748  -6.970  0.00  0.00    -0.346 N 
ATOM     16  C   ALA d   1     -34.709  -3.676  -7.711  0.00  0.00     0.248 C 
ATOM     17  O   ALA d   1     -33.885  -3.202  -8.460  0.00  0.00    -0.271 OA
ATOM     18  H8  ARG d   1     -35.207  -5.076  -6.364  0.00  0.00     0.163 HD
BRANCH  16  19
ATOM     19  CA  ALA d   1     -36.057  -3.038  -7.601  0.00  0.00     0.172 C 
ATOM     20  H4  ALA d   1     -36.259  -2.768  -6.554  0.00  0.00     0.098 H 
BRANCH  19  21
ATOM     21  N   ALA d   1     -36.012  -1.812  -8.438  0.00  0.00    -0.067 N 
ATOM     22  H1  ALA d   1     -36.904  -1.344  -8.396  0.00  0.00     0.275 HD
ATOM     23  H2  ALA d   1     -35.809  -2.064  -9.393  0.00  0.00     0.275 HD
ATOM     24  H3  ALA d   1     -35.292  -1.196  -8.093  0.00  0.00     0.275 HD
ENDBRANCH  19  21
BRANCH  19  25
ATOM     25  CB  ALA d   1     -37.150  -3.993  -8.089  0.00  0.00    -0.042 C 
ATOM     26  H5  ALA d   1     -37.163  -4.891  -7.454  0.00  0.00     0.030 H 
ATOM     27  H6  ALA d   1     -36.945  -4.283  -9.130  0.00  0.00     0.030 H 
ATOM     28  H7  ALA d   1     -38.127  -3.491  -8.033  0.00  0.00     0.030 H 
ENDBRANCH  19  25
ENDBRANCH  16  19
ENDBRANCH  13  15
BRANCH  13  29
ATOM     29  CB  ARG d   1     -33.013  -6.186  -8.349  0.00  0.00    -0.036 C 
ATOM     30  H10 ARG d   1     -33.078  -7.271  -8.182  0.00  0.00     0.036 H 
ATOM     31  H11 ARG d   1     -32.015  -5.933  -8.737  0.00  0.00     0.036 H 
BRANCH  29  32
ATOM     32  CG  ARG d   1     -34.042  -5.801  -9.392  0.00  0.00    -0.048 C 
ATOM     33  H12 ARG d   1     -34.447  -4.810  -9.142  0.00  0.00     0.035 H 
ATOM     34  H13 ARG d   1     -34.854  -6.543  -9.380  0.00  0.00     0.035 H 
BRANCH  32  35
ATOM     35  CD  ARG d   1     -33.454  -5.749 -10.771  0.00  0.00     0.009 C 
ATOM     36  H14 ARG d   1     -32.779  -4.882 -10.833  0.00  0.00     0.064 H 
ATOM     37  H15 ARG d   1     -34.271  -5.631 -11.498  0.00  0.00     0.064 H 
BRANCH  35  38
ATOM     38  NE  ARG d   1     -32.696  -6.959 -11.110  0.00  0.00    -0.227 N 
ATOM     39  CZ  ARG d   1     -31.448  -6.975 -11.590  0.00  0.00     0.665 C 
ATOM     40  NH2 ARG d   1     -30.793  -5.842 -11.765  0.00  0.00    -0.235 N 
ATOM     41  NH1 ARG d   1     -30.868  -8.131 -11.870  0.00  0.00    -0.235 N 
ATOM     42  H19 ARG d   1     -31.248  -4.945 -11.546  0.00  0.00     0.174 HD
ATOM     43  H20 ARG d   1     -29.826  -5.856 -12.121  0.00  0.00     0.174 HD
ATOM     44  H17 ARG d   1     -29.907  -8.149 -12.240  0.00  0.00     0.174 HD
ATOM     45  H18 ARG d   1     -31.378  -9.013 -11.718  0.00  0.00     0.174 HD
ATOM     46  H16 ARG d   1     -33.161  -7.867 -10.967  0.00  0.00     0.177 HD
ENDBRANCH  35  38
ENDBRANCH  32  35
ENDBRANCH  29  32
ENDBRANCH  13  29
ENDBRANCH  10  13
ENDBRANCH   7   9
BRANCH   7  47
ATOM     47  CB  THR d   1     -30.294  -2.969  -4.061  0.00  0.00     0.060 C 
ATOM     48  H23 THR d   1     -29.316  -2.471  -3.988  0.00  0.00     0.086 H 
BRANCH  47  49
ATOM     49  CG2 THR d   1     -31.331  -1.957  -4.400  0.00  0.00    -0.050 C 
ATOM     50  H25 THR d   1     -31.360  -1.185  -3.617  0.00  0.00     0.031 H 
ATOM     51  H26 THR d   1     -32.313  -2.447  -4.468  0.00  0.00     0.031 H 
ATOM     52  H27 THR d   1     -31.086  -1.491  -5.366  0.00  0.00     0.031 H 
ENDBRANCH  47  49
BRANCH  47  53
ATOM     53  OG1 THR d   1     -30.626  -3.557  -2.805  0.00  0.00    -0.393 OA
ATOM     54  H24 THR d   1     -29.971  -4.206  -2.577  0.00  0.00     0.210 HD
ENDBRANCH  47  53
ENDBRANCH   7  47
ENDBRANCH   4   7
ENDBRANCH   1   3
BRANCH   1  55
ATOM     55  CB  MLZ d   1     -25.920  -5.818  -3.951  0.00  0.00    -0.038 C 
ATOM     56  H30 MLZ d   1     -25.277  -6.437  -3.308  0.00  0.00     0.036 H 
ATOM     57  H31 MLZ d   1     -25.556  -4.780  -3.943  0.00  0.00     0.036 H 
BRANCH  55  58
ATOM     58  CG  MLZ d   1     -25.887  -6.359  -5.377  0.00  0.00    -0.061 C 
ATOM     59  H32 MLZ d   1     -26.733  -5.923  -5.928  0.00  0.00     0.033 H 
ATOM     60  H33 MLZ d   1     -26.003  -7.452  -5.331  0.00  0.00     0.033 H 
BRANCH  58  61
ATOM     61  CD  MLZ d   1     -24.602  -6.047  -6.152  0.00  0.00    -0.043 C 
ATOM     62  H34 MLZ d   1     -23.752  -6.023  -5.455  0.00  0.00     0.035 H 
ATOM     63  H35 MLZ d   1     -24.701  -5.068  -6.644  0.00  0.00     0.035 H 
BRANCH  61  64
ATOM     64  CE  MLZ d   1     -24.361  -7.128  -7.212  0.00  0.00     0.081 C 
ATOM     65  H36 MLZ d   1     -23.321  -7.052  -7.563  0.00  0.00     0.075 H 
ATOM     66  H37 MLZ d   1     -25.046  -6.954  -8.055  0.00  0.00     0.075 H 
BRANCH  64  67
ATOM     67  NZ  MLZ d   1     -24.585  -8.479  -6.696  0.00  0.00    -0.079 N 
ATOM     68  H38 MLZ d   1     -25.527  -8.494  -6.339  0.00  0.00     0.276 HD
ATOM     69  H39 MLZ d   1     -23.935  -8.604  -5.936  0.00  0.00     0.276 HD
BRANCH  67  70
ATOM     70  CM  MLZ d   1     -24.451  -9.648  -7.544  0.00  0.00     0.065 C 
ATOM     71  H40 MLZ d   1     -24.662 -10.553  -6.956  0.00  0.00     0.067 H 
ATOM     72  H41 MLZ d   1     -23.426  -9.699  -7.939  0.00  0.00     0.067 H 
ATOM     73  H42 MLZ d   1     -25.163  -9.579  -8.379  0.00  0.00     0.067 H 
ENDBRANCH  67  70
ENDBRANCH  64  67
ENDBRANCH  61  64
ENDBRANCH  58  61
ENDBRANCH  55  58
ENDBRANCH   1  55
BRANCH   1  74
ATOM     74  C   MLZ d   1     -27.468  -5.616  -1.953  0.00  0.00     0.241 C 
ATOM     75  O   MLZ d   1     -26.734  -6.187  -1.160  0.00  0.00    -0.271 OA
ATOM     76  N   GLN d   1     -28.420  -4.770  -1.571  0.00  0.00    -0.346 N 
ATOM     77  H43 GLN d   1     -29.061  -4.420  -2.254  0.00  0.00     0.163 HD
BRANCH  76  78
ATOM     78  CA  GLN d   1     -28.558  -4.336  -0.180  0.00  0.00     0.090 C 
ATOM     79  H44 GLN d   1     -27.600  -3.890   0.127  0.00  0.00     0.087 H 
BRANCH  78  80
ATOM     80  CB  GLN d   1     -29.636  -3.241  -0.045  0.00  0.00    -0.030 C 
ATOM     81  H45 GLN d   1     -30.621  -3.717  -0.155  0.00  0.00     0.037 H 
ATOM     82  H46 GLN d   1     -29.488  -2.514  -0.857  0.00  0.00     0.037 H 
BRANCH  80  83
ATOM     83  CG  GLN d   1     -29.623  -2.475   1.287  0.00  0.00     0.011 C 
ATOM     84  H47 GLN d   1     -29.666  -3.207   2.107  0.00  0.00     0.047 H 
ATOM     85  H48 GLN d   1     -30.513  -1.830   1.324  0.00  0.00     0.047 H 
BRANCH  83  86
ATOM     86  CD  GLN d   1     -28.381  -1.595   1.490  0.00  0.00     0.215 C 
ATOM     87  NE2 GLN d   1     -27.578  -1.935   2.506  0.00  0.00    -0.370 N 
ATOM     88  H49 GLN d   1     -26.753  -1.402   2.691  0.00  0.00     0.159 HD
ATOM     89  H50 GLN d   1     -27.804  -2.722   3.080  0.00  0.00     0.159 HD
ATOM     90  OE1 GLN d   1     -28.165  -0.613   0.763  0.00  0.00    -0.274 OA
ENDBRANCH  83  86
ENDBRANCH  80  83
ENDBRANCH  78  80
BRANCH  78  91
ATOM     91  C   GLN d   1     -28.818  -5.540   0.738  0.00  0.00     0.241 C 
ATOM     92  O   GLN d   1     -29.895  -5.711   1.316  0.00  0.00    -0.271 OA
ATOM     93  N   THR d   1     -27.799  -6.387   0.818  0.00  0.00    -0.343 N 
ATOM     94  H51 THR d   1     -27.092  -6.337   0.113  0.00  0.00     0.163 HD
BRANCH  93  95
ATOM     95  CA  THR d   1     -27.645  -7.387   1.871  0.00  0.00     0.117 C 
ATOM     96  H52 THR d   1     -28.299  -8.245   1.658  0.00  0.00     0.093 H 
BRANCH  95  97
ATOM     97  CB  THR d   1     -26.151  -7.860   1.886  0.00  0.00     0.061 C 
ATOM     98  H53 THR d   1     -25.753  -7.765   0.865  0.00  0.00     0.086 H 
BRANCH  97  99
ATOM     99  CG2 THR d   1     -25.305  -6.990   2.817  0.00  0.00    -0.050 C 
ATOM    100  H55 THR d   1     -24.264  -7.346   2.806  0.00  0.00     0.031 H 
ATOM    101  H56 THR d   1     -25.703  -7.053   3.840  0.00  0.00     0.031 H 
ATOM    102  H57 THR d   1     -25.339  -5.945   2.474  0.00  0.00     0.031 H 
ENDBRANCH  97  99
BRANCH  97 103
ATOM    103  OG1 THR d   1     -26.048  -9.227   2.285  0.00  0.00    -0.393 OA
ATOM    104  H54 THR d   1     -26.574  -9.765   1.706  0.00  0.00     0.210 HD
ENDBRANCH  97 103
ENDBRANCH  95  97
BRANCH  95 105
ATOM    105  C   THR d   1     -28.027  -6.790   3.251  0.00  0.00     0.166 C 
ATOM    106  O   THR d   1     -28.440  -7.489   4.189  0.00  0.00    -0.648 OA
BRANCH 105 107
ATOM    107  O1  THR d   1     -27.907  -5.478   3.436  0.00  0.00    -0.775 OA
ATOM    108  H58 THR d   1     -27.583  -5.076   2.639  0.00  0.00     0.167 HD
ENDBRANCH 105 107
ENDBRANCH  95 105
ENDBRANCH  93  95
ENDBRANCH  78  91
ENDBRANCH  76  78
ENDBRANCH   1  74
TORSDOF 33
