REMARK  3 active torsions:
REMARK  status: ('A' for Active; 'I' for Inactive)
REMARK    1  A    between atoms: N_1  and  CE_6 
REMARK    2  A    between atoms: N_1  and  CF_7 
REMARK    3  A    between atoms: CA_3  and  C_8 
ROOT
ATOM      1  N   PBE d   1      27.376   2.232  11.226  0.00  0.00    -0.061 N 
ATOM      2  CD  PBE d   1      27.040   1.911   9.818  0.00  0.00     0.086 C 
ATOM      3  CA  PBE d   1      26.084   2.705  11.784  0.00  0.00     0.187 C 
ATOM      4  CB  PBE d   1      25.081   1.694  11.233  0.00  0.00    -0.027 C 
ATOM      5  CG  PBE d   1      25.541   1.564   9.780  0.00  0.00    -0.040 C 
ATOM      6  H1  PBE d   1      27.635   1.052   9.474  0.00  0.00     0.076 H 
ATOM      7  H2  PBE d   1      27.243   2.779   9.174  0.00  0.00     0.076 H 
ATOM      8  H3  PBE d   1      25.864   3.701  11.373  0.00  0.00     0.102 H 
ATOM      9  H4  PBE d   1      24.051   2.076  11.295  0.00  0.00     0.036 H 
ATOM     10  H5  PBE d   1      25.148   0.732  11.763  0.00  0.00     0.036 H 
ATOM     11  H6  PBE d   1      25.389   0.538   9.414  0.00  0.00     0.035 H 
ATOM     12  H7  PBE d   1      24.995   2.268   9.135  0.00  0.00     0.035 H 
ENDROOT
BRANCH   1  13
ATOM     13  CE  PBE d   1      27.978   1.035  11.840  0.00  0.00     0.069 C 
ATOM     14  H8  PBE d   1      28.925   0.799  11.332  0.00  0.00     0.068 H 
ATOM     15  H9  PBE d   1      27.287   0.185  11.741  0.00  0.00     0.068 H 
ATOM     16  H10 PBE d   1      28.172   1.228  12.905  0.00  0.00     0.068 H 
ENDBRANCH   1  13
BRANCH   1  17
ATOM     17  CF  PBE d   1      28.350   3.339  11.279  0.00  0.00     0.069 C 
ATOM     18  H11 PBE d   1      27.909   4.237  10.823  0.00  0.00     0.068 H 
ATOM     19  H12 PBE d   1      29.258   3.055  10.727  0.00  0.00     0.068 H 
ATOM     20  H13 PBE d   1      28.609   3.550  12.327  0.00  0.00     0.068 H 
ENDBRANCH   1  17
BRANCH   3  21
ATOM     21  C   PBE d   1      26.020   2.829  13.327  0.00  0.00     0.205 C 
ATOM     22  O   PBE d   1      27.003   2.626  14.033  0.00  0.00    -0.646 OA
ATOM     23  OXT PBE d   1      24.976   3.163  13.886  0.00  0.00    -0.646 OA
ENDBRANCH   3  21
TORSDOF 3
