REMARK  6 active torsions:
REMARK  status: ('A' for Active; 'I' for Inactive)
REMARK    1  A    between atoms: N3_3  and  N19_8 
REMARK    2  A    between atoms: N6_6  and  C15_7 
REMARK       I    between atoms: N19_8  and  C20_9 
REMARK       I    between atoms: C20_9  and  N21_10 
REMARK    3  A    between atoms: N21_10  and  C22_11 
REMARK    4  A    between atoms: C36_22  and  C37_23 
REMARK    5  A    between atoms: C39_25  and  C46_29 
REMARK    6  A    between atoms: C41_27  and  C42_28 
ROOT
ATOM      1  C22 D42 d   1      80.079  59.727  14.795  0.00  0.00     0.051 A 
ATOM      2  C23 D42 d   1      79.803  58.500  15.577  0.00  0.00    -0.056 A 
ATOM      3  C24 D42 d   1      80.527  57.271  15.203  0.00  0.00    -0.080 A 
ATOM      4  C25 D42 d   1      81.499  57.274  14.091  0.00  0.00    -0.070 A 
ATOM      5  C26 D42 d   1      81.749  58.508  13.340  0.00  0.00     0.010 A 
ATOM      6  C27 D42 d   1      81.038  59.746  13.675  0.00  0.00     0.054 A 
ATOM      7  C31 D42 d   1      82.544  58.835  12.175  0.00  0.00     0.078 A 
ATOM      8  C32 D42 d   1      82.316  60.216  11.807  0.00  0.00     0.076 A 
ATOM      9  C33 D42 d   1      81.372  60.813  12.742  0.00  0.00     0.200 A 
ATOM     10  N34 D42 d   1      83.400  58.154  11.283  0.00  0.00    -0.276 N 
ATOM     11  N35 D42 d   1      83.704  59.264  10.296  0.00  0.00    -0.172 NA
ATOM     12  C36 D42 d   1      83.055  60.484  10.585  0.00  0.00     0.112 A 
ATOM     13  O50 D42 d   1      80.854  61.931  12.739  0.00  0.00    -0.286 OA
ATOM     14  H16 D42 d   1      79.093  58.505  16.396  0.00  0.00     0.086 H 
ATOM     15  H17 D42 d   1      80.344  56.354  15.751  0.00  0.00     0.083 H 
ATOM     16  H18 D42 d   1      82.027  56.364  13.830  0.00  0.00     0.084 H 
ATOM     17  H19 D42 d   1      83.727  57.177  11.298  0.00  0.00     0.189 HD
ENDROOT
BRANCH   1  18
ATOM     18  N21 D42 d   1      79.494  60.999  15.019  0.00  0.00    -0.307 N 
ATOM     19  C20 D42 d   1      78.665  61.339  16.007  0.00  0.00     0.344 C 
ATOM     20  N19 D42 d   1      78.426  62.635  16.235  0.00  0.00    -0.168 N 
ATOM     21  O47 D42 d   1      78.133  60.471  16.709  0.00  0.00    -0.245 OA
ATOM     22  H14 D42 d   1      78.700  63.009  17.121  0.00  0.00     0.198 HD
ATOM     23  H15 D42 d   1      79.728  61.719  14.366  0.00  0.00     0.170 HD
BRANCH  20  24
ATOM     24  N3  D42 d   1      77.772  63.574  15.249  0.00  0.00     0.015 N 
ATOM     25  C2  D42 d   1      76.304  63.415  15.133  0.00  0.00     0.127 C 
ATOM     26  C1  D42 d   1      75.619  64.732  14.806  0.00  0.00     0.107 C 
ATOM     27  H3  D42 d   1      76.086  62.692  14.333  0.00  0.00     0.082 H 
ATOM     28  H4  D42 d   1      75.910  63.036  16.088  0.00  0.00     0.082 H 
ATOM     29  N6  D42 d   1      76.220  65.362  13.607  0.00  0.00    -0.072 N 
ATOM     30  H1  D42 d   1      75.725  65.415  15.662  0.00  0.00     0.078 H 
ATOM     31  H2  D42 d   1      74.552  64.545  14.617  0.00  0.00     0.078 H 
ATOM     32  C5  D42 d   1      77.706  65.464  13.624  0.00  0.00     0.107 C 
ATOM     33  H10 D42 d   1      76.066  64.676  12.884  0.00  0.00     0.279 HD
ATOM     34  C4  D42 d   1      78.391  64.157  14.039  0.00  0.00     0.127 C 
ATOM     35  H8  D42 d   1      78.050  65.735  12.615  0.00  0.00     0.078 H 
ATOM     36  H9  D42 d   1      77.995  66.252  14.335  0.00  0.00     0.078 H 
ATOM     37  H6  D42 d   1      78.309  63.434  13.214  0.00  0.00     0.082 H 
ATOM     38  H7  D42 d   1      79.452  64.361  14.245  0.00  0.00     0.082 H 
ATOM     39  H5  D42 d   1      77.809  64.402  15.823  0.00  0.00     0.309 HD
BRANCH  29  40
ATOM     40  C15 D42 d   1      75.437  66.504  13.131  0.00  0.00     0.066 C 
ATOM     41  H11 D42 d   1      74.365  66.262  13.185  0.00  0.00     0.068 H 
ATOM     42  H12 D42 d   1      75.711  66.728  12.089  0.00  0.00     0.068 H 
ATOM     43  H13 D42 d   1      75.647  67.381  13.761  0.00  0.00     0.068 H 
ENDBRANCH  29  40
ENDBRANCH  20  24
ENDBRANCH   1  18
BRANCH  12  44
ATOM     44  C37 D42 d   1      83.083  61.580   9.625  0.00  0.00     0.058 A 
ATOM     45  S38 D42 d   1      81.696  62.739   9.452  0.00  0.00    -0.089 SA
ATOM     46  C39 D42 d   1      82.548  63.592   8.086  0.00  0.00     0.139 A 
ATOM     47  N40 D42 d   1      83.810  63.010   7.798  0.00  0.00    -0.268 NA
ATOM     48  C41 D42 d   1      84.107  61.905   8.634  0.00  0.00     0.046 A 
BRANCH  46  49
ATOM     49  C46 D42 d   1      81.975  64.782   7.328  0.00  0.00    -0.039 C 
ATOM     50  H23 D42 d   1      82.690  65.104   6.556  0.00  0.00     0.032 H 
ATOM     51  H24 D42 d   1      81.794  65.611   8.029  0.00  0.00     0.032 H 
ATOM     52  H25 D42 d   1      81.027  64.491   6.851  0.00  0.00     0.032 H 
ENDBRANCH  46  49
BRANCH  48  53
ATOM     53  C42 D42 d   1      85.403  61.188   8.399  0.00  0.00    -0.035 C 
ATOM     54  H20 D42 d   1      85.951  61.680   7.582  0.00  0.00     0.035 H 
ATOM     55  H21 D42 d   1      85.199  60.142   8.127  0.00  0.00     0.035 H 
ATOM     56  H22 D42 d   1      86.010  61.217   9.316  0.00  0.00     0.035 H 
ENDBRANCH  48  53
ENDBRANCH  12  44
TORSDOF 6
