REMARK  8 active torsions:
REMARK  status: ('A' for Active; 'I' for Inactive)
REMARK    1  A    between atoms: C2_2  and  N7_7 
REMARK    2  A    between atoms: C6_6  and  C8_8 
REMARK    3  A    between atoms: C15_15  and  C23_23 
REMARK    4  A    between atoms: C17_17  and  N18_18 
REMARK    5  A    between atoms: N18_18  and  C19_19 
REMARK    6  A    between atoms: C19_19  and  C20_20 
REMARK    7  A    between atoms: C19_19  and  C21_21 
REMARK    8  A    between atoms: C19_19  and  C22_22 
ROOT
ATOM      1  C8  D23 d   1      80.708  65.888  57.590  0.00  0.00    -0.025 A 
ATOM      2  C9  D23 d   1      79.487  66.730  57.559  0.00  0.00    -0.070 A 
ATOM      3  C10 D23 d   1      78.535  66.659  56.476  0.00  0.00    -0.053 A 
ATOM      4  C11 D23 d   1      78.752  65.719  55.374  0.00  0.00     0.073 A 
ATOM      5  C12 D23 d   1      79.961  64.802  55.330  0.00  0.00     0.039 A 
ATOM      6  C13 D23 d   1      80.906  64.923  56.451  0.00  0.00    -0.056 A 
ATOM      7  N14 D23 d   1      77.850  65.632  54.328  0.00  0.00    -0.224 NA
ATOM      8  C15 D23 d   1      77.996  64.777  53.280  0.00  0.00     0.236 A 
ATOM      9  N16 D23 d   1      79.065  63.928  53.160  0.00  0.00    -0.207 NA
ATOM     10  C17 D23 d   1      80.026  63.922  54.148  0.00  0.00     0.139 A 
ATOM     11  H7  D23 d   1      79.304  67.420  58.375  0.00  0.00     0.084 H 
ATOM     12  H8  D23 d   1      77.661  67.300  56.478  0.00  0.00     0.087 H 
ATOM     13  H9  D23 d   1      81.785  64.289  56.457  0.00  0.00     0.086 H 
ENDROOT
BRANCH  10  14
ATOM     14  N18 D23 d   1      80.990  62.906  53.827  0.00  0.00    -0.366 N 
ATOM     15  H10 D23 d   1      81.811  63.013  54.440  0.00  0.00     0.162 HD
BRANCH  14  16
ATOM     16  C19 D23 d   1      81.211  61.753  52.914  0.00  0.00     0.021 C 
BRANCH  16  17
ATOM     17  C20 D23 d   1      80.005  60.770  53.064  0.00  0.00    -0.054 C 
ATOM     18  H11 D23 d   1      80.149  59.908  52.396  0.00  0.00     0.030 H 
ATOM     19  H12 D23 d   1      79.073  61.289  52.797  0.00  0.00     0.030 H 
ATOM     20  H13 D23 d   1      79.944  60.420  54.105  0.00  0.00     0.030 H 
ENDBRANCH  16  17
BRANCH  16  21
ATOM     21  C21 D23 d   1      81.226  62.246  51.451  0.00  0.00    -0.054 C 
ATOM     22  H14 D23 d   1      81.390  61.392  50.778  0.00  0.00     0.030 H 
ATOM     23  H15 D23 d   1      82.037  62.977  51.319  0.00  0.00     0.030 H 
ATOM     24  H16 D23 d   1      80.262  62.720  51.214  0.00  0.00     0.030 H 
ENDBRANCH  16  21
BRANCH  16  25
ATOM     25  C22 D23 d   1      82.569  61.105  53.274  0.00  0.00    -0.054 C 
ATOM     26  H17 D23 d   1      82.754  60.248  52.610  0.00  0.00     0.030 H 
ATOM     27  H18 D23 d   1      82.546  60.761  54.319  0.00  0.00     0.030 H 
ATOM     28  H19 D23 d   1      83.373  61.845  53.150  0.00  0.00     0.030 H 
ENDBRANCH  16  25
ENDBRANCH  14  16
ENDBRANCH  10  14
BRANCH   8  29
ATOM     29  C23 D23 d   1      76.896  64.729  52.272  0.00  0.00     0.453 C 
ATOM     30  F24 D23 d   1      76.680  63.473  51.971  0.00  0.00    -0.163 F 
ATOM     31  F25 D23 d   1      75.805  65.302  52.765  0.00  0.00    -0.163 F 
ATOM     32  F26 D23 d   1      77.341  65.375  51.251  0.00  0.00    -0.163 F 
ENDBRANCH   8  29
BRANCH   1  33
ATOM     33  C6  D23 d   1      81.704  66.115  58.713  0.00  0.00    -0.024 A 
ATOM     34  C1  D23 d   1      82.430  65.013  59.327  0.00  0.00    -0.047 A 
ATOM     35  C2  D23 d   1      83.322  65.276  60.446  0.00  0.00     0.026 A 
ATOM     36  H1  D23 d   1      82.307  64.003  58.953  0.00  0.00     0.088 H 
ATOM     37  C3  D23 d   1      83.537  66.595  61.038  0.00  0.00    -0.058 A 
ATOM     38  C4  D23 d   1      82.855  67.722  60.433  0.00  0.00    -0.080 A 
ATOM     39  H2  D23 d   1      84.183  66.726  61.898  0.00  0.00     0.086 H 
ATOM     40  C5  D23 d   1      81.985  67.452  59.296  0.00  0.00    -0.072 A 
ATOM     41  H3  D23 d   1      82.987  68.729  60.813  0.00  0.00     0.083 H 
ATOM     42  H4  D23 d   1      81.499  68.304  58.834  0.00  0.00     0.084 H 
BRANCH  35  43
ATOM     43  N7  D23 d   1      84.023  64.186  60.937  0.00  0.00    -0.399 N 
ATOM     44  H5  D23 d   1      83.878  63.253  60.526  0.00  0.00     0.156 HD
ATOM     45  H6  D23 d   1      84.689  64.309  61.713  0.00  0.00     0.156 HD
ENDBRANCH  35  43
ENDBRANCH   1  33
TORSDOF 8
