REMARK  7 active torsions:
REMARK  status: ('A' for Active; 'I' for Inactive)
REMARK    1  A    between atoms: C7_2  and  C20_20 
REMARK    2  A    between atoms: N1_7  and  C11_11 
REMARK    3  A    between atoms: C3_9  and  C1_18 
REMARK    4  A    between atoms: C1_18  and  C2_19 
REMARK    5  A    between atoms: C20_20  and  C21_23 
REMARK    6  A    between atoms: C23_25  and  O23_29 
REMARK    7  A    between atoms: C24_26  and  O24_30 
ROOT
ATOM      1  N8  D05 d   1     120.488 -84.937  91.864  0.00  0.00    -0.310 N 
ATOM      2  C7  D05 d   1     119.817 -83.751  91.759  0.00  0.00     0.113 A 
ATOM      3  N6  D05 d   1     119.025 -83.237  92.723  0.00  0.00    -0.214 NA
ATOM      4  C5  D05 d   1     118.910 -83.947  93.872  0.00  0.00     0.171 A 
ATOM      5  C4  D05 d   1     119.595 -85.178  94.053  0.00  0.00     0.106 A 
ATOM      6  C9  D05 d   1     120.391 -85.652  93.022  0.00  0.00     0.263 A 
ATOM      7  N1  D05 d   1     118.128 -83.685  94.994  0.00  0.00    -0.211 N 
ATOM      8  N2  D05 d   1     118.315 -84.686  95.924  0.00  0.00    -0.169 NA
ATOM      9  C3  D05 d   1     119.180 -85.581  95.397  0.00  0.00     0.074 A 
ATOM     10  O9  D05 d   1     120.950 -86.744  93.157  0.00  0.00    -0.267 OA
ATOM     11  H1  D05 d   1     121.042 -85.276  91.103  0.00  0.00     0.170 HD
ENDROOT
BRANCH   2  12
ATOM     12  C20 D05 d   1     119.896 -82.956  90.460  0.00  0.00     0.014 C 
ATOM     13  H9  D05 d   1     119.050 -82.253  90.437  0.00  0.00     0.051 H 
ATOM     14  H10 D05 d   1     119.809 -83.662  89.621  0.00  0.00     0.051 H 
BRANCH  12  15
ATOM     15  C21 D05 d   1     121.178 -82.159  90.277  0.00  0.00    -0.048 A 
ATOM     16  C22 D05 d   1     121.251 -80.789  90.632  0.00  0.00    -0.042 A 
ATOM     17  C23 D05 d   1     122.497 -80.109  90.502  0.00  0.00     0.099 A 
ATOM     18  H11 D05 d   1     120.374 -80.267  90.996  0.00  0.00     0.088 H 
ATOM     19  C24 D05 d   1     123.628 -80.794  90.026  0.00  0.00     0.098 A 
ATOM     20  C25 D05 d   1     123.538 -82.150  89.639  0.00  0.00    -0.048 A 
ATOM     21  C26 D05 d   1     122.309 -82.819  89.767  0.00  0.00    -0.074 A 
ATOM     22  H12 D05 d   1     124.406 -82.668  89.248  0.00  0.00     0.087 H 
ATOM     23  H13 D05 d   1     122.232 -83.858  89.468  0.00  0.00     0.084 H 
BRANCH  17  24
ATOM     24  O23 D05 d   1     122.655 -78.776  90.872  0.00  0.00    -0.358 OA
ATOM     25  H14 D05 d   1     121.823 -78.431  91.174  0.00  0.00     0.217 HD
ENDBRANCH  17  24
BRANCH  19  26
ATOM     26  O24 D05 d   1     124.855 -80.144  89.995  0.00  0.00    -0.358 OA
ATOM     27  H15 D05 d   1     124.743 -79.246  90.283  0.00  0.00     0.217 HD
ENDBRANCH  19  26
ENDBRANCH  12  15
ENDBRANCH   2  12
BRANCH   7  28
ATOM     28  C11 D05 d   1     117.159 -82.629  95.103  0.00  0.00     0.104 A 
ATOM     29  C16 D05 d   1     115.817 -82.978  95.073  0.00  0.00     0.066 A 
ATOM     30  C15 D05 d   1     114.787 -82.025  95.271  0.00  0.00    -0.039 A 
ATOM     31 CL21 D05 d   1     115.442 -84.638  94.682  0.00  0.00    -0.082 Cl
ATOM     32  C14 D05 d   1     115.085 -80.667  95.503  0.00  0.00     0.037 A 
ATOM     33  H2  D05 d   1     113.752 -82.346  95.244  0.00  0.00     0.088 H 
ATOM     34  C13 D05 d   1     116.430 -80.310  95.516  0.00  0.00    -0.039 A 
ATOM     35 CL17 D05 d   1     113.835 -79.427  95.839  0.00  0.00    -0.084 Cl
ATOM     36  C12 D05 d   1     117.439 -81.268  95.324  0.00  0.00     0.066 A 
ATOM     37  H3  D05 d   1     116.704 -79.274  95.677  0.00  0.00     0.088 H 
ATOM     38 CL22 D05 d   1     119.039 -80.650  95.362  0.00  0.00    -0.082 Cl
ENDBRANCH   7  28
BRANCH   9  39
ATOM     39  C1  D05 d   1     119.483 -86.803  96.213  0.00  0.00    -0.025 C 
ATOM     40  H4  D05 d   1     119.357 -86.564  97.279  0.00  0.00     0.042 H 
ATOM     41  H5  D05 d   1     120.522 -87.112  96.027  0.00  0.00     0.042 H 
BRANCH  39  42
ATOM     42  C2  D05 d   1     118.547 -87.952  95.844  0.00  0.00    -0.071 C 
ATOM     43  H6  D05 d   1     118.790 -88.834  96.455  0.00  0.00     0.028 H 
ATOM     44  H7  D05 d   1     118.671 -88.199  94.779  0.00  0.00     0.028 H 
ATOM     45  H8  D05 d   1     117.506 -87.651  96.032  0.00  0.00     0.028 H 
ENDBRANCH  39  42
ENDBRANCH   9  39
TORSDOF 7
