REMARK  6 active torsions:
REMARK  status: ('A' for Active; 'I' for Inactive)
REMARK    1  A    between atoms: N1_1  and  C2_2 
REMARK    2  A    between atoms: C2_2  and  C3_3 
REMARK    3  A    between atoms: N8_6  and  C20_9 
REMARK    4  A    between atoms: C20_9  and  C21_10 
REMARK       I    between atoms: C21_10  and  N24_11 
REMARK    5  A    between atoms: N24_11  and  C25_12 
REMARK    6  A    between atoms: C35_22  and  C36_23 
ROOT
ATOM      1  C25 D31 d   1      28.171  12.158  15.156  0.00  0.00     0.050 A 
ATOM      2  C26 D31 d   1      28.479  13.343  15.985  0.00  0.00    -0.056 A 
ATOM      3  C27 D31 d   1      27.861  14.635  15.643  0.00  0.00    -0.080 A 
ATOM      4  C28 D31 d   1      26.942  14.728  14.493  0.00  0.00    -0.070 A 
ATOM      5  C29 D31 d   1      26.644  13.543  13.680  0.00  0.00     0.010 A 
ATOM      6  C30 D31 d   1      27.255  12.249  14.005  0.00  0.00     0.054 A 
ATOM      7  C31 D31 d   1      25.885  13.331  12.466  0.00  0.00     0.077 A 
ATOM      8  C32 D31 d   1      26.054  11.957  12.058  0.00  0.00     0.071 A 
ATOM      9  C33 D31 d   1      26.885  11.253  13.014  0.00  0.00     0.200 A 
ATOM     10  N34 D31 d   1      24.772  13.024  10.491  0.00  0.00    -0.178 NA
ATOM     11  C35 D31 d   1      25.355  11.775  10.802  0.00  0.00     0.075 A 
ATOM     12  O54 D31 d   1      27.196  10.067  13.009  0.00  0.00    -0.286 OA
ATOM     13  N55 D31 d   1      25.106  14.064  11.544  0.00  0.00    -0.276 N 
ATOM     14  H19 D31 d   1      29.150  13.262  16.832  0.00  0.00     0.086 H 
ATOM     15  H20 D31 d   1      28.081  15.516  16.235  0.00  0.00     0.083 H 
ATOM     16  H21 D31 d   1      26.483  15.679  14.246  0.00  0.00     0.084 H 
ATOM     17  H33 D31 d   1      24.833  15.056  11.578  0.00  0.00     0.189 HD
ENDROOT
BRANCH   1  18
ATOM     18  N24 D31 d   1      28.740  10.870  15.322  0.00  0.00    -0.325 N 
ATOM     19  C21 D31 d   1      29.599  10.467  16.259  0.00  0.00     0.248 C 
ATOM     20  O53 D31 d   1      30.026  11.266  17.091  0.00  0.00    -0.271 OA
ATOM     21  H18 D31 d   1      28.463  10.179  14.654  0.00  0.00     0.169 HD
BRANCH  19  22
ATOM     22  C20 D31 d   1      29.993   8.999  16.291  0.00  0.00     0.156 C 
ATOM     23  H16 D31 d   1      31.071   8.931  16.497  0.00  0.00     0.090 H 
ATOM     24  H17 D31 d   1      29.434   8.504  17.099  0.00  0.00     0.090 H 
BRANCH  22  25
ATOM     25  N8  D31 d   1      29.712   8.297  15.029  0.00  0.00    -0.063 N 
ATOM     26  C7  D31 d   1      28.554   7.390  14.876  0.00  0.00     0.084 C 
ATOM     27  C6  D31 d   1      28.915   6.170  14.029  0.00  0.00    -0.037 C 
ATOM     28  H9  D31 d   1      28.229   7.052  15.871  0.00  0.00     0.076 H 
ATOM     29  H10 D31 d   1      27.733   7.936  14.388  0.00  0.00     0.076 H 
ATOM     30  C3  D31 d   1      29.559   6.526  12.685  0.00  0.00    -0.028 C 
ATOM     31  H7  D31 d   1      29.620   5.547  14.599  0.00  0.00     0.036 H 
ATOM     32  H8  D31 d   1      27.996   5.598  13.834  0.00  0.00     0.036 H 
ATOM     33  C10 D31 d   1      30.734   7.480  12.932  0.00  0.00    -0.037 C 
ATOM     34  H6  D31 d   1      29.931   5.607  12.207  0.00  0.00     0.042 H 
ATOM     35  C9  D31 d   1      30.373   8.702  13.772  0.00  0.00     0.084 C 
ATOM     36  H14 D31 d   1      31.108   7.828  11.958  0.00  0.00     0.036 H 
ATOM     37  H15 D31 d   1      31.528   6.924  13.453  0.00  0.00     0.036 H 
ATOM     38  H12 D31 d   1      31.291   9.260  14.010  0.00  0.00     0.076 H 
ATOM     39  H13 D31 d   1      29.691   9.346  13.197  0.00  0.00     0.076 H 
ATOM     40  H11 D31 d   1      30.365   7.555  15.228  0.00  0.00     0.280 HD
BRANCH  30  41
ATOM     41  C2  D31 d   1      28.532   7.190  11.759  0.00  0.00     0.083 C 
ATOM     42  H4  D31 d   1      27.683   6.504  11.624  0.00  0.00     0.075 H 
ATOM     43  H5  D31 d   1      28.181   8.120  12.231  0.00  0.00     0.075 H 
BRANCH  41  44
ATOM     44  N1  D31 d   1      29.094   7.515  10.431  0.00  0.00    -0.079 N 
ATOM     45  H1  D31 d   1      28.383   7.948   9.862  0.00  0.00     0.274 HD
ATOM     46  H2  D31 d   1      29.413   6.669   9.985  0.00  0.00     0.274 HD
ATOM     47  H3  D31 d   1      29.869   8.150  10.540  0.00  0.00     0.274 HD
ENDBRANCH  41  44
ENDBRANCH  30  41
ENDBRANCH  22  25
ENDBRANCH  19  22
ENDBRANCH   1  18
BRANCH  11  48
ATOM     48  C36 D31 d   1      25.202  10.526   9.953  0.00  0.00    -0.009 C 
ATOM     49  C37 D31 d   1      24.145  10.580   8.846  0.00  0.00    -0.056 C 
ATOM     50  C38 D31 d   1      23.908   9.226   8.180  0.00  0.00    -0.064 C 
ATOM     51  H23 D31 d   1      24.477  11.295   8.079  0.00  0.00     0.034 H 
ATOM     52  H24 D31 d   1      23.197  10.926   9.283  0.00  0.00     0.034 H 
ATOM     53  C39 D31 d   1      25.222   8.629   7.683  0.00  0.00    -0.065 C 
ATOM     54  H25 D31 d   1      23.226   9.358   7.327  0.00  0.00     0.033 H 
ATOM     55  H26 D31 d   1      23.453   8.540   8.910  0.00  0.00     0.033 H 
ATOM     56  C40 D31 d   1      26.240   8.484   8.826  0.00  0.00    -0.064 C 
ATOM     57  H27 D31 d   1      25.644   9.287   6.909  0.00  0.00     0.033 H 
ATOM     58  H28 D31 d   1      25.024   7.636   7.252  0.00  0.00     0.033 H 
ATOM     59  C41 D31 d   1      26.492   9.837   9.502  0.00  0.00    -0.056 C 
ATOM     60  H29 D31 d   1      27.188   8.102   8.419  0.00  0.00     0.033 H 
ATOM     61  H30 D31 d   1      25.848   7.776   9.571  0.00  0.00     0.033 H 
ATOM     62  H31 D31 d   1      27.131   9.676  10.383  0.00  0.00     0.034 H 
ATOM     63  H32 D31 d   1      27.011  10.495   8.789  0.00  0.00     0.034 H 
ATOM     64  H22 D31 d   1      24.776   9.808  10.669  0.00  0.00     0.049 H 
ENDBRANCH  11  48
TORSDOF 6
