REMARK  8 active torsions:
REMARK  status: ('A' for Active; 'I' for Inactive)
REMARK    1  A    between atoms: O11_1  and  C11_2 
REMARK    2  A    between atoms: O11_1  and  C21_13 
REMARK    3  A    between atoms: C13_5  and  O13_6 
REMARK    4  A    between atoms: C15_8  and  C51_9 
REMARK    5  A    between atoms: C16_10  and  C61_11 
REMARK    6  A    between atoms: C61_11  and  C62_12 
REMARK    7  A    between atoms: C25_17  and  C27_19 
REMARK    8  A    between atoms: C27_19  and  C28_20 
ROOT
ATOM      1  C28 3AC d   1     145.882 -26.107  79.504  0.00  0.00     0.018 C 
ATOM      2  N29 3AC d   1     147.100 -25.744  81.786  0.00  0.00    -0.197 NA
ATOM      3  C29 3AC d   1     146.562 -25.904  80.765  0.00  0.00     0.059 C 
ATOM      4  H16 3AC d   1     146.091 -27.140  79.188  0.00  0.00     0.055 H 
ATOM      5  H17 3AC d   1     144.805 -25.994  79.697  0.00  0.00     0.055 H 
ENDROOT
BRANCH   1   6
ATOM      6  C27 3AC d   1     146.216 -25.219  78.350  0.00  0.00    -0.030 C 
ATOM      7  H14 3AC d   1     146.464 -24.219  78.735  0.00  0.00     0.041 H 
ATOM      8  H15 3AC d   1     147.088 -25.636  77.825  0.00  0.00     0.041 H 
BRANCH   6   9
ATOM      9  C25 3AC d   1     145.061 -25.089  77.355  0.00  0.00    -0.055 A 
ATOM     10  C24 3AC d   1     144.066 -24.072  77.508  0.00  0.00    -0.077 A 
ATOM     11  C23 3AC d   1     143.000 -23.968  76.560  0.00  0.00    -0.080 A 
ATOM     12  H12 3AC d   1     144.120 -23.381  78.341  0.00  0.00     0.084 H 
ATOM     13  C22 3AC d   1     142.931 -24.883  75.470  0.00  0.00    -0.050 A 
ATOM     14  H11 3AC d   1     142.247 -23.196  76.670  0.00  0.00     0.083 H 
ATOM     15  C21 3AC d   1     143.930 -25.907  75.314  0.00  0.00     0.076 A 
ATOM     16  H10 3AC d   1     142.121 -24.807  74.754  0.00  0.00     0.087 H 
ATOM     17  C26 3AC d   1     144.982 -25.988  76.266  0.00  0.00    -0.044 A 
ATOM     18  H13 3AC d   1     145.740 -26.755  76.155  0.00  0.00     0.088 H 
BRANCH  15  19
ATOM     19  O11 3AC d   1     143.938 -26.874  74.266  0.00  0.00    -0.309 OA
BRANCH  19  20
ATOM     20  C11 3AC d   1     142.942 -26.914  73.282  0.00  0.00     0.105 A 
ATOM     21  C12 3AC d   1     143.197 -26.365  72.000  0.00  0.00     0.093 A 
ATOM     22  I12 3AC d   1     144.990 -25.530  71.543  0.00  0.00    -0.037 I 
ATOM     23  C13 3AC d   1     142.206 -26.406  71.018  0.00  0.00     0.182 A 
ATOM     24  N14 3AC d   1     141.001 -26.968  71.286  0.00  0.00    -0.228 NA
ATOM     25  C15 3AC d   1     140.699 -27.517  72.500  0.00  0.00     0.042 A 
ATOM     26  C16 3AC d   1     141.659 -27.507  73.559  0.00  0.00     0.001 A 
BRANCH  23  27
ATOM     27  O13 3AC d   1     142.454 -25.864  69.760  0.00  0.00    -0.344 OA
ATOM     28  H1  3AC d   1     143.337 -25.513  69.736  0.00  0.00     0.219 HD
ENDBRANCH  23  27
BRANCH  25  29
ATOM     29  C51 3AC d   1     139.321 -28.124  72.684  0.00  0.00    -0.035 C 
ATOM     30  H2  3AC d   1     139.229 -28.522  73.705  0.00  0.00     0.035 H 
ATOM     31  H3  3AC d   1     139.179 -28.939  71.959  0.00  0.00     0.035 H 
ATOM     32  H4  3AC d   1     138.555 -27.351  72.521  0.00  0.00     0.035 H 
ENDBRANCH  25  29
BRANCH  26  33
ATOM     33  C61 3AC d   1     141.326 -28.124  74.949  0.00  0.00    -0.040 C 
ATOM     34  H5  3AC d   1     140.266 -28.417  74.963  0.00  0.00     0.039 H 
ATOM     35  H6  3AC d   1     141.508 -27.368  75.727  0.00  0.00     0.039 H 
BRANCH  33  36
ATOM     36  C62 3AC d   1     142.194 -29.371  75.250  0.00  0.00    -0.072 C 
ATOM     37  H7  3AC d   1     141.927 -29.774  76.238  0.00  0.00     0.028 H 
ATOM     38  H8  3AC d   1     143.257 -29.088  75.245  0.00  0.00     0.028 H 
ATOM     39  H9  3AC d   1     142.014 -30.137  74.481  0.00  0.00     0.028 H 
ENDBRANCH  33  36
ENDBRANCH  26  33
ENDBRANCH  19  20
ENDBRANCH  15  19
ENDBRANCH   6   9
ENDBRANCH   1   6
TORSDOF 8
