REMARK  4 active torsions:
REMARK  status: ('A' for Active; 'I' for Inactive)
REMARK    1  A    between atoms: C2_18  and  C14_20 
REMARK    2  A    between atoms: C14_20  and  C17_21 
REMARK    3  A    between atoms: C14_20  and  C16_22 
REMARK    4  A    between atoms: C14_20  and  C15_23 
ROOT
ATOM      1  O0  IZA d   1     117.708  67.477  10.894  0.00  0.00    -0.267 OA
ATOM      2  C11 IZA d   1     117.277  66.878   9.880  0.00  0.00     0.257 A 
ATOM      3  N2  IZA d   1     118.091  66.743   8.798  0.00  0.00    -0.333 N 
ATOM      4  C12 IZA d   1     117.693  66.099   7.686  0.00  0.00    -0.019 A 
ATOM      5  C13 IZA d   1     116.416  65.546   7.594  0.00  0.00    -0.055 A 
ATOM      6  C9  IZA d   1     115.518  65.633   8.661  0.00  0.00     0.013 A 
ATOM      7  C1  IZA d   1     114.242  65.075   8.571  0.00  0.00     0.097 A 
ATOM      8  C10 IZA d   1     115.905  66.289   9.835  0.00  0.00     0.056 A 
ATOM      9  C8  IZA d   1     114.925  66.379  10.970  0.00  0.00    -0.004 A 
ATOM     10  C7  IZA d   1     115.203  67.008  12.179  0.00  0.00    -0.034 A 
ATOM     11  C6  IZA d   1     114.205  67.016  13.146  0.00  0.00     0.117 A 
ATOM     12  F1  IZA d   1     114.458  67.672  14.446  0.00  0.00    -0.206 F 
ATOM     13  C5  IZA d   1     112.971  66.403  12.892  0.00  0.00    -0.045 A 
ATOM     14  C4  IZA d   1     112.710  65.818  11.765  0.00  0.00    -0.067 A 
ATOM     15  C3  IZA d   1     113.577  65.764  10.808  0.00  0.00     0.004 A 
ATOM     16  C0  IZA d   1     113.307  65.138   9.595  0.00  0.00     0.074 A 
ATOM     17  N1  IZA d   1     112.172  64.512   9.210  0.00  0.00    -0.341 N 
ATOM     18  C2  IZA d   1     112.466  64.089   7.958  0.00  0.00     0.113 A 
ATOM     19  N0  IZA d   1     113.704  64.415   7.522  0.00  0.00    -0.232 NA
ATOM     20  H1  IZA d   1     119.011  67.133   8.830  0.00  0.00     0.168 HD
ATOM     21  H2  IZA d   1     118.379  66.008   6.845  0.00  0.00     0.111 H 
ATOM     22  H3  IZA d   1     116.115  65.040   6.678  0.00  0.00     0.087 H 
ATOM     23  H4  IZA d   1     116.164  67.475  12.361  0.00  0.00     0.089 H 
ATOM     24  H5  IZA d   1     112.210  66.418  13.663  0.00  0.00     0.088 H 
ATOM     25  H6  IZA d   1     111.737  65.361  11.621  0.00  0.00     0.085 H 
ATOM     26  H7  IZA d   1     111.297  64.387   9.740  0.00  0.00     0.167 HD
ENDROOT
BRANCH  18  27
ATOM     27  C14 IZA d   1     111.481  63.340   7.088  0.00  0.00     0.009 C 
BRANCH  27  28
ATOM     28  C17 IZA d   1     110.351  62.754   7.925  0.00  0.00    -0.063 C 
ATOM     29  H8  IZA d   1     109.650  62.216   7.270  0.00  0.00     0.029 H 
ATOM     30  H9  IZA d   1     109.819  63.566   8.443  0.00  0.00     0.029 H 
ATOM     31  H10 IZA d   1     110.768  62.057   8.667  0.00  0.00     0.029 H 
ENDBRANCH  27  28
BRANCH  27  32
ATOM     32  C16 IZA d   1     112.157  62.218   6.312  0.00  0.00    -0.063 C 
ATOM     33  H11 IZA d   1     112.975  62.633   5.705  0.00  0.00     0.029 H 
ATOM     34  H12 IZA d   1     111.421  61.733   5.654  0.00  0.00     0.029 H 
ATOM     35  H13 IZA d   1     112.563  61.478   7.017  0.00  0.00     0.029 H 
ENDBRANCH  27  32
BRANCH  27  36
ATOM     36  C15 IZA d   1     110.887  64.332   6.096  0.00  0.00    -0.063 C 
ATOM     37  H14 IZA d   1     110.395  65.149   6.644  0.00  0.00     0.029 H 
ATOM     38  H15 IZA d   1     110.149  63.819   5.462  0.00  0.00     0.029 H 
ATOM     39  H16 IZA d   1     111.688  64.744   5.465  0.00  0.00     0.029 H 
ENDBRANCH  27  36
ENDBRANCH  18  27
TORSDOF 4
