REMARK WARNING: 32 MAX_TORS EXCEEDED!!!
REMARK  40 active torsions:
REMARK  status: ('A' for Active; 'I' for Inactive)
REMARK    1  A    between atoms: C_1  and  CH3_3 
REMARK       I    between atoms: C_1  and  N_4 
REMARK    2  A    between atoms: N_4  and  CA_5 
REMARK    3  A    between atoms: CA_5  and  C_6 
REMARK    4  A    between atoms: CA_5  and  CB_8 
REMARK       I    between atoms: C_6  and  N_9 
REMARK    5  A    between atoms: CA_10  and  C_11 
REMARK       I    between atoms: C_11  and  N_16 
REMARK    6  A    between atoms: N_16  and  CA_17 
REMARK    7  A    between atoms: CA_17  and  C_18 
REMARK    8  A    between atoms: CA_17  and  CB_20 
REMARK       I    between atoms: C_18  and  N_25 
REMARK    9  A    between atoms: CB_20  and  CG_21 
REMARK   10  A    between atoms: CG_21  and  CD_22 
REMARK       I    between atoms: CD_22  and  NE2_24 
REMARK   11  A    between atoms: N_25  and  CA_26 
REMARK   12  A    between atoms: CA_26  and  C_27 
REMARK   13  A    between atoms: CA_26  and  CB_29 
REMARK       I    between atoms: C_27  and  N_32 
REMARK   14  A    between atoms: CB_29  and  CG1_30 
REMARK   15  A    between atoms: CB_29  and  CG2_31 
REMARK   16  A    between atoms: N_32  and  CA_33 
REMARK   17  A    between atoms: CA_33  and  CB_34 
REMARK   18  A    between atoms: CA_33  and  CH_38 
REMARK   19  A    between atoms: CB_34  and  CG_35 
REMARK   20  A    between atoms: CG_35  and  CD1_36 
REMARK   21  A    between atoms: CG_35  and  CD2_37 
REMARK   22  A    between atoms: CH_38  and  OH_39 
REMARK   23  A    between atoms: CH_38  and  CM_40 
REMARK   24  A    between atoms: CM_40  and  C_41 
REMARK       I    between atoms: C_41  and  N_43 
REMARK   25  A    between atoms: N_43  and  CA_44 
REMARK   26  A    between atoms: CA_44  and  C_45 
REMARK   27  A    between atoms: CA_44  and  CB_47 
REMARK       I    between atoms: C_45  and  N_50 
REMARK   28  A    between atoms: CB_47  and  CG1_48 
REMARK   29  A    between atoms: CB_47  and  CG2_49 
REMARK   30  A    between atoms: N_50  and  CA_51 
REMARK   31  A    between atoms: CA_51  and  C_52 
REMARK   32  A    between atoms: CA_51  and  CB_54 
REMARK       I    between atoms: C_52  and  N_58 
REMARK   33  A    between atoms: CB_54  and  CG_55 
REMARK   34  A    between atoms: CG_55  and  SD_56 
REMARK   35  A    between atoms: SD_56  and  CE_57 
REMARK   36  A    between atoms: N_58  and  CA_59 
REMARK   37  A    between atoms: CA_59  and  C_60 
REMARK   38  A    between atoms: CA_59  and  CB_62 
REMARK       I    between atoms: C_60  and  N_68 
REMARK   39  A    between atoms: CB_62  and  CG_63 
REMARK   40  A    between atoms: CA_69  and  C_70 
ROOT
ATOM      1  CA  STA d   1      87.844  57.105  54.764  0.00  0.00     0.037 C 
ATOM      2  H34 STA d   1      88.124  56.725  53.770  0.00  0.00     0.076 H 
ENDROOT
BRANCH   1   3
ATOM      3  N   STA d   1      86.438  57.384  54.748  0.00  0.00    -0.352 N 
ATOM      4  C   VAL d   1      85.752  57.389  53.608  0.00  0.00     0.241 C 
ATOM      5  O   VAL d   1      86.127  56.854  52.574  0.00  0.00    -0.271 OA
ATOM      6  H33 STA d   1      85.965  57.578  55.608  0.00  0.00     0.163 HD
BRANCH   4   7
ATOM      7  CA  VAL d   1      84.332  57.920  53.727  0.00  0.00     0.092 C 
ATOM      8  H25 VAL d   1      84.138  58.163  54.782  0.00  0.00     0.088 H 
BRANCH   7   9
ATOM      9  N   VAL d   1      84.216  59.135  52.963  0.00  0.00    -0.346 N 
ATOM     10  C   GLN d   1      83.609  60.203  53.444  0.00  0.00     0.241 C 
ATOM     11  O   GLN d   1      83.026  60.225  54.526  0.00  0.00    -0.271 OA
ATOM     12  H24 VAL d   1      84.606  59.170  52.043  0.00  0.00     0.163 HD
BRANCH  10  13
ATOM     13  CA  GLN d   1      83.675  61.448  52.588  0.00  0.00     0.090 C 
ATOM     14  H17 GLN d   1      83.904  61.164  51.550  0.00  0.00     0.087 H 
BRANCH  13  15
ATOM     15  N   GLN d   1      82.398  62.207  52.593  0.00  0.00    -0.346 N 
ATOM     16  C   PRO d   1      81.509  62.124  51.610  0.00  0.00     0.241 C 
ATOM     17  O   PRO d   1      81.729  61.469  50.588  0.00  0.00    -0.271 OA
ATOM     18  H16 GLN d   1      82.200  62.806  53.369  0.00  0.00     0.163 HD
BRANCH  16  19
ATOM     19  CA  PRO d   1      80.179  62.915  51.764  0.00  0.00     0.091 C 
ATOM     20  N   PRO d   1      79.603  63.218  50.457  0.00  0.00    -0.337 N 
ATOM     21  C   ALA d   1      80.376  64.082  49.765  0.00  0.00     0.243 C 
ATOM     22  CD  PRO d   1      78.343  62.485  50.214  0.00  0.00    -0.001 C 
ATOM     23  O   ALA d   1      81.279  64.733  50.318  0.00  0.00    -0.271 OA
ATOM     24  CG  PRO d   1      78.327  61.486  51.330  0.00  0.00    -0.048 C 
ATOM     25  H14 PRO d   1      78.357  61.986  49.234  0.00  0.00     0.064 H 
ATOM     26  H15 PRO d   1      77.475  63.158  50.271  0.00  0.00     0.064 H 
ATOM     27  CB  PRO d   1      79.077  62.088  52.439  0.00  0.00    -0.036 C 
ATOM     28  H12 PRO d   1      77.292  61.279  51.639  0.00  0.00     0.035 H 
ATOM     29  H13 PRO d   1      78.808  60.550  51.009  0.00  0.00     0.035 H 
ATOM     30  H10 PRO d   1      78.423  62.734  53.043  0.00  0.00     0.036 H 
ATOM     31  H11 PRO d   1      79.515  61.308  53.079  0.00  0.00     0.036 H 
ATOM     32  H9  PRO d   1      80.373  63.837  52.332  0.00  0.00     0.087 H 
BRANCH  21  33
ATOM     33  CA  ALA d   1      80.150  64.191  48.240  0.00  0.00     0.086 C 
ATOM     34  H5  ALA d   1      79.098  63.963  48.014  0.00  0.00     0.086 H 
BRANCH  33  35
ATOM     35  N   ALA d   1      80.481  65.502  47.724  0.00  0.00    -0.348 N 
ATOM     36  C   ACE d   1      79.999  66.645  48.205  0.00  0.00     0.214 C 
ATOM     37  O   ACE d   1      79.033  66.690  48.962  0.00  0.00    -0.274 OA
ATOM     38  H4  ALA d   1      81.116  65.552  46.953  0.00  0.00     0.163 HD
BRANCH  36  39
ATOM     39  CH3 ACE d   1      80.694  67.933  47.735  0.00  0.00    -0.003 C 
ATOM     40  H1  ACE d   1      81.530  67.676  47.068  0.00  0.00     0.040 H 
ATOM     41  H2  ACE d   1      81.077  68.482  48.608  0.00  0.00     0.040 H 
ATOM     42  H3  ACE d   1      79.972  68.562  47.193  0.00  0.00     0.040 H 
ENDBRANCH  36  39
ENDBRANCH  33  35
BRANCH  33  43
ATOM     43  CB  ALA d   1      81.037  63.229  47.563  0.00  0.00    -0.049 C 
ATOM     44  H6  ALA d   1      80.821  62.213  47.925  0.00  0.00     0.030 H 
ATOM     45  H7  ALA d   1      82.085  63.481  47.781  0.00  0.00     0.030 H 
ATOM     46  H8  ALA d   1      80.867  63.275  46.477  0.00  0.00     0.030 H 
ENDBRANCH  33  43
ENDBRANCH  21  33
ENDBRANCH  16  19
ENDBRANCH  13  15
BRANCH  13  47
ATOM     47  CB  GLN d   1      84.810  62.287  53.148  0.00  0.00    -0.030 C 
ATOM     48  H18 GLN d   1      85.570  61.602  53.552  0.00  0.00     0.037 H 
ATOM     49  H19 GLN d   1      84.404  62.905  53.962  0.00  0.00     0.037 H 
BRANCH  47  50
ATOM     50  CG  GLN d   1      85.482  63.193  52.178  0.00  0.00     0.011 C 
ATOM     51  H20 GLN d   1      84.721  63.756  51.618  0.00  0.00     0.047 H 
ATOM     52  H21 GLN d   1      86.085  62.595  51.478  0.00  0.00     0.047 H 
BRANCH  50  53
ATOM     53  CD  GLN d   1      86.375  64.154  52.908  0.00  0.00     0.215 C 
ATOM     54  OE1 GLN d   1      86.872  63.819  53.991  0.00  0.00    -0.274 OA
ATOM     55  NE2 GLN d   1      86.573  65.367  52.343  0.00  0.00    -0.370 N 
ATOM     56  H22 GLN d   1      87.160  66.039  52.794  0.00  0.00     0.159 HD
ATOM     57  H23 GLN d   1      86.132  65.592  51.474  0.00  0.00     0.159 HD
ENDBRANCH  50  53
ENDBRANCH  47  50
ENDBRANCH  13  47
ENDBRANCH  10  13
ENDBRANCH   7   9
BRANCH   7  58
ATOM     58  CB  VAL d   1      83.305  56.831  53.294  0.00  0.00    -0.033 C 
ATOM     59  H26 VAL d   1      83.468  56.609  52.229  0.00  0.00     0.042 H 
BRANCH  58  60
ATOM     60  CG1 VAL d   1      83.508  55.527  54.094  0.00  0.00    -0.071 C 
ATOM     61  H27 VAL d   1      82.771  54.778  53.768  0.00  0.00     0.028 H 
ATOM     62  H28 VAL d   1      83.374  55.730  55.167  0.00  0.00     0.028 H 
ATOM     63  H29 VAL d   1      84.523  55.143  53.918  0.00  0.00     0.028 H 
ENDBRANCH  58  60
BRANCH  58  64
ATOM     64  CG2 VAL d   1      81.903  57.341  53.461  0.00  0.00    -0.071 C 
ATOM     65  H30 VAL d   1      81.779  58.269  52.884  0.00  0.00     0.028 H 
ATOM     66  H31 VAL d   1      81.710  57.542  54.525  0.00  0.00     0.028 H 
ATOM     67  H32 VAL d   1      81.192  56.585  53.096  0.00  0.00     0.028 H 
ENDBRANCH  58  64
ENDBRANCH   7  58
ENDBRANCH   4   7
ENDBRANCH   1   3
BRANCH   1  68
ATOM     68  CB  STA d   1      88.613  58.420  55.002  0.00  0.00    -0.041 C 
ATOM     69  H35 STA d   1      89.589  58.133  55.420  0.00  0.00     0.036 H 
ATOM     70  H36 STA d   1      88.040  58.977  55.758  0.00  0.00     0.036 H 
BRANCH  68  71
ATOM     71  CG  STA d   1      88.911  59.423  53.860  0.00  0.00    -0.059 C 
ATOM     72  H37 STA d   1      89.850  59.897  54.183  0.00  0.00     0.038 H 
BRANCH  71  73
ATOM     73  CD1 STA d   1      87.902  60.563  53.817  0.00  0.00    -0.073 C 
ATOM     74  H38 STA d   1      88.155  61.246  52.993  0.00  0.00     0.028 H 
ATOM     75  H39 STA d   1      87.929  61.112  54.770  0.00  0.00     0.028 H 
ATOM     76  H40 STA d   1      86.893  60.154  53.658  0.00  0.00     0.028 H 
ENDBRANCH  71  73
BRANCH  71  77
ATOM     77  CD2 STA d   1      89.255  58.893  52.440  0.00  0.00    -0.073 C 
ATOM     78  H41 STA d   1      89.984  58.074  52.521  0.00  0.00     0.028 H 
ATOM     79  H42 STA d   1      89.684  59.708  51.839  0.00  0.00     0.028 H 
ATOM     80  H43 STA d   1      88.340  58.522  51.955  0.00  0.00     0.028 H 
ENDBRANCH  71  77
ENDBRANCH  68  71
ENDBRANCH   1  68
BRANCH   1  81
ATOM     81  CH  STA d   1      88.230  55.980  55.823  0.00  0.00     0.063 C 
ATOM     82  H44 STA d   1      89.317  56.071  55.964  0.00  0.00     0.086 H 
BRANCH  81  83
ATOM     83  OH  STA d   1      87.622  56.241  57.080  0.00  0.00    -0.393 OA
ATOM     84  H45 STA d   1      87.918  57.083  57.405  0.00  0.00     0.210 HD
ENDBRANCH  81  83
BRANCH  81  85
ATOM     85  CM  STA d   1      87.977  54.487  55.422  0.00  0.00     0.035 C 
ATOM     86  H46 STA d   1      87.071  54.422  54.802  0.00  0.00     0.051 H 
ATOM     87  H47 STA d   1      87.845  53.880  56.330  0.00  0.00     0.051 H 
BRANCH  85  88
ATOM     88  C   STA d   1      89.189  53.959  54.621  0.00  0.00     0.220 C 
ATOM     89  O   STA d   1      89.265  54.165  53.431  0.00  0.00    -0.274 OA
ATOM     90  N   VAL d   1      90.192  53.418  55.305  0.00  0.00    -0.347 N 
ATOM     91  H48 VAL d   1      90.126  53.334  56.299  0.00  0.00     0.163 HD
BRANCH  90  92
ATOM     92  CA  VAL d   1      91.413  52.936  54.604  0.00  0.00     0.092 C 
ATOM     93  H49 VAL d   1      91.160  52.797  53.542  0.00  0.00     0.088 H 
BRANCH  92  94
ATOM     94  C   VAL d   1      91.886  51.607  55.176  0.00  0.00     0.241 C 
ATOM     95  O   VAL d   1      92.205  51.491  56.351  0.00  0.00    -0.271 OA
ATOM     96  N   MET d   1      91.962  50.592  54.341  0.00  0.00    -0.346 N 
ATOM     97  H57 MET d   1      91.732  50.731  53.378  0.00  0.00     0.163 HD
BRANCH  96  98
ATOM     98  CA  MET d   1      92.378  49.259  54.798  0.00  0.00     0.090 C 
ATOM     99  H58 MET d   1      92.603  49.332  55.872  0.00  0.00     0.087 H 
BRANCH  98 100
ATOM    100  C   MET d   1      93.634  48.740  54.104  0.00  0.00     0.241 C 
ATOM    101  O   MET d   1      93.898  49.059  52.952  0.00  0.00    -0.271 OA
ATOM    102  N   HIS d   1      94.389  47.897  54.795  0.00  0.00    -0.346 N 
ATOM    103  H66 HIS d   1      94.173  47.703  55.752  0.00  0.00     0.163 HD
BRANCH 102 104
ATOM    104  CA  HIS d   1      95.542  47.247  54.158  0.00  0.00     0.095 C 
ATOM    105  H67 HIS d   1      95.983  48.014  53.505  0.00  0.00     0.088 H 
BRANCH 104 106
ATOM    106  C   HIS d   1      95.218  46.067  53.232  0.00  0.00     0.243 C 
ATOM    107  O   HIS d   1      94.057  45.921  52.803  0.00  0.00    -0.271 OA
ATOM    108  N   PRO d   1      96.193  45.166  52.951  0.00  0.00    -0.336 N 
ATOM    109  CA  PRO d   1      96.165  44.553  51.607  0.00  0.00     0.098 C 
ATOM    110  CD  PRO d   1      97.162  44.430  53.788  0.00  0.00    -0.001 C 
ATOM    111  CB  PRO d   1      96.082  43.049  51.948  0.00  0.00    -0.035 C 
ATOM    112  H73 PRO d   1      97.117  44.761  51.096  0.00  0.00     0.089 H 
ATOM    113  CG  PRO d   1      96.945  42.963  53.306  0.00  0.00    -0.048 C 
ATOM    114  H74 PRO d   1      96.527  42.434  51.152  0.00  0.00     0.036 H 
ATOM    115  H75 PRO d   1      95.041  42.734  52.116  0.00  0.00     0.036 H 
ATOM    116  H76 PRO d   1      97.914  42.480  53.110  0.00  0.00     0.035 H 
ATOM    117  H77 PRO d   1      96.397  42.390  54.069  0.00  0.00     0.035 H 
ATOM    118  H78 PRO d   1      96.932  44.539  54.858  0.00  0.00     0.064 H 
ATOM    119  H79 PRO d   1      98.192  44.766  53.599  0.00  0.00     0.064 H 
BRANCH 109 120
ATOM    120  C   PRO d   1      95.029  45.051  50.662  0.00  0.00     0.196 C 
ATOM    121  O   PRO d   1      94.110  44.327  50.200  0.00  0.00    -0.646 OA
ATOM    122  OXT PRO d   1      95.027  46.239  50.334  0.00  0.00    -0.646 OA
ENDBRANCH 109 120
ENDBRANCH 104 106
BRANCH 104 123
ATOM    123  CB  HIS d   1      96.605  46.896  55.162  0.00  0.00     0.004 C 
ATOM    124  H68 HIS d   1      96.628  45.803  55.285  0.00  0.00     0.046 H 
ATOM    125  H69 HIS d   1      96.352  47.368  56.123  0.00  0.00     0.046 H 
BRANCH 123 126
ATOM    126  CG  HIS d   1      97.970  47.362  54.741  0.00  0.00     0.053 A 
ATOM    127  ND1 HIS d   1      99.102  46.553  54.805  0.00  0.00    -0.247 NA
ATOM    128  CE1 HIS d   1     100.159  47.239  54.383  0.00  0.00     0.064 A 
ATOM    129  NE2 HIS d   1      99.750  48.449  54.021  0.00  0.00    -0.359 N 
ATOM    130  H71 HIS d   1     101.183  46.872  54.341  0.00  0.00     0.143 H 
ATOM    131  CD2 HIS d   1      98.386  48.553  54.228  0.00  0.00     0.002 A 
ATOM    132  H72 HIS d   1     100.354  49.194  53.645  0.00  0.00     0.166 HD
ATOM    133  H70 HIS d   1      97.763  49.422  54.020  0.00  0.00     0.114 H 
ENDBRANCH 123 126
ENDBRANCH 104 123
ENDBRANCH 102 104
ENDBRANCH  98 100
BRANCH  98 134
ATOM    134  CB  MET d   1      91.221  48.276  54.620  0.00  0.00    -0.030 C 
ATOM    135  H59 MET d   1      91.333  47.465  55.354  0.00  0.00     0.037 H 
ATOM    136  H60 MET d   1      91.267  47.859  53.603  0.00  0.00     0.037 H 
BRANCH 134 137
ATOM    137  CG  MET d   1      89.882  48.915  54.814  0.00  0.00    -0.021 C 
ATOM    138  H61 MET d   1      89.366  48.956  53.843  0.00  0.00     0.049 H 
ATOM    139  H62 MET d   1      90.030  49.936  55.195  0.00  0.00     0.049 H 
BRANCH 137 140
ATOM    140  SD  MET d   1      88.854  48.009  55.976  0.00  0.00    -0.173 SA
BRANCH 140 141
ATOM    141  CE  MET d   1      88.248  46.601  55.024  0.00  0.00    -0.035 C 
ATOM    142  H63 MET d   1      87.601  45.980  55.660  0.00  0.00     0.041 H 
ATOM    143  H64 MET d   1      89.101  46.002  54.672  0.00  0.00     0.041 H 
ATOM    144  H65 MET d   1      87.673  46.963  54.159  0.00  0.00     0.041 H 
ENDBRANCH 140 141
ENDBRANCH 137 140
ENDBRANCH 134 137
ENDBRANCH  98 134
ENDBRANCH  96  98
ENDBRANCH  92  94
BRANCH  92 145
ATOM    145  CB  VAL d   1      92.598  53.936  54.704  0.00  0.00    -0.033 C 
ATOM    146  H50 VAL d   1      92.873  54.035  55.765  0.00  0.00     0.042 H 
BRANCH 145 147
ATOM    147  CG1 VAL d   1      93.774  53.419  53.968  0.00  0.00    -0.071 C 
ATOM    148  H51 VAL d   1      94.602  54.138  54.049  0.00  0.00     0.028 H 
ATOM    149  H52 VAL d   1      93.512  53.280  52.909  0.00  0.00     0.028 H 
ATOM    150  H53 VAL d   1      94.082  52.455  54.399  0.00  0.00     0.028 H 
ENDBRANCH 145 147
BRANCH 145 151
ATOM    151  CG2 VAL d   1      92.208  55.301  54.193  0.00  0.00    -0.071 C 
ATOM    152  H54 VAL d   1      91.334  55.666  54.752  0.00  0.00     0.028 H 
ATOM    153  H55 VAL d   1      91.958  55.235  53.124  0.00  0.00     0.028 H 
ATOM    154  H56 VAL d   1      93.048  55.998  54.330  0.00  0.00     0.028 H 
ENDBRANCH 145 151
ENDBRANCH  92 145
ENDBRANCH  90  92
ENDBRANCH  85  88
ENDBRANCH  81  85
ENDBRANCH   1  81
TORSDOF 40
