REMARK  17 active torsions:
REMARK  status: ('A' for Active; 'I' for Inactive)
REMARK    1  A    between atoms: N1_4  and  C2_2 
REMARK    2  A    between atoms: C4_5  and  N1_4 
REMARK    3  A    between atoms: C5_6  and  C4_5 
REMARK    4  A    between atoms: C6_7  and  C5_6 
REMARK    5  A    between atoms: C5_6  and  O3_11 
REMARK    6  A    between atoms: C6_7  and  N2_8 
REMARK    7  A    between atoms: C8_12  and  C6_7 
REMARK       I    between atoms: N2_8  and  C7_9 
REMARK    8  A    between atoms: C7_9  and  C9_13 
REMARK    9  A    between atoms: C29_32  and  C8_12 
REMARK   10  A    between atoms: C11_15  and  C15_19 
REMARK   11  A    between atoms: C13_17  and  N3_20 
REMARK       I    between atoms: C15_19  and  N4_33 
REMARK   12  A    between atoms: N3_20  and  C16_22 
REMARK   13  A    between atoms: N3_20  and  S1_23 
REMARK   14  A    between atoms: S1_23  and  C23_24 
REMARK   15  A    between atoms: N4_33  and  C17_34 
REMARK   16  A    between atoms: C17_34  and  C18_35 
REMARK   17  A    between atoms: C17_34  and  C30_36 
ROOT
ATOM      1  C9  5HA d   1      29.832  41.588   1.006  0.00  0.00     0.035 A 
ATOM      2  C10 5HA d   1      30.733  42.567   1.457  0.00  0.00    -0.052 A 
ATOM      3  C11 5HA d   1      30.383  43.931   1.511  0.00  0.00     0.035 A 
ATOM      4  C12 5HA d   1      29.092  44.299   1.072  0.00  0.00    -0.041 A 
ATOM      5  C13 5HA d   1      28.132  43.329   0.623  0.00  0.00     0.046 A 
ATOM      6  C14 5HA d   1      28.530  41.966   0.590  0.00  0.00    -0.041 A 
ATOM      7  H16 5HA d   1      31.725  42.265   1.772  0.00  0.00     0.086 H 
ATOM      8  H17 5HA d   1      28.817  45.347   1.074  0.00  0.00     0.088 H 
ATOM      9  H18 5HA d   1      27.834  41.210   0.245  0.00  0.00     0.088 H 
ENDROOT
BRANCH   1  10
ATOM     10  C7  5HA d   1      30.195  40.172   0.956  0.00  0.00     0.252 C 
ATOM     11  N2  5HA d   1      30.879  39.712   2.035  0.00  0.00    -0.349 N 
ATOM     12  H12 5HA d   1      30.916  40.274   2.862  0.00  0.00     0.163 HD
ATOM     13  O2  5HA d   1      29.887  39.461   0.001  0.00  0.00    -0.268 OA
BRANCH  11  14
ATOM     14  C6  5HA d   1      31.565  38.416   2.024  0.00  0.00     0.042 C 
ATOM     15  H11 5HA d   1      31.498  37.985   1.014  0.00  0.00     0.077 H 
BRANCH  14  16
ATOM     16  C5  5HA d   1      30.803  37.522   2.977  0.00  0.00     0.078 C 
ATOM     17  H10 5HA d   1      30.641  38.029   3.940  0.00  0.00     0.088 H 
BRANCH  16  18
ATOM     18  C4  5HA d   1      29.472  37.104   2.306  0.00  0.00     0.107 C 
ATOM     19  H8  5HA d   1      28.840  37.996   2.183  0.00  0.00     0.079 H 
ATOM     20  H9  5HA d   1      29.692  36.671   1.319  0.00  0.00     0.079 H 
BRANCH  18  21
ATOM     21  N1  5HA d   1      28.739  36.105   3.115  0.00  0.00    -0.068 N 
ATOM     22  H6  5HA d   1      29.359  35.364   3.400  0.00  0.00     0.277 HD
ATOM     23  H7  5HA d   1      28.340  36.542   3.931  0.00  0.00     0.277 HD
BRANCH  21  24
ATOM     24  C2  5HA d   1      27.674  35.574   2.248  0.00  0.00     0.102 A 
ATOM     25  C1  5HA d   1      26.351  36.189   2.523  0.00  0.00    -0.036 A 
ATOM     26  C3  5HA d   1      26.687  34.808   3.010  0.00  0.00    -0.036 A 
ATOM     27  H1  5HA d   1      25.625  36.327   1.708  0.00  0.00     0.036 H 
ATOM     28  H2  5HA d   1      26.265  37.022   3.236  0.00  0.00     0.036 H 
ATOM     29  H4  5HA d   1      26.201  33.932   2.556  0.00  0.00     0.036 H 
ATOM     30  H5  5HA d   1      26.842  34.626   4.084  0.00  0.00     0.036 H 
ATOM     31  H3  5HA d   1      28.014  35.297   1.239  0.00  0.00     0.084 H 
ENDBRANCH  21  24
ENDBRANCH  18  21
ENDBRANCH  16  18
BRANCH  16  32
ATOM     32  O3  5HA d   1      31.481  36.279   3.141  0.00  0.00    -0.392 OA
ATOM     33  H13 5HA d   1      32.350  36.437   3.492  0.00  0.00     0.210 HD
ENDBRANCH  16  32
ENDBRANCH  14  16
BRANCH  14  34
ATOM     34  C8  5HA d   1      33.076  38.565   2.368  0.00  0.00    -0.020 C 
ATOM     35  H14 5HA d   1      33.590  37.646   2.049  0.00  0.00     0.043 H 
ATOM     36  H15 5HA d   1      33.167  38.676   3.458  0.00  0.00     0.043 H 
BRANCH  34  37
ATOM     37  C29 5HA d   1      33.779  39.752   1.711  0.00  0.00    -0.056 A 
ATOM     38  C24 5HA d   1      33.720  40.005   0.310  0.00  0.00    -0.077 A 
ATOM     39  C25 5HA d   1      34.460  41.071  -0.255  0.00  0.00    -0.082 A 
ATOM     40  H25 5HA d   1      33.105  39.378  -0.326  0.00  0.00     0.084 H 
ATOM     41  C26 5HA d   1      35.249  41.881   0.576  0.00  0.00    -0.083 A 
ATOM     42  H26 5HA d   1      34.418  41.260  -1.321  0.00  0.00     0.083 H 
ATOM     43  C27 5HA d   1      35.315  41.666   1.956  0.00  0.00    -0.082 A 
ATOM     44  H27 5HA d   1      35.820  42.692   0.138  0.00  0.00     0.083 H 
ATOM     45  C28 5HA d   1      34.565  40.590   2.528  0.00  0.00    -0.077 A 
ATOM     46  H28 5HA d   1      35.925  42.305   2.583  0.00  0.00     0.083 H 
ATOM     47  H29 5HA d   1      34.602  40.418   3.598  0.00  0.00     0.084 H 
ENDBRANCH  34  37
ENDBRANCH  14  34
ENDBRANCH  11  14
ENDBRANCH   1  10
BRANCH   3  48
ATOM     48  C15 5HA d   1      31.336  44.936   2.043  0.00  0.00     0.252 C 
ATOM     49  O4  5HA d   1      31.442  46.070   1.605  0.00  0.00    -0.268 OA
ATOM     50  N4  5HA d   1      32.103  44.509   3.084  0.00  0.00    -0.349 N 
ATOM     51  H30 5HA d   1      31.986  43.555   3.361  0.00  0.00     0.163 HD
BRANCH  50  52
ATOM     52  C17 5HA d   1      33.078  45.291   3.841  0.00  0.00     0.034 C 
ATOM     53  H31 5HA d   1      33.255  46.233   3.301  0.00  0.00     0.079 H 
BRANCH  52  54
ATOM     54  C18 5HA d   1      34.439  44.508   3.888  0.00  0.00    -0.053 C 
ATOM     55  H32 5HA d   1      35.178  45.091   4.457  0.00  0.00     0.030 H 
ATOM     56  H33 5HA d   1      34.807  44.350   2.863  0.00  0.00     0.030 H 
ATOM     57  H34 5HA d   1      34.285  43.535   4.377  0.00  0.00     0.030 H 
ENDBRANCH  52  54
BRANCH  52  58
ATOM     58  C30 5HA d   1      32.547  45.646   5.188  0.00  0.00    -0.036 A 
ATOM     59  C31 5HA d   1      32.171  44.665   6.152  0.00  0.00    -0.075 A 
ATOM     60  C32 5HA d   1      31.774  45.046   7.442  0.00  0.00    -0.082 A 
ATOM     61  H35 5HA d   1      32.192  43.615   5.885  0.00  0.00     0.084 H 
ATOM     62  C33 5HA d   1      31.694  46.423   7.797  0.00  0.00    -0.083 A 
ATOM     63  H36 5HA d   1      31.526  44.286   8.175  0.00  0.00     0.083 H 
ATOM     64  C34 5HA d   1      31.993  47.382   6.821  0.00  0.00    -0.082 A 
ATOM     65  H37 5HA d   1      31.408  46.722   8.799  0.00  0.00     0.083 H 
ATOM     66  C35 5HA d   1      32.423  47.003   5.541  0.00  0.00    -0.075 A 
ATOM     67  H38 5HA d   1      31.890  48.435   7.059  0.00  0.00     0.083 H 
ATOM     68  H39 5HA d   1      32.664  47.768   4.811  0.00  0.00     0.084 H 
ENDBRANCH  52  58
ENDBRANCH  50  52
ENDBRANCH   3  48
BRANCH   5  69
ATOM     69  N3  5HA d   1      26.788  43.624   0.326  0.00  0.00    -0.281 N 
BRANCH  69  70
ATOM     70  C16 5HA d   1      26.115  42.932  -0.800  0.00  0.00    -0.004 C 
ATOM     71  H19 5HA d   1      26.762  42.124  -1.173  0.00  0.00     0.058 H 
ATOM     72  H20 5HA d   1      25.923  43.651  -1.610  0.00  0.00     0.058 H 
ATOM     73  H21 5HA d   1      25.162  42.508  -0.452  0.00  0.00     0.058 H 
ENDBRANCH  69  70
BRANCH  69  74
ATOM     74  S1  5HA d   1      25.962  44.862   1.006  0.00  0.00     0.228 S 
ATOM     75  O5  5HA d   1      24.552  44.563   0.908  0.00  0.00    -0.206 OA
ATOM     76  O6  5HA d   1      26.498  45.115   2.301  0.00  0.00    -0.206 OA
BRANCH  74  77
ATOM     77  C23 5HA d   1      26.310  46.331   0.022  0.00  0.00     0.033 C 
ATOM     78  H22 5HA d   1      25.772  47.192   0.446  0.00  0.00     0.051 H 
ATOM     79  H23 5HA d   1      25.979  46.165  -1.014  0.00  0.00     0.051 H 
ATOM     80  H24 5HA d   1      27.391  46.532   0.034  0.00  0.00     0.051 H 
ENDBRANCH  74  77
ENDBRANCH  69  74
ENDBRANCH   5  69
TORSDOF 17
