REMARK  12 active torsions:
REMARK  status: ('A' for Active; 'I' for Inactive)
REMARK    1  A    between atoms: C3_2  and  N13_13 
REMARK    2  A    between atoms: C4_3  and  C7_9 
REMARK    3  A    between atoms: C5_4  and  C10_6 
REMARK    4  A    between atoms: C10_6  and  C11_7 
REMARK    5  A    between atoms: C7_9  and  C1_8 
REMARK    6  A    between atoms: C6_10  and  C7_11 
REMARK    7  A    between atoms: N13_13  and  C14_14 
REMARK    8  A    between atoms: N13_13  and  C15_15 
REMARK    9  A    between atoms: C15_15  and  C16_16 
REMARK   10  A    between atoms: C16_16  and  O17_17 
REMARK   11  A    between atoms: O17_17  and  C18_18 
REMARK   12  A    between atoms: C3_22  and  C8_23 
ROOT
ATOM      1  C2  357 d   1     144.025 -25.427  70.847  0.00  0.00     0.267 A 
ATOM      2  C3  357 d   1     144.972 -25.085  71.861  0.00  0.00     0.086 A 
ATOM      3  C4  357 d   1     144.762 -25.575  73.195  0.00  0.00    -0.019 A 
ATOM      4  C5  357 d   1     143.628 -26.419  73.476  0.00  0.00    -0.028 A 
ATOM      5  O8  357 d   1     144.170 -25.011  69.643  0.00  0.00    -0.266 OA
ATOM      6  C6  357 d   1     142.725 -26.708  72.399  0.00  0.00     0.015 A 
ATOM      7  N1  357 d   1     142.962 -26.217  71.144  0.00  0.00    -0.326 N 
ATOM      8  H11 357 d   1     142.322 -26.451  70.412  0.00  0.00     0.169 HD
ENDROOT
BRANCH   3   9
ATOM      9  C7  357 d   1     145.788 -25.193  74.287  0.00  0.00    -0.015 C 
ATOM     10  H6  357 d   1     146.693 -24.810  73.793  0.00  0.00     0.047 H 
ATOM     11  H7  357 d   1     146.038 -26.099  74.859  0.00  0.00     0.047 H 
BRANCH   9  12
ATOM     12  C1  357 d   1     145.280 -24.114  75.278  0.00  0.00    -0.053 A 
ATOM     13  C6  357 d   1     145.838 -24.087  76.574  0.00  0.00    -0.076 A 
ATOM     14  C5  357 d   1     145.423 -23.130  77.533  0.00  0.00    -0.082 A 
ATOM     15  H22 357 d   1     146.598 -24.812  76.841  0.00  0.00     0.084 H 
ATOM     16  C4  357 d   1     144.429 -22.179  77.194  0.00  0.00    -0.077 A 
ATOM     17  H23 357 d   1     145.865 -23.125  78.523  0.00  0.00     0.083 H 
ATOM     18  C3  357 d   1     143.852 -22.189  75.899  0.00  0.00    -0.061 A 
ATOM     19  H24 357 d   1     144.110 -21.444  77.924  0.00  0.00     0.084 H 
ATOM     20  C2  357 d   1     144.273 -23.151  74.938  0.00  0.00    -0.071 A 
ATOM     21  H28 357 d   1     143.832 -23.156  73.948  0.00  0.00     0.085 H 
BRANCH  18  22
ATOM     22  C8  357 d   1     142.787 -21.168  75.538  0.00  0.00    -0.051 C 
ATOM     23  H25 357 d   1     142.461 -21.330  74.500  0.00  0.00     0.033 H 
ATOM     24  H26 357 d   1     143.202 -20.154  75.638  0.00  0.00     0.033 H 
ATOM     25  H27 357 d   1     141.927 -21.280  76.215  0.00  0.00     0.033 H 
ENDBRANCH  18  22
ENDBRANCH   9  12
ENDBRANCH   3   9
BRANCH   2  26
ATOM     26  N13 357 d   1     146.104 -24.251  71.579  0.00  0.00    -0.281 NA
BRANCH  26  27
ATOM     27  C14 357 d   1     147.198 -24.889  70.846  0.00  0.00    -0.029 C 
ATOM     28  H12 357 d   1     148.007 -24.160  70.687  0.00  0.00     0.048 H 
ATOM     29  H13 357 d   1     146.829 -25.245  69.873  0.00  0.00     0.048 H 
ATOM     30  H14 357 d   1     147.581 -25.741  71.427  0.00  0.00     0.048 H 
ENDBRANCH  26  27
BRANCH  26  31
ATOM     31  C15 357 d   1     145.858 -22.962  70.852  0.00  0.00     0.003 C 
ATOM     32  H15 357 d   1     145.361 -23.180  69.895  0.00  0.00     0.059 H 
ATOM     33  H16 357 d   1     146.823 -22.469  70.660  0.00  0.00     0.059 H 
BRANCH  31  34
ATOM     34  C16 357 d   1     144.963 -22.011  71.678  0.00  0.00     0.030 C 
ATOM     35  H17 357 d   1     145.458 -21.781  72.633  0.00  0.00     0.076 H 
ATOM     36  H18 357 d   1     143.996 -22.498  71.874  0.00  0.00     0.076 H 
BRANCH  34  37
ATOM     37  O17 357 d   1     144.762 -20.892  71.008  0.00  0.00    -0.395 OA
BRANCH  37  38
ATOM     38  C18 357 d   1     144.065 -19.817  71.326  0.00  0.00     0.004 C 
ATOM     39  H19 357 d   1     144.131 -19.083  70.510  0.00  0.00     0.066 H 
ATOM     40  H20 357 d   1     144.471 -19.377  72.249  0.00  0.00     0.066 H 
ATOM     41  H21 357 d   1     143.013 -20.096  71.485  0.00  0.00     0.066 H 
ENDBRANCH  37  38
ENDBRANCH  34  37
ENDBRANCH  31  34
ENDBRANCH  26  31
ENDBRANCH   2  26
BRANCH   4  42
ATOM     42  C10 357 d   1     143.377 -26.983  74.894  0.00  0.00    -0.042 C 
ATOM     43  H1  357 d   1     144.327 -26.987  75.448  0.00  0.00     0.039 H 
ATOM     44  H2  357 d   1     143.000 -28.012  74.805  0.00  0.00     0.039 H 
BRANCH  42  45
ATOM     45  C11 357 d   1     142.351 -26.144  75.674  0.00  0.00    -0.073 C 
ATOM     46  H3  357 d   1     142.204 -26.580  76.673  0.00  0.00     0.028 H 
ATOM     47  H4  357 d   1     141.394 -26.139  75.132  0.00  0.00     0.028 H 
ATOM     48  H5  357 d   1     142.721 -25.113  75.775  0.00  0.00     0.028 H 
ENDBRANCH  42  45
ENDBRANCH   4  42
BRANCH   6  49
ATOM     49  C7  357 d   1     141.492 -27.579  72.594  0.00  0.00    -0.037 C 
ATOM     50  H8  357 d   1     140.950 -27.665  71.641  0.00  0.00     0.035 H 
ATOM     51  H9  357 d   1     140.836 -27.122  73.349  0.00  0.00     0.035 H 
ATOM     52  H10 357 d   1     141.799 -28.579  72.933  0.00  0.00     0.035 H 
ENDBRANCH   6  49
TORSDOF 12
