REMARK WARNING: 32 MAX_TORS EXCEEDED!!!
REMARK  53 active torsions:
REMARK  status: ('A' for Active; 'I' for Inactive)
REMARK    1  A    between atoms: N_1  and  CA_2 
REMARK    2  A    between atoms: CA_2  and  C_3 
REMARK    3  A    between atoms: CA_2  and  CB_5 
REMARK       I    between atoms: C_3  and  N_9 
REMARK    4  A    between atoms: CB_5  and  CG_6 
REMARK       I    between atoms: CG_6  and  ND2_8 
REMARK    5  A    between atoms: N_9  and  CA_10 
REMARK    6  A    between atoms: CA_10  and  C_11 
REMARK    7  A    between atoms: CA_10  and  CB_13 
REMARK       I    between atoms: C_11  and  N_21 
REMARK    8  A    between atoms: CB_13  and  CG_14 
REMARK    9  A    between atoms: CZ_19  and  OH_20 
REMARK   10  A    between atoms: N_21  and  CA_22 
REMARK   11  A    between atoms: CA_22  and  C_23 
REMARK   12  A    between atoms: CA_22  and  CB_25 
REMARK       I    between atoms: C_23  and  N_29 
REMARK   13  A    between atoms: CB_25  and  CG_26 
REMARK   14  A    between atoms: CG_26  and  CD1_27 
REMARK   15  A    between atoms: CG_26  and  CD2_28 
REMARK   16  A    between atoms: N_29  and  CA_30 
REMARK   17  A    between atoms: CA_30  and  C_31 
REMARK   18  A    between atoms: CA_30  and  CB_33 
REMARK       I    between atoms: C_31  and  N_40 
REMARK   19  A    between atoms: CB_33  and  CG_34 
REMARK   20  A    between atoms: N_40  and  CA_41 
REMARK   21  A    between atoms: CA_41  and  C_42 
REMARK   22  A    between atoms: CA_41  and  CB_44 
REMARK       I    between atoms: C_42  and  N_46 
REMARK   23  A    between atoms: CB_44  and  OG_45 
REMARK   24  A    between atoms: CA_47  and  C_48 
REMARK       I    between atoms: C_48  and  N_53 
REMARK   25  A    between atoms: N_53  and  CA_54 
REMARK   26  A    between atoms: CA_54  and  C_55 
REMARK   27  A    between atoms: CA_54  and  CB_57 
REMARK       I    between atoms: C_55  and  N_61 
REMARK   28  A    between atoms: CB_57  and  CG_58 
REMARK       I    between atoms: CG_58  and  ND2_60 
REMARK   29  A    between atoms: N_61  and  CA_62 
REMARK   30  A    between atoms: CA_62  and  C_63 
REMARK       I    between atoms: C_63  and  N_65 
REMARK   31  A    between atoms: CA_66  and  C_67 
REMARK       I    between atoms: C_67  and  N_72 
REMARK   32  A    between atoms: N_72  and  CA_73 
REMARK   33  A    between atoms: CA_73  and  C_74 
REMARK   34  A    between atoms: CA_73  and  CB_76 
REMARK       I    between atoms: C_74  and  N_80 
REMARK   35  A    between atoms: CB_76  and  CG1_77 
REMARK   36  A    between atoms: CB_76  and  CG2_78 
REMARK   37  A    between atoms: CG1_77  and  CD1_79 
REMARK   38  A    between atoms: N_80  and  CA_81 
REMARK   39  A    between atoms: CA_81  and  C_82 
REMARK   40  A    between atoms: CA_81  and  CB_84 
REMARK       I    between atoms: C_82  and  N_85 
REMARK   41  A    between atoms: N_85  and  CA_86 
REMARK   42  A    between atoms: CA_86  and  C_87 
REMARK   43  A    between atoms: CA_86  and  CB_89 
REMARK       I    between atoms: C_87  and  N_96 
REMARK   44  A    between atoms: CB_89  and  CG_90 
REMARK   45  A    between atoms: CG_90  and  CD_91 
REMARK   46  A    between atoms: CD_91  and  NE_92 
REMARK       I    between atoms: NE_92  and  CZ_93 
REMARK       I    between atoms: CZ_93  and  NH1_94 
REMARK       I    between atoms: CZ_93  and  NH2_95 
REMARK   47  A    between atoms: N_96  and  CA_97 
REMARK   48  A    between atoms: CA_97  and  C_98 
REMARK   49  A    between atoms: CA_97  and  CB_100 
REMARK       I    between atoms: C_98  and  N_101 
REMARK   50  A    between atoms: N_101  and  CA_102 
REMARK   51  A    between atoms: CA_102  and  C_103 
REMARK   52  A    between atoms: CA_102  and  CB_105 
REMARK   53  A    between atoms: CB_105  and  CG_106 
ROOT
ATOM      1  CA  ASN d   1      29.492  -4.932  41.731  0.00  0.00     0.097 C 
ATOM      2  H51 ASN d   1      29.410  -5.579  40.846  0.00  0.00     0.088 H 
ENDROOT
BRANCH   1   3
ATOM      3  N   ASN d   1      30.775  -4.192  41.649  0.00  0.00    -0.346 N 
ATOM      4  C   PRO d   1      31.580  -4.213  40.596  0.00  0.00     0.241 C 
ATOM      5  O   PRO d   1      31.274  -4.746  39.517  0.00  0.00    -0.271 OA
ATOM      6  H50 ASN d   1      31.050  -3.643  42.438  0.00  0.00     0.163 HD
BRANCH   4   7
ATOM      7  CA  PRO d   1      32.937  -3.529  40.740  0.00  0.00     0.091 C 
ATOM      8  N   PRO d   1      33.072  -2.697  41.933  0.00  0.00    -0.337 N 
ATOM      9  C   SER d   1      32.361  -1.569  41.975  0.00  0.00     0.245 C 
ATOM     10  CD  PRO d   1      33.986  -3.266  42.937  0.00  0.00    -0.001 C 
ATOM     11  O   SER d   1      31.716  -1.163  41.015  0.00  0.00    -0.271 OA
ATOM     12  CG  PRO d   1      34.304  -4.620  42.359  0.00  0.00    -0.048 C 
ATOM     13  H48 PRO d   1      33.493  -3.358  43.916  0.00  0.00     0.064 H 
ATOM     14  H49 PRO d   1      34.895  -2.654  43.039  0.00  0.00     0.064 H 
ATOM     15  CB  PRO d   1      34.024  -4.571  40.912  0.00  0.00    -0.036 C 
ATOM     16  H46 PRO d   1      35.365  -4.858  42.527  0.00  0.00     0.035 H 
ATOM     17  H47 PRO d   1      33.676  -5.387  42.836  0.00  0.00     0.035 H 
ATOM     18  H44 PRO d   1      34.927  -4.279  40.356  0.00  0.00     0.036 H 
ATOM     19  H45 PRO d   1      33.675  -5.551  40.555  0.00  0.00     0.036 H 
ATOM     20  H43 PRO d   1      33.119  -2.922  39.841  0.00  0.00     0.087 H 
BRANCH   9  21
ATOM     21  CA  SER d   1      32.354  -0.815  43.283  0.00  0.00     0.109 C 
ATOM     22  H39 SER d   1      33.265  -1.057  43.850  0.00  0.00     0.090 H 
BRANCH  21  23
ATOM     23  N   SER d   1      32.313   0.634  43.050  0.00  0.00    -0.344 N 
ATOM     24  C   PHE d   1      33.409   1.354  42.840  0.00  0.00     0.241 C 
ATOM     25  O   PHE d   1      34.543   0.859  42.665  0.00  0.00    -0.271 OA
ATOM     26  H38 SER d   1      31.426   1.096  43.049  0.00  0.00     0.163 HD
BRANCH  24  27
ATOM     27  CA  PHE d   1      33.196   2.870  42.869  0.00  0.00     0.093 C 
ATOM     28  H30 PHE d   1      32.710   3.126  43.822  0.00  0.00     0.088 H 
BRANCH  27  29
ATOM     29  N   PHE d   1      34.468   3.550  42.828  0.00  0.00    -0.346 N 
ATOM     30  C   LEU d   1      34.644   4.842  43.120  0.00  0.00     0.241 C 
ATOM     31  O   LEU d   1      33.722   5.567  43.408  0.00  0.00    -0.271 OA
ATOM     32  H29 PHE d   1      35.272   3.018  42.563  0.00  0.00     0.163 HD
BRANCH  30  33
ATOM     33  CA  LEU d   1      36.058   5.423  43.018  0.00  0.00     0.089 C 
ATOM     34  H19 LEU d   1      36.102   6.322  43.650  0.00  0.00     0.087 H 
BRANCH  33  35
ATOM     35  N   LEU d   1      37.069   4.470  43.518  0.00  0.00    -0.346 N 
ATOM     36  C   TYR d   1      37.770   4.696  44.618  0.00  0.00     0.241 C 
ATOM     37  O   TYR d   1      37.635   5.718  45.309  0.00  0.00    -0.271 OA
ATOM     38  H18 LEU d   1      37.230   3.625  43.008  0.00  0.00     0.163 HD
BRANCH  36  39
ATOM     39  CA  TYR d   1      38.768   3.592  45.047  0.00  0.00     0.093 C 
ATOM     40  H10 TYR d   1      38.774   2.793  44.291  0.00  0.00     0.088 H 
BRANCH  39  41
ATOM     41  N   TYR d   1      40.102   4.138  45.174  0.00  0.00    -0.346 N 
ATOM     42  C   ASN d   1      40.751   4.648  44.142  0.00  0.00     0.249 C 
ATOM     43  O   ASN d   1      40.322   4.556  42.972  0.00  0.00    -0.271 OA
ATOM     44  H9  TYR d   1      40.546   4.129  46.070  0.00  0.00     0.163 HD
BRANCH  42  45
ATOM     45  CA  ASN d   1      42.132   5.315  44.480  0.00  0.00     0.183 C 
ATOM     46  H4  ASN d   1      42.185   5.467  45.568  0.00  0.00     0.099 H 
BRANCH  45  47
ATOM     47  N   ASN d   1      43.164   4.352  44.085  0.00  0.00    -0.066 N 
ATOM     48  H1  ASN d   1      44.075   4.736  44.283  0.00  0.00     0.275 HD
ATOM     49  H2  ASN d   1      43.087   4.162  43.098  0.00  0.00     0.275 HD
ATOM     50  H3  ASN d   1      43.040   3.496  44.602  0.00  0.00     0.275 HD
ENDBRANCH  45  47
BRANCH  45  51
ATOM     51  CB  ASN d   1      42.356   6.696  43.809  0.00  0.00     0.044 C 
ATOM     52  H5  ASN d   1      42.125   6.604  42.738  0.00  0.00     0.051 H 
ATOM     53  H6  ASN d   1      43.413   6.976  43.933  0.00  0.00     0.051 H 
BRANCH  51  54
ATOM     54  CG  ASN d   1      41.459   7.847  44.417  0.00  0.00     0.217 C 
ATOM     55  OD1 ASN d   1      41.313   8.930  43.805  0.00  0.00    -0.274 OA
ATOM     56  ND2 ASN d   1      40.906   7.621  45.625  0.00  0.00    -0.370 N 
ATOM     57  H7  ASN d   1      40.331   8.320  46.050  0.00  0.00     0.159 HD
ATOM     58  H8  ASN d   1      41.071   6.755  46.096  0.00  0.00     0.159 HD
ENDBRANCH  51  54
ENDBRANCH  45  51
ENDBRANCH  42  45
ENDBRANCH  39  41
BRANCH  39  59
ATOM     59  CB  TYR d   1      38.321   3.012  46.410  0.00  0.00    -0.014 C 
ATOM     60  H11 TYR d   1      38.284   3.829  47.146  0.00  0.00     0.043 H 
ATOM     61  H12 TYR d   1      39.057   2.261  46.732  0.00  0.00     0.043 H 
BRANCH  59  62
ATOM     62  CG  TYR d   1      36.978   2.367  46.345  0.00  0.00    -0.056 A 
ATOM     63  CD1 TYR d   1      36.834   1.015  45.983  0.00  0.00    -0.074 A 
ATOM     64  CE1 TYR d   1      35.609   0.412  45.887  0.00  0.00    -0.051 A 
ATOM     65  H13 TYR d   1      37.723   0.431  45.773  0.00  0.00     0.084 H 
ATOM     66  CZ  TYR d   1      34.466   1.153  46.136  0.00  0.00     0.065 A 
ATOM     67  H15 TYR d   1      35.534  -0.636  45.619  0.00  0.00     0.087 H 
ATOM     68  CE2 TYR d   1      34.578   2.467  46.535  0.00  0.00    -0.051 A 
ATOM     69  CD2 TYR d   1      35.850   3.072  46.617  0.00  0.00    -0.074 A 
ATOM     70  H16 TYR d   1      33.690   3.035  46.786  0.00  0.00     0.087 H 
ATOM     71  H14 TYR d   1      35.928   4.115  46.901  0.00  0.00     0.084 H 
BRANCH  66  72
ATOM     72  OH  TYR d   1      33.203   0.611  46.080  0.00  0.00    -0.361 OA
ATOM     73  H17 TYR d   1      32.674   1.106  45.466  0.00  0.00     0.217 HD
ENDBRANCH  66  72
ENDBRANCH  59  62
ENDBRANCH  39  59
ENDBRANCH  36  39
ENDBRANCH  33  35
BRANCH  33  74
ATOM     74  CB  LEU d   1      36.358   5.844  41.576  0.00  0.00    -0.035 C 
ATOM     75  H20 LEU d   1      35.558   6.520  41.240  0.00  0.00     0.037 H 
ATOM     76  H21 LEU d   1      36.365   4.942  40.947  0.00  0.00     0.037 H 
BRANCH  74  77
ATOM     77  CG  LEU d   1      37.706   6.566  41.400  0.00  0.00    -0.059 C 
ATOM     78  H22 LEU d   1      38.483   5.900  41.804  0.00  0.00     0.038 H 
BRANCH  77  79
ATOM     79  CD1 LEU d   1      38.071   6.859  39.925  0.00  0.00    -0.073 C 
ATOM     80  H23 LEU d   1      39.042   7.373  39.883  0.00  0.00     0.028 H 
ATOM     81  H24 LEU d   1      37.297   7.499  39.476  0.00  0.00     0.028 H 
ATOM     82  H25 LEU d   1      38.133   5.913  39.368  0.00  0.00     0.028 H 
ENDBRANCH  77  79
BRANCH  77  83
ATOM     83  CD2 LEU d   1      37.740   7.822  42.173  0.00  0.00    -0.073 C 
ATOM     84  H26 LEU d   1      37.481   7.614  43.222  0.00  0.00     0.028 H 
ATOM     85  H27 LEU d   1      37.015   8.533  41.750  0.00  0.00     0.028 H 
ATOM     86  H28 LEU d   1      38.750   8.255  42.124  0.00  0.00     0.028 H 
ENDBRANCH  77  83
ENDBRANCH  74  77
ENDBRANCH  33  74
ENDBRANCH  30  33
ENDBRANCH  27  29
BRANCH  27  87
ATOM     87  CB  PHE d   1      32.261   3.320  41.740  0.00  0.00    -0.014 C 
ATOM     88  H31 PHE d   1      32.051   4.391  41.878  0.00  0.00     0.043 H 
ATOM     89  H32 PHE d   1      31.325   2.749  41.825  0.00  0.00     0.043 H 
BRANCH  87  90
ATOM     90  CG  PHE d   1      32.804   3.125  40.341  0.00  0.00    -0.056 A 
ATOM     91  CD1 PHE d   1      32.732   1.899  39.707  0.00  0.00    -0.077 A 
ATOM     92  CE1 PHE d   1      33.205   1.731  38.433  0.00  0.00    -0.082 A 
ATOM     93  H33 PHE d   1      32.293   1.055  40.228  0.00  0.00     0.084 H 
ATOM     94  CZ  PHE d   1      33.780   2.782  37.760  0.00  0.00    -0.083 A 
ATOM     95  H35 PHE d   1      33.125   0.763  37.952  0.00  0.00     0.083 H 
ATOM     96  CE2 PHE d   1      33.859   4.026  38.398  0.00  0.00    -0.082 A 
ATOM     97  H37 PHE d   1      34.165   2.651  36.755  0.00  0.00     0.083 H 
ATOM     98  CD2 PHE d   1      33.393   4.178  39.676  0.00  0.00    -0.077 A 
ATOM     99  H36 PHE d   1      34.291   4.873  37.877  0.00  0.00     0.083 H 
ATOM    100  H34 PHE d   1      33.489   5.138  40.170  0.00  0.00     0.084 H 
ENDBRANCH  87  90
ENDBRANCH  27  87
ENDBRANCH  24  27
ENDBRANCH  21  23
BRANCH  21 101
ATOM    101  CB  SER d   1      31.130  -1.272  44.071  0.00  0.00     0.044 C 
ATOM    102  H40 SER d   1      30.231  -0.851  43.597  0.00  0.00     0.077 H 
ATOM    103  H41 SER d   1      31.214  -0.893  45.100  0.00  0.00     0.077 H 
BRANCH 101 104
ATOM    104  OG  SER d   1      30.998  -2.680  44.118  0.00  0.00    -0.398 OA
ATOM    105  H42 SER d   1      31.766  -3.055  44.533  0.00  0.00     0.209 HD
ENDBRANCH 101 104
ENDBRANCH  21 101
ENDBRANCH   9  21
ENDBRANCH   4   7
ENDBRANCH   1   3
BRANCH   1 106
ATOM    106  C   ASN d   1      28.237  -4.087  41.834  0.00  0.00     0.241 C 
ATOM    107  O   ASN d   1      27.168  -4.630  42.127  0.00  0.00    -0.271 OA
ATOM    108  N   GLY d   1      28.353  -2.780  41.602  0.00  0.00    -0.351 N 
ATOM    109  H56 GLY d   1      29.232  -2.418  41.292  0.00  0.00     0.163 HD
BRANCH 108 110
ATOM    110  CA  GLY d   1      27.240  -1.867  41.787  0.00  0.00     0.069 C 
ATOM    111  H57 GLY d   1      27.594  -1.013  42.383  0.00  0.00     0.078 H 
ATOM    112  H58 GLY d   1      26.451  -2.398  42.340  0.00  0.00     0.078 H 
BRANCH 110 113
ATOM    113  C   GLY d   1      26.634  -1.327  40.500  0.00  0.00     0.238 C 
ATOM    114  O   GLY d   1      26.976  -1.786  39.415  0.00  0.00    -0.272 OA
ATOM    115  N   PRO d   1      25.668  -0.372  40.648  0.00  0.00    -0.337 N 
ATOM    116  CA  PRO d   1      24.922   0.150  39.495  0.00  0.00     0.091 C 
ATOM    117  CD  PRO d   1      25.168   0.179  41.919  0.00  0.00    -0.001 C 
ATOM    118  CB  PRO d   1      23.832   1.039  40.123  0.00  0.00    -0.036 C 
ATOM    119  H59 PRO d   1      24.469  -0.680  38.933  0.00  0.00     0.087 H 
ATOM    120  CG  PRO d   1      24.207   1.250  41.492  0.00  0.00    -0.048 C 
ATOM    121  H60 PRO d   1      22.856   0.535  40.071  0.00  0.00     0.036 H 
ATOM    122  H61 PRO d   1      23.776   2.001  39.593  0.00  0.00     0.036 H 
ATOM    123  H62 PRO d   1      23.310   1.212  42.128  0.00  0.00     0.035 H 
ATOM    124  H63 PRO d   1      24.687   2.235  41.593  0.00  0.00     0.035 H 
ATOM    125  H64 PRO d   1      25.991   0.605  42.512  0.00  0.00     0.064 H 
ATOM    126  H65 PRO d   1      24.655  -0.596  42.507  0.00  0.00     0.064 H 
BRANCH 116 127
ATOM    127  C   PRO d   1      25.785   0.975  38.546  0.00  0.00     0.241 C 
ATOM    128  O   PRO d   1      25.465   1.106  37.327  0.00  0.00    -0.271 OA
ATOM    129  N   ILE d   1      26.879   1.515  39.080  0.00  0.00    -0.346 N 
ATOM    130  H66 ILE d   1      27.060   1.419  40.059  0.00  0.00     0.163 HD
BRANCH 129 131
ATOM    131  CA  ILE d   1      27.809   2.245  38.233  0.00  0.00     0.092 C 
ATOM    132  H67 ILE d   1      27.223   2.951  37.626  0.00  0.00     0.088 H 
BRANCH 131 133
ATOM    133  C   ILE d   1      28.537   1.292  37.274  0.00  0.00     0.241 C 
ATOM    134  O   ILE d   1      28.541   1.482  36.048  0.00  0.00    -0.271 OA
ATOM    135  N   ALA d   1      29.140   0.239  37.826  0.00  0.00    -0.346 N 
ATOM    136  H77 ALA d   1      29.153   0.141  38.821  0.00  0.00     0.163 HD
BRANCH 135 137
ATOM    137  CA  ALA d   1      29.780  -0.769  36.994  0.00  0.00     0.086 C 
ATOM    138  H78 ALA d   1      30.599  -0.277  36.449  0.00  0.00     0.086 H 
BRANCH 137 139
ATOM    139  C   ALA d   1      28.824  -1.346  35.960  0.00  0.00     0.240 C 
ATOM    140  O   ALA d   1      29.225  -1.630  34.832  0.00  0.00    -0.271 OA
ATOM    141  N   ARG d   1      27.561  -1.517  36.327  0.00  0.00    -0.346 N 
ATOM    142  H82 ARG d   1      27.285  -1.256  37.252  0.00  0.00     0.163 HD
BRANCH 141 143
ATOM    143  CA  ARG d   1      26.561  -2.076  35.420  0.00  0.00     0.089 C 
ATOM    144  H83 ARG d   1      26.974  -3.008  35.006  0.00  0.00     0.087 H 
BRANCH 143 145
ATOM    145  C   ARG d   1      26.230  -1.161  34.240  0.00  0.00     0.241 C 
ATOM    146  O   ARG d   1      25.653  -1.639  33.230  0.00  0.00    -0.271 OA
ATOM    147  N   ALA d   1      26.604   0.119  34.320  0.00  0.00    -0.346 N 
ATOM    148  H95 ALA d   1      27.043   0.456  35.153  0.00  0.00     0.163 HD
BRANCH 147 149
ATOM    149  CA  ALA d   1      26.379   1.027  33.207  0.00  0.00     0.086 C 
ATOM    150  H96 ALA d   1      25.300   1.030  32.992  0.00  0.00     0.086 H 
BRANCH 149 151
ATOM    151  C   ALA d   1      27.116   0.545  31.945  0.00  0.00     0.240 C 
ATOM    152  O   ALA d   1      26.739   0.928  30.831  0.00  0.00    -0.271 OA
ATOM    153  N   TRP d   1      28.201  -0.210  32.113  0.00  0.00    -0.344 N 
ATOM    154 0H10 TRP d   1      28.467  -0.480  33.038  0.00  0.00     0.163 HD
BRANCH 153 155
ATOM    155  CA  TRP d   1      29.029  -0.663  30.961  0.00  0.00     0.100 C 
ATOM    156 1H10 TRP d   1      28.726  -0.082  30.077  0.00  0.00     0.090 H 
BRANCH 155 157
ATOM    157  C   TRP d   1      28.789  -2.129  30.653  0.00  0.00     0.197 C 
ATOM    158  O   TRP d   1      27.886  -2.719  31.246  0.00  0.00    -0.646 OA
ATOM    159  OXT TRP d   1      29.455  -2.730  29.780  0.00  0.00    -0.646 OA
ENDBRANCH 155 157
BRANCH 155 160
ATOM    160  CB  TRP d   1      30.512  -0.377  31.224  0.00  0.00    -0.011 C 
ATOM    161 2H10 TRP d   1      31.102  -0.700  30.354  0.00  0.00     0.044 H 
ATOM    162 3H10 TRP d   1      30.835  -0.936  32.114  0.00  0.00     0.044 H 
BRANCH 160 163
ATOM    163  CG  TRP d   1      30.735   1.086  31.454  0.00  0.00    -0.028 A 
ATOM    164  CD1 TRP d   1      30.644   2.082  30.537  0.00  0.00    -0.015 A 
ATOM    165  NE1 TRP d   1      30.878   3.297  31.130  0.00  0.00    -0.365 N 
ATOM    166 4H10 TRP d   1      30.418   1.938  29.482  0.00  0.00     0.112 H 
ATOM    167  CE2 TRP d   1      31.157   3.101  32.441  0.00  0.00     0.042 A 
ATOM    168 5H10 TRP d   1      30.847   4.210  30.655  0.00  0.00     0.165 HD
ATOM    169  CD2 TRP d   1      31.054   1.712  32.687  0.00  0.00    -0.002 A 
ATOM    170  CZ2 TRP d   1      31.436   4.021  33.447  0.00  0.00    -0.056 A 
ATOM    171  CE3 TRP d   1      31.324   1.238  33.966  0.00  0.00    -0.070 A 
ATOM    172  CZ3 TRP d   1      31.630   2.155  34.974  0.00  0.00    -0.082 A 
ATOM    173 6H10 TRP d   1      31.297   0.175  34.177  0.00  0.00     0.084 H 
ATOM    174  CH2 TRP d   1      31.684   3.531  34.707  0.00  0.00    -0.081 A 
ATOM    175 8H10 TRP d   1      31.829   1.798  35.978  0.00  0.00     0.083 H 
ATOM    176 9H10 TRP d   1      31.925   4.220  35.508  0.00  0.00     0.083 H 
ATOM    177 7H10 TRP d   1      31.457   5.086  33.244  0.00  0.00     0.086 H 
ENDBRANCH 160 163
ENDBRANCH 155 160
ENDBRANCH 153 155
ENDBRANCH 149 151
BRANCH 149 178
ATOM    178  CB  ALA d   1      26.790   2.447  33.534  0.00  0.00    -0.049 C 
ATOM    179  H97 ALA d   1      26.601   3.093  32.664  0.00  0.00     0.030 H 
ATOM    180  H98 ALA d   1      27.861   2.471  33.782  0.00  0.00     0.030 H 
ATOM    181  H99 ALA d   1      26.206   2.809  34.393  0.00  0.00     0.030 H 
ENDBRANCH 149 178
ENDBRANCH 147 149
ENDBRANCH 143 145
BRANCH 143 182
ATOM    182  CB  ARG d   1      25.282  -2.428  36.209  0.00  0.00    -0.036 C 
ATOM    183  H84 ARG d   1      24.465  -2.606  35.495  0.00  0.00     0.036 H 
ATOM    184  H85 ARG d   1      25.023  -1.579  36.858  0.00  0.00     0.036 H 
BRANCH 182 185
ATOM    185  CG  ARG d   1      25.452  -3.669  37.074  0.00  0.00    -0.048 C 
ATOM    186  H86 ARG d   1      26.050  -3.405  37.959  0.00  0.00     0.035 H 
ATOM    187  H87 ARG d   1      25.979  -4.438  36.491  0.00  0.00     0.035 H 
BRANCH 185 188
ATOM    188  CD  ARG d   1      24.111  -4.236  37.538  0.00  0.00     0.009 C 
ATOM    189  H88 ARG d   1      24.284  -5.219  38.001  0.00  0.00     0.064 H 
ATOM    190  H89 ARG d   1      23.455  -4.353  36.663  0.00  0.00     0.064 H 
BRANCH 188 191
ATOM    191  NE  ARG d   1      23.449  -3.370  38.509  0.00  0.00    -0.227 N 
ATOM    192  CZ  ARG d   1      23.639  -3.391  39.819  0.00  0.00     0.665 C 
ATOM    193  NH1 ARG d   1      24.528  -4.191  40.380  0.00  0.00    -0.235 N 
ATOM    194  NH2 ARG d   1      22.956  -2.547  40.580  0.00  0.00    -0.235 N 
ATOM    195  H91 ARG d   1      24.654  -4.185  41.402  0.00  0.00     0.174 HD
ATOM    196  H92 ARG d   1      25.096  -4.821  39.795  0.00  0.00     0.174 HD
ATOM    197  H93 ARG d   1      22.260  -1.918  40.155  0.00  0.00     0.174 HD
ATOM    198  H94 ARG d   1      23.121  -2.520  41.596  0.00  0.00     0.174 HD
ATOM    199  H90 ARG d   1      22.775  -2.683  38.143  0.00  0.00     0.177 HD
ENDBRANCH 188 191
ENDBRANCH 185 188
ENDBRANCH 182 185
ENDBRANCH 143 182
ENDBRANCH 141 143
ENDBRANCH 137 139
BRANCH 137 200
ATOM    200  CB  ALA d   1      30.387  -1.871  37.847  0.00  0.00    -0.049 C 
ATOM    201  H79 ALA d   1      30.863  -2.619  37.196  0.00  0.00     0.030 H 
ATOM    202  H80 ALA d   1      29.596  -2.353  38.441  0.00  0.00     0.030 H 
ATOM    203  H81 ALA d   1      31.141  -1.439  38.522  0.00  0.00     0.030 H 
ENDBRANCH 137 200
ENDBRANCH 135 137
ENDBRANCH 131 133
BRANCH 131 204
ATOM    204  CB  ILE d   1      28.824   3.071  39.067  0.00  0.00    -0.030 C 
ATOM    205  H68 ILE d   1      29.370   2.405  39.751  0.00  0.00     0.043 H 
BRANCH 204 206
ATOM    206  CG1 ILE d   1      28.068   4.139  39.872  0.00  0.00    -0.063 C 
ATOM    207  H69 ILE d   1      27.203   3.656  40.350  0.00  0.00     0.033 H 
ATOM    208  H70 ILE d   1      27.716   4.909  39.169  0.00  0.00     0.033 H 
BRANCH 206 209
ATOM    209  CD1 ILE d   1      28.870   4.820  40.943  0.00  0.00    -0.076 C 
ATOM    210  H74 ILE d   1      28.241   5.562  41.457  0.00  0.00     0.027 H 
ATOM    211  H75 ILE d   1      29.735   5.325  40.488  0.00  0.00     0.027 H 
ATOM    212  H76 ILE d   1      29.222   4.072  41.669  0.00  0.00     0.027 H 
ENDBRANCH 206 209
ENDBRANCH 204 206
BRANCH 204 213
ATOM    213  CG2 ILE d   1      29.799   3.761  38.136  0.00  0.00    -0.071 C 
ATOM    214  H71 ILE d   1      30.347   3.006  37.554  0.00  0.00     0.028 H 
ATOM    215  H72 ILE d   1      30.511   4.356  38.726  0.00  0.00     0.028 H 
ATOM    216  H73 ILE d   1      29.247   4.422  37.452  0.00  0.00     0.028 H 
ENDBRANCH 204 213
ENDBRANCH 131 204
ENDBRANCH 129 131
ENDBRANCH 116 127
ENDBRANCH 110 113
ENDBRANCH 108 110
ENDBRANCH   1 106
BRANCH   1 217
ATOM    217  CB  ASN d   1      29.523  -5.772  43.005  0.00  0.00     0.036 C 
ATOM    218  H52 ASN d   1      28.604  -6.375  43.052  0.00  0.00     0.051 H 
ATOM    219  H53 ASN d   1      29.563  -5.096  43.872  0.00  0.00     0.051 H 
BRANCH 217 220
ATOM    220  CG  ASN d   1      30.715  -6.702  43.061  0.00  0.00     0.217 C 
ATOM    221  OD1 ASN d   1      31.148  -7.225  42.045  0.00  0.00    -0.274 OA
ATOM    222  ND2 ASN d   1      31.240  -6.927  44.263  0.00  0.00    -0.370 N 
ATOM    223  H54 ASN d   1      32.029  -7.534  44.358  0.00  0.00     0.159 HD
ATOM    224  H55 ASN d   1      30.845  -6.489  45.071  0.00  0.00     0.159 HD
ENDBRANCH 217 220
ENDBRANCH   1 217
TORSDOF 53
