REMARK  14 active torsions:
REMARK  status: ('A' for Active; 'I' for Inactive)
REMARK    1  A    between atoms: C02_2  and  O01_1 
REMARK    2  A    between atoms: O01_1  and  C44_39 
REMARK       I    between atoms: NP4_4  and  C02_2 
REMARK    3  A    between atoms: C05_5  and  NP4_4 
REMARK    4  A    between atoms: C06_6  and  C05_5 
REMARK    5  A    between atoms: C05_5  and  C36_32 
REMARK    6  A    between atoms: C06_6  and  O07_7 
REMARK    7  A    between atoms: C08_8  and  C06_6 
REMARK    8  A    between atoms: C09_9  and  C08_8 
REMARK    9  A    between atoms: C09_9  and  C10_10 
REMARK   10  A    between atoms: C10_10  and  C11_11 
REMARK   11  A    between atoms: C19_19  and  C35_31 
REMARK   12  A    between atoms: C22_22  and  C49_21 
REMARK   13  A    between atoms: C49_21  and  C1_44 
REMARK   14  A    between atoms: C36_32  and  C37_33 
REMARK       I    between atoms: C1_44  and  N1_45 
ROOT
ATOM      1  C09 HH1 d   1      17.545  19.116   4.128  0.00  0.00     0.101 A 
ATOM      2  C17 HH1 d   1      18.386  19.458   5.379  0.00  0.00     0.186 A 
ATOM      3  O18 HH1 d   1      18.781  20.550   5.671  0.00  0.00    -0.290 OA
ATOM      4  N29 HH1 d   1      17.490  17.678   4.315  0.00  0.00    -0.382 N 
ATOM      5  C30 HH1 d   1      18.116  17.099   5.381  0.00  0.00    -0.016 A 
ATOM      6  C35 HH1 d   1      18.691  18.231   6.125  0.00  0.00     0.014 A 
ATOM      7  H24 HH1 d   1      16.977  17.092   3.641  0.00  0.00     0.160 HD
ATOM      8  H25 HH1 d   1      18.176  16.040   5.625  0.00  0.00     0.111 H 
ENDROOT
BRANCH   1   9
ATOM      9  C08 HH1 d   1      16.156  19.797   4.221  0.00  0.00    -0.009 C 
ATOM     10  H5  HH1 d   1      16.304  20.867   4.426  0.00  0.00     0.041 H 
ATOM     11  H6  HH1 d   1      15.641  19.676   3.256  0.00  0.00     0.041 H 
BRANCH   9  12
ATOM     12  C06 HH1 d   1      15.271  19.206   5.324  0.00  0.00     0.058 C 
ATOM     13  H3  HH1 d   1      15.900  18.614   6.005  0.00  0.00     0.086 H 
BRANCH  12  14
ATOM     14  C05 HH1 d   1      14.596  20.324   6.132  0.00  0.00     0.043 C 
ATOM     15  H2  HH1 d   1      15.374  21.007   6.503  0.00  0.00     0.077 H 
BRANCH  14  16
ATOM     16  NP4 HH1 d   1      13.654  21.086   5.295  0.00  0.00    -0.329 N 
ATOM     17  C02 HH1 d   1      13.904  22.352   4.925  0.00  0.00     0.361 C 
ATOM     18  O03 HH1 d   1      14.941  22.919   5.139  0.00  0.00    -0.238 OA
ATOM     19  H1  HH1 d   1      12.806  20.649   4.995  0.00  0.00     0.165 HD
BRANCH  17  20
ATOM     20  O01 HH1 d   1      12.876  22.932   4.310  0.00  0.00    -0.296 OA
BRANCH  20  21
ATOM     21  C44 HH1 d   1      13.037  24.334   3.977  0.00  0.00     0.072 C 
ATOM     22  C45 HH1 d   1      11.714  24.945   3.490  0.00  0.00     0.044 C 
ATOM     23  O46 HH1 d   1      11.453  24.364   2.183  0.00  0.00    -0.389 OA
ATOM     24  H34 HH1 d   1      11.806  26.038   3.409  0.00  0.00     0.078 H 
ATOM     25  H35 HH1 d   1      10.900  24.696   4.187  0.00  0.00     0.078 H 
ATOM     26  C47 HH1 d   1      12.708  24.205   1.501  0.00  0.00     0.022 C 
ATOM     27  C48 HH1 d   1      13.683  24.488   2.623  0.00  0.00    -0.018 C 
ATOM     28  H36 HH1 d   1      12.816  24.929   0.680  0.00  0.00     0.074 H 
ATOM     29  H37 HH1 d   1      12.828  23.184   1.109  0.00  0.00     0.074 H 
ATOM     30  H38 HH1 d   1      14.526  23.785   2.548  0.00  0.00     0.040 H 
ATOM     31  H39 HH1 d   1      14.055  25.518   2.521  0.00  0.00     0.040 H 
ATOM     32  H33 HH1 d   1      13.529  24.885   4.792  0.00  0.00     0.087 H 
ENDBRANCH  20  21
ENDBRANCH  17  20
ENDBRANCH  14  16
BRANCH  14  33
ATOM     33  C36 HH1 d   1      13.832  19.733   7.335  0.00  0.00    -0.020 C 
ATOM     34  H26 HH1 d   1      14.515  19.097   7.917  0.00  0.00     0.043 H 
ATOM     35  H27 HH1 d   1      12.992  19.127   6.965  0.00  0.00     0.043 H 
BRANCH  33  36
ATOM     36  C37 HH1 d   1      13.294  20.830   8.229  0.00  0.00    -0.056 A 
ATOM     37  C38 HH1 d   1      14.256  21.530   9.087  0.00  0.00    -0.077 A 
ATOM     38  C39 HH1 d   1      13.780  22.622   9.916  0.00  0.00    -0.082 A 
ATOM     39  H28 HH1 d   1      15.300  21.238   9.102  0.00  0.00     0.084 H 
ATOM     40  C40 HH1 d   1      12.367  22.977   9.837  0.00  0.00    -0.083 A 
ATOM     41  H29 HH1 d   1      14.454  23.158  10.574  0.00  0.00     0.083 H 
ATOM     42  C41 HH1 d   1      11.397  22.249   9.031  0.00  0.00    -0.082 A 
ATOM     43  H30 HH1 d   1      12.020  23.829  10.410  0.00  0.00     0.083 H 
ATOM     44  C42 HH1 d   1      11.871  21.147   8.210  0.00  0.00    -0.077 A 
ATOM     45  H31 HH1 d   1      10.348  22.522   9.043  0.00  0.00     0.083 H 
ATOM     46  H32 HH1 d   1      11.183  20.575   7.598  0.00  0.00     0.084 H 
ENDBRANCH  33  36
ENDBRANCH  14  33
ENDBRANCH  12  14
BRANCH  12  47
ATOM     47  O07 HH1 d   1      14.359  18.397   4.768  0.00  0.00    -0.393 OA
ATOM     48  H4  HH1 d   1      13.829  18.003   5.451  0.00  0.00     0.210 HD
ENDBRANCH  12  47
ENDBRANCH   9  12
ENDBRANCH   1   9
BRANCH   1  49
ATOM     49  C10 HH1 d   1      18.283  19.459   2.827  0.00  0.00    -0.011 C 
ATOM     50  H7  HH1 d   1      18.390  20.553   2.785  0.00  0.00     0.044 H 
ATOM     51  H8  HH1 d   1      17.655  19.119   1.990  0.00  0.00     0.044 H 
BRANCH  49  52
ATOM     52  C11 HH1 d   1      19.654  18.861   2.638  0.00  0.00    -0.055 A 
ATOM     53  C12 HH1 d   1      19.744  17.586   1.940  0.00  0.00    -0.077 A 
ATOM     54  C13 HH1 d   1      21.034  16.962   1.749  0.00  0.00    -0.082 A 
ATOM     55  H9  HH1 d   1      18.847  17.107   1.565  0.00  0.00     0.084 H 
ATOM     56  C14 HH1 d   1      22.207  17.645   2.272  0.00  0.00    -0.083 A 
ATOM     57  H10 HH1 d   1      21.124  16.014   1.232  0.00  0.00     0.083 H 
ATOM     58  C15 HH1 d   1      22.130  18.928   2.971  0.00  0.00    -0.082 A 
ATOM     59  H11 HH1 d   1      23.179  17.184   2.138  0.00  0.00     0.083 H 
ATOM     60  C16 HH1 d   1      20.836  19.564   3.147  0.00  0.00    -0.077 A 
ATOM     61  H12 HH1 d   1      23.029  19.399   3.353  0.00  0.00     0.083 H 
ATOM     62  H13 HH1 d   1      20.747  20.526   3.638  0.00  0.00     0.084 H 
ENDBRANCH  49  52
ENDBRANCH   1  49
BRANCH   6  63
ATOM     63  C19 HH1 d   1      19.438  18.228   7.456  0.00  0.00     0.003 C 
ATOM     64  C20 HH1 d   1      20.995  18.371   7.361  0.00  0.00    -0.046 C 
ATOM     65  C22 HH1 d   1      21.612  16.966   7.132  0.00  0.00    -0.019 C 
ATOM     66  H15 HH1 d   1      21.385  18.798   8.297  0.00  0.00     0.035 H 
ATOM     67  H16 HH1 d   1      21.255  19.031   6.520  0.00  0.00     0.035 H 
ATOM     68  C23 HH1 d   1      20.666  16.215   7.970  0.00  0.00    -0.046 A 
ATOM     69  H19 HH1 d   1      22.649  16.901   7.492  0.00  0.00     0.048 H 
ATOM     70  C24 HH1 d   1      20.930  14.941   8.615  0.00  0.00    -0.076 A 
ATOM     71  C28 HH1 d   1      19.415  16.905   8.127  0.00  0.00    -0.043 A 
ATOM     72  C25 HH1 d   1      19.852  14.399   9.409  0.00  0.00    -0.082 A 
ATOM     73  H20 HH1 d   1      21.879  14.428   8.507  0.00  0.00     0.084 H 
ATOM     74  C26 HH1 d   1      18.593  15.087   9.551  0.00  0.00    -0.082 A 
ATOM     75  H21 HH1 d   1      19.993  13.449   9.912  0.00  0.00     0.083 H 
ATOM     76  C27 HH1 d   1      18.324  16.355   8.908  0.00  0.00    -0.076 A 
ATOM     77  H22 HH1 d   1      17.819  14.637  10.162  0.00  0.00     0.083 H 
ATOM     78  H23 HH1 d   1      17.370  16.860   9.004  0.00  0.00     0.084 H 
ATOM     79  H14 HH1 d   1      19.006  19.015   8.092  0.00  0.00     0.055 H 
BRANCH  65  80
ATOM     80  C49 HH1 d   1      21.538  16.487   5.656  0.00  0.00     0.016 C 
ATOM     81  H17 HH1 d   1      22.249  17.077   5.059  0.00  0.00     0.048 H 
ATOM     82  H18 HH1 d   1      20.517  16.656   5.282  0.00  0.00     0.048 H 
BRANCH  80  83
ATOM     83  C1  HH1 d   1      21.878  15.004   5.497  0.00  0.00     0.215 C 
ATOM     84  N1  HH1 d   1      23.132  14.629   5.826  0.00  0.00    -0.370 N 
ATOM     85  H40 HH1 d   1      23.406  13.671   5.740  0.00  0.00     0.159 HD
ATOM     86  H41 HH1 d   1      23.787  15.309   6.155  0.00  0.00     0.159 HD
ATOM     87  O2  HH1 d   1      21.027  14.214   5.092  0.00  0.00    -0.274 OA
ENDBRANCH  80  83
ENDBRANCH  65  80
ENDBRANCH   6  63
TORSDOF 14
