REMARK  20 active torsions:
REMARK  status: ('A' for Active; 'I' for Inactive)
REMARK    1  A    between atoms: C1_2  and  C2_3 
REMARK    2  A    between atoms: N2_10  and  C6_11 
REMARK    3  A    between atoms: C7_12  and  C9_15 
REMARK    4  A    between atoms: C9_15  and  C10_16 
REMARK    5  A    between atoms: C12_20  and  C11_17 
REMARK    6  A    between atoms: C13_22  and  C15_25 
REMARK    7  A    between atoms: C16_26  and  C18_29 
REMARK    8  A    between atoms: C18_29  and  C19_30 
REMARK    9  A    between atoms: C18_29  and  C20_31 
REMARK   10  A    between atoms: C22_35  and  C23_36 
REMARK   11  A    between atoms: C24_37  and  C25_39 
REMARK   12  A    between atoms: C26_40  and  C27_41 
REMARK   13  A    between atoms: C27_41  and  C28_42 
REMARK   14  A    between atoms: C29_43  and  C30_44 
REMARK   15  A    between atoms: C30_44  and  C31_45 
REMARK   16  A    between atoms: C30_44  and  C32_46 
REMARK   17  A    between atoms: C32_46  and  O10_47 
REMARK   18  A    between atoms: C32_46  and  C34_49 
REMARK   19  A    between atoms: O10_47  and  C33_48 
REMARK   20  A    between atoms: C34_49  and  C35_50 
ROOT
ATOM      1  N1  FGA d   1      87.207  54.450  23.777  0.00  0.00    -0.346 N 
ATOM      2  C1  FGA d   1      86.693  55.706  23.180  0.00  0.00     0.096 C 
ATOM      3  C3  FGA d   1      87.022  56.923  24.093  0.00  0.00    -0.029 C 
ATOM      4  C4  FGA d   1      86.194  56.864  25.392  0.00  0.00     0.012 C 
ATOM      5  C5  FGA d   1      86.217  58.052  26.371  0.00  0.00     0.220 C 
ATOM      6  O2  FGA d   1      86.936  59.031  26.140  0.00  0.00    -0.273 OA
ATOM      7  H1  FGA d   1      87.386  54.417  24.760  0.00  0.00     0.163 HD
ATOM      8  H2  FGA d   1      87.208  55.849  22.218  0.00  0.00     0.089 H 
ATOM      9  H3  FGA d   1      86.786  57.853  23.555  0.00  0.00     0.037 H 
ATOM     10  H4  FGA d   1      88.093  56.907  24.345  0.00  0.00     0.037 H 
ATOM     11  H5  FGA d   1      86.543  55.984  25.952  0.00  0.00     0.047 H 
ATOM     12  H6  FGA d   1      85.145  56.717  25.094  0.00  0.00     0.047 H 
ATOM     13  N2  MDH d   1      85.358  57.916  27.424  0.00  0.00    -0.343 N 
ATOM     14  C7  MDH d   1      85.563  57.216  28.597  0.00  0.00     0.091 C 
ATOM     15  C8  MDH d   1      86.607  56.105  28.795  0.00  0.00     0.241 C 
ATOM     16  O4  MDH d   1      86.280  55.145  29.491  0.00  0.00    -0.271 OA
ATOM     17  H10 MDH d   1      85.940  58.040  29.221  0.00  0.00     0.087 H 
ATOM     18  C12 ACB d   1      88.739  55.046  28.510  0.00  0.00     0.107 C 
ATOM     19  N3  ACB d   1      87.809  56.172  28.265  0.00  0.00    -0.344 N 
ATOM     20  C13 ACB d   1      90.186  55.436  28.220  0.00  0.00     0.049 C 
ATOM     21  C14 ACB d   1      90.329  55.948  26.797  0.00  0.00     0.224 C 
ATOM     22  O7  ACB d   1      89.842  57.017  26.416  0.00  0.00    -0.273 OA
ATOM     23  H16 ACB d   1      88.662  54.760  29.569  0.00  0.00     0.090 H 
ATOM     24  H17 ACB d   1      88.086  56.959  27.714  0.00  0.00     0.163 HD
ATOM     25  H18 ACB d   1      90.797  54.526  28.308  0.00  0.00     0.058 H 
ATOM     26  C16 VAL d   1      91.315  55.294  24.618  0.00  0.00     0.092 C 
ATOM     27  C17 VAL d   1      90.616  54.249  23.672  0.00  0.00     0.241 C 
ATOM     28  O8  VAL d   1      90.446  54.485  22.472  0.00  0.00    -0.271 OA
ATOM     29  N4  VAL d   1      90.981  55.085  26.040  0.00  0.00    -0.347 N 
ATOM     30  H22 VAL d   1      91.009  56.295  24.279  0.00  0.00     0.088 H 
ATOM     31  H30 VAL d   1      91.270  54.226  26.462  0.00  0.00     0.163 HD
ATOM     32  C21 1ZN d   1      87.437  53.366  23.043  0.00  0.00     0.224 C 
ATOM     33  O9  1ZN d   1      87.249  53.323  21.839  0.00  0.00    -0.273 OA
ATOM     34  C22 1ZN d   1      87.982  52.135  23.768  0.00  0.00     0.043 C 
ATOM     35  C24 1ZN d   1      89.511  52.046  23.505  0.00  0.00     0.040 C 
ATOM     36  N5  1ZN d   1      90.188  53.126  24.247  0.00  0.00    -0.351 N 
ATOM     37  H31 1ZN d   1      87.832  52.269  24.849  0.00  0.00     0.057 H 
ATOM     38  H35 1ZN d   1      89.704  52.181  22.431  0.00  0.00     0.080 H 
ATOM     39  H36 1ZN d   1      90.333  53.010  25.230  0.00  0.00     0.163 HD
ENDROOT
BRANCH  35  40
ATOM     40  C25 1ZN d   1      90.008  50.662  23.922  0.00  0.00    -0.080 C 
ATOM     41  C26 1ZN d   1      90.922  49.903  23.198  0.00  0.00    -0.079 C 
ATOM     42  H38 1ZN d   1      91.341  50.303  22.276  0.00  0.00     0.083 H 
ATOM     43  H37 1ZN d   1      89.620  50.242  24.849  0.00  0.00     0.080 H 
BRANCH  41  44
ATOM     44  C27 1ZN d   1      91.311  48.629  23.640  0.00  0.00    -0.066 C 
ATOM     45  C29 1ZN d   1      92.244  47.901  22.895  0.00  0.00    -0.091 C 
ATOM     46  H42 1ZN d   1      92.666  48.346  21.995  0.00  0.00     0.078 H 
BRANCH  44  47
ATOM     47  C28 1ZN d   1      90.697  48.015  24.925  0.00  0.00    -0.051 C 
ATOM     48  H39 1ZN d   1      91.130  47.019  25.098  0.00  0.00     0.033 H 
ATOM     49  H40 1ZN d   1      89.607  47.925  24.804  0.00  0.00     0.033 H 
ATOM     50  H41 1ZN d   1      90.918  48.665  25.784  0.00  0.00     0.033 H 
ENDBRANCH  44  47
BRANCH  45  51
ATOM     51  C30 1ZN d   1      92.693  46.478  23.316  0.00  0.00    -0.015 C 
ATOM     52  H43 1ZN d   1      92.387  46.330  24.362  0.00  0.00     0.049 H 
BRANCH  51  53
ATOM     53  C31 1ZN d   1      94.237  46.467  23.331  0.00  0.00    -0.067 C 
ATOM     54  H44 1ZN d   1      94.604  47.300  23.948  0.00  0.00     0.028 H 
ATOM     55  H45 1ZN d   1      94.615  46.578  22.304  0.00  0.00     0.028 H 
ATOM     56  H46 1ZN d   1      94.593  45.515  23.752  0.00  0.00     0.028 H 
ENDBRANCH  51  53
BRANCH  51  57
ATOM     57  C32 1ZN d   1      91.884  45.363  22.485  0.00  0.00     0.048 C 
ATOM     58  H47 1ZN d   1      90.866  45.772  22.565  0.00  0.00     0.084 H 
BRANCH  57  59
ATOM     59  O10 1ZN d   1      92.084  45.358  21.019  0.00  0.00    -0.390 OA
BRANCH  59  60
ATOM     60  C33 1ZN d   1      93.275  44.923  20.398  0.00  0.00     0.004 C 
ATOM     61  H48 1ZN d   1      93.175  45.017  19.307  0.00  0.00     0.066 H 
ATOM     62  H49 1ZN d   1      93.462  43.871  20.660  0.00  0.00     0.066 H 
ATOM     63  H50 1ZN d   1      94.116  45.542  20.744  0.00  0.00     0.066 H 
ENDBRANCH  59  60
ENDBRANCH  57  59
BRANCH  57  64
ATOM     64  C34 1ZN d   1      91.650  43.854  23.096  0.00  0.00    -0.016 C 
ATOM     65  H51 1ZN d   1      90.840  43.935  23.835  0.00  0.00     0.043 H 
ATOM     66  H52 1ZN d   1      92.584  43.571  23.604  0.00  0.00     0.043 H 
BRANCH  64  67
ATOM     67  C35 1ZN d   1      91.267  42.635  22.126  0.00  0.00    -0.056 A 
ATOM     68  C36 1ZN d   1      90.553  42.732  20.905  0.00  0.00    -0.077 A 
ATOM     69  C37 1ZN d   1      90.294  41.589  20.120  0.00  0.00    -0.082 A 
ATOM     70  H53 1ZN d   1      90.200  43.700  20.569  0.00  0.00     0.084 H 
ATOM     71  C38 1ZN d   1      90.699  40.316  20.529  0.00  0.00    -0.083 A 
ATOM     72  H54 1ZN d   1      89.769  41.701  19.178  0.00  0.00     0.083 H 
ATOM     73  C39 1ZN d   1      91.398  40.186  21.727  0.00  0.00    -0.082 A 
ATOM     74  H55 1ZN d   1      90.473  39.445  19.925  0.00  0.00     0.083 H 
ATOM     75  C40 1ZN d   1      91.638  41.329  22.498  0.00  0.00    -0.077 A 
ATOM     76  H56 1ZN d   1      91.750  39.215  22.057  0.00  0.00     0.083 H 
ATOM     77  H57 1ZN d   1      92.145  41.200  23.448  0.00  0.00     0.084 H 
ENDBRANCH  64  67
ENDBRANCH  57  64
ENDBRANCH  51  57
ENDBRANCH  45  51
ENDBRANCH  41  44
ENDBRANCH  35  40
BRANCH  34  78
ATOM     78  C23 1ZN d   1      87.196  50.867  23.339  0.00  0.00    -0.062 C 
ATOM     79  H32 1ZN d   1      86.127  51.007  23.556  0.00  0.00     0.028 H 
ATOM     80  H33 1ZN d   1      87.572  49.996  23.896  0.00  0.00     0.028 H 
ATOM     81  H34 1ZN d   1      87.332  50.699  22.261  0.00  0.00     0.028 H 
ENDBRANCH  34  78
BRANCH  26  82
ATOM     82  C18 VAL d   1      92.857  55.233  24.768  0.00  0.00    -0.033 C 
ATOM     83  H23 VAL d   1      93.008  55.166  25.855  0.00  0.00     0.042 H 
BRANCH  82  84
ATOM     84  C19 VAL d   1      93.568  56.532  24.381  0.00  0.00    -0.071 C 
ATOM     85  H24 VAL d   1      94.653  56.410  24.514  0.00  0.00     0.028 H 
ATOM     86  H25 VAL d   1      93.210  57.351  25.022  0.00  0.00     0.028 H 
ATOM     87  H26 VAL d   1      93.352  56.769  23.329  0.00  0.00     0.028 H 
ENDBRANCH  82  84
BRANCH  82  88
ATOM     88  C20 VAL d   1      93.521  53.968  24.240  0.00  0.00    -0.071 C 
ATOM     89  H27 VAL d   1      92.945  53.089  24.565  0.00  0.00     0.028 H 
ATOM     90  H28 VAL d   1      94.546  53.901  24.633  0.00  0.00     0.028 H 
ATOM     91  H29 VAL d   1      93.551  54.001  23.141  0.00  0.00     0.028 H 
ENDBRANCH  82  88
ENDBRANCH  26  82
BRANCH   2  92
ATOM     92  C2  FGA d   1      85.166  55.672  22.897  0.00  0.00     0.196 C 
ATOM     93  O1  FGA d   1      84.794  56.268  21.858  0.00  0.00    -0.646 OA
ATOM     94  O3  FGA d   1      84.396  55.089  23.715  0.00  0.00    -0.646 OA
ENDBRANCH   2  92
BRANCH  20  95
ATOM     95  C15 ACB d   1      90.728  56.451  29.240  0.00  0.00    -0.062 C 
ATOM     96  H19 ACB d   1      91.770  56.701  28.991  0.00  0.00     0.028 H 
ATOM     97  H20 ACB d   1      90.687  56.015  30.249  0.00  0.00     0.028 H 
ATOM     98  H21 ACB d   1      90.115  57.364  29.210  0.00  0.00     0.028 H 
ENDBRANCH  20  95
BRANCH  18  99
ATOM     99  C11 ACB d   1      88.356  53.838  27.646  0.00  0.00     0.197 C 
ATOM    100  O5  ACB d   1      87.759  54.090  26.563  0.00  0.00    -0.646 OA
ATOM    101  O6  ACB d   1      88.651  52.714  28.097  0.00  0.00    -0.646 OA
ENDBRANCH  18  99
BRANCH  13 102
ATOM    102  C6  MDH d   1      83.974  58.360  27.100  0.00  0.00    -0.015 C 
ATOM    103  H7  MDH d   1      83.977  58.900  26.142  0.00  0.00     0.056 H 
ATOM    104  H8  MDH d   1      83.607  59.026  27.895  0.00  0.00     0.056 H 
ATOM    105  H9  MDH d   1      83.316  57.482  27.024  0.00  0.00     0.056 H 
ENDBRANCH  13 102
BRANCH  14 106
ATOM    106  C9  MDH d   1      84.528  56.647  29.377  0.00  0.00    -0.041 C 
ATOM    107  H11 MDH d   1      85.040  56.498  30.339  0.00  0.00     0.036 H 
ATOM    108  H12 MDH d   1      84.392  55.675  28.880  0.00  0.00     0.036 H 
BRANCH 106 109
ATOM    109  C10 MDH d   1      83.090  56.953  29.843  0.00  0.00    -0.074 C 
ATOM    110  H13 MDH d   1      82.724  56.127  30.471  0.00  0.00     0.027 H 
ATOM    111  H14 MDH d   1      82.436  57.064  28.966  0.00  0.00     0.027 H 
ATOM    112  H15 MDH d   1      83.084  57.886  30.425  0.00  0.00     0.027 H 
ENDBRANCH 106 109
ENDBRANCH  14 106
TORSDOF 20
