REMARK  9 active torsions:
REMARK  status: ('A' for Active; 'I' for Inactive)
REMARK    1  A    between atoms: C1A_2  and  C0A_1 
REMARK    2  A    between atoms: N9A_3  and  C1A_2 
REMARK    3  A    between atoms: CS4_31  and  C2A_6 
REMARK    4  A    between atoms: C6A_8  and  N6A_12 
REMARK    5  A    between atoms: N6A_12  and  CR1_13 
REMARK    6  A    between atoms: CR4_16  and  PA_19 
REMARK    7  A    between atoms: PA_19  and  CAB_22 
REMARK    8  A    between atoms: CAB_22  and  PB_23 
REMARK    9  A    between atoms: CS1_28  and  NS1_27 
ROOT
ATOM      1  N9A 24A d   1      10.301  17.059  -6.172  0.00  0.00    -0.324 N 
ATOM      2  C4A 24A d   1      10.490  16.327  -7.236  0.00  0.00     0.165 A 
ATOM      3  N3A 24A d   1       9.726  15.855  -8.222  0.00  0.00    -0.213 NA
ATOM      4  C2A 24A d   1      10.326  15.125  -9.164  0.00  0.00     0.135 A 
ATOM      5  N1A 24A d   1      11.644  14.862  -9.146  0.00  0.00    -0.213 NA
ATOM      6  C6A 24A d   1      12.505  15.297  -8.192  0.00  0.00     0.163 A 
ATOM      7  C5A 24A d   1      11.856  16.066  -7.205  0.00  0.00     0.150 A 
ATOM      8  N7A 24A d   1      12.419  16.630  -6.142  0.00  0.00    -0.236 NA
ATOM      9  C8A 24A d   1      11.424  17.261  -5.489  0.00  0.00     0.068 A 
ATOM     10  H6  24A d   1      11.522  17.833  -4.568  0.00  0.00     0.143 H 
ENDROOT
BRANCH   6  11
ATOM     11  N6A 24A d   1      13.842  15.024  -8.234  0.00  0.00    -0.339 N 
ATOM     12  H7  24A d   1      14.384  15.354  -7.423  0.00  0.00     0.167 HD
BRANCH  11  13
ATOM     13  CR1 24A d   1      14.568  14.375  -9.198  0.00  0.00     0.033 A 
ATOM     14  CR2 24A d   1      15.951  14.514  -9.122  0.00  0.00    -0.056 A 
ATOM     15  CR3 24A d   1      16.808  13.856 -10.038  0.00  0.00    -0.065 A 
ATOM     16  H8  24A d   1      16.381  15.138  -8.347  0.00  0.00     0.086 H 
ATOM     17  CR4 24A d   1      16.285  13.050 -11.050  0.00  0.00     0.031 A 
ATOM     18  H9  24A d   1      17.881  13.980  -9.952  0.00  0.00     0.085 H 
ATOM     19  CR5 24A d   1      14.900  12.911 -11.136  0.00  0.00    -0.065 A 
ATOM     20  CR6 24A d   1      14.049  13.571 -10.216  0.00  0.00    -0.056 A 
ATOM     21  H10 24A d   1      14.470  12.291 -11.915  0.00  0.00     0.085 H 
ATOM     22  H11 24A d   1      12.975  13.450 -10.303  0.00  0.00     0.086 H 
BRANCH  17  23
ATOM     23  PA  24A d   1      17.261  12.327 -12.067  0.00  0.00     0.153 P 
ATOM     24  OA1 24A d   1      18.568  12.957 -12.400  0.00  0.00    -0.664 OA
ATOM     25  OA2 24A d   1      16.650  11.884 -13.490  0.00  0.00    -0.664 OA
BRANCH  23  26
ATOM     26  CAB 24A d   1      17.768  10.940 -11.640  0.00  0.00     0.114 C 
ATOM     27  H12 24A d   1      16.827  10.375 -11.566  0.00  0.00     0.070 H 
ATOM     28  H13 24A d   1      18.152  11.148 -10.630  0.00  0.00     0.070 H 
BRANCH  26  29
ATOM     29  PB  24A d   1      18.762   9.830 -12.131  0.00  0.00     0.269 P 
ATOM     30  OB1 24A d   1      18.067   8.751 -12.915  0.00  0.00    -0.639 OA
ATOM     31  OB2 24A d   1      19.392   9.177 -10.772  0.00  0.00    -0.639 OA
ATOM     32  OB3 24A d   1      20.044  10.532 -12.900  0.00  0.00    -0.639 OA
ENDBRANCH  26  29
ENDBRANCH  23  26
ENDBRANCH  17  23
ENDBRANCH  11  13
ENDBRANCH   6  11
BRANCH   4  33
ATOM     33  CS4 24A d   1       9.453  14.578 -10.263  0.00  0.00     0.006 C 
ATOM     34  CS3 24A d   1      10.004  14.972 -11.643  0.00  0.00    -0.053 C 
ATOM     35  CS2 24A d   1       9.144  14.353 -12.756  0.00  0.00    -0.038 C 
ATOM     36  H20 24A d   1       9.990  16.068 -11.740  0.00  0.00     0.034 H 
ATOM     37  H21 24A d   1      11.038  14.609 -11.738  0.00  0.00     0.034 H 
ATOM     38  CS1 24A d   1       9.013  12.828 -12.580  0.00  0.00     0.100 C 
ATOM     39  H18 24A d   1       8.141  14.805 -12.727  0.00  0.00     0.036 H 
ATOM     40  H19 24A d   1       9.612  14.562 -13.729  0.00  0.00     0.036 H 
ATOM     41  CS6 24A d   1       8.428  12.488 -11.213  0.00  0.00    -0.038 C 
ATOM     42  H17 24A d   1      10.022  12.402 -12.682  0.00  0.00     0.083 H 
ATOM     43  CS5 24A d   1       9.315  13.063 -10.115  0.00  0.00    -0.053 C 
ATOM     44  H25 24A d   1       8.371  11.395 -11.102  0.00  0.00     0.036 H 
ATOM     45  H26 24A d   1       7.419  12.918 -11.130  0.00  0.00     0.036 H 
ATOM     46  H23 24A d   1       8.869  12.836  -9.136  0.00  0.00     0.034 H 
ATOM     47  H24 24A d   1      10.312  12.602 -10.179  0.00  0.00     0.034 H 
ATOM     48  H22 24A d   1       8.452  15.022 -10.160  0.00  0.00     0.052 H 
BRANCH  38  49
ATOM     49  NS1 24A d   1       8.111  12.116 -13.464  0.00  0.00    -0.075 N 
ATOM     50  H14 24A d   1       8.393  12.262 -14.421  0.00  0.00     0.274 HD
ATOM     51  H15 24A d   1       7.173  12.460 -13.335  0.00  0.00     0.274 HD
ATOM     52  H16 24A d   1       8.140  11.131 -13.251  0.00  0.00     0.274 HD
ENDBRANCH  38  49
ENDBRANCH   4  33
BRANCH   1  53
ATOM     53  C1A 24A d   1       8.973  17.569  -5.834  0.00  0.00    -0.001 C 
ATOM     54  H4  24A d   1       8.236  16.756  -5.918  0.00  0.00     0.064 H 
ATOM     55  H5  24A d   1       8.980  17.953  -4.803  0.00  0.00     0.064 H 
BRANCH  53  56
ATOM     56  C0A 24A d   1       8.602  18.684  -6.783  0.00  0.00    -0.061 C 
ATOM     57  H1  24A d   1       7.603  19.066  -6.527  0.00  0.00     0.029 H 
ATOM     58  H2  24A d   1       8.595  18.301  -7.814  0.00  0.00     0.029 H 
ATOM     59  H3  24A d   1       9.338  19.497  -6.699  0.00  0.00     0.029 H 
ENDBRANCH  53  56
ENDBRANCH   1  53
TORSDOF 9
