REMARK  10 active torsions:
REMARK  status: ('A' for Active; 'I' for Inactive)
REMARK    1  A    between atoms: N9A_1  and  C1A_11 
REMARK    2  A    between atoms: C6A_5  and  N6A_6 
REMARK    3  A    between atoms: N6A_6  and  CR1_20 
REMARK    4  A    between atoms: C2A_8  and  CS1_30 
REMARK    5  A    between atoms: C1A_11  and  CT0_12 
REMARK    6  A    between atoms: CT0_12  and  CT1_13 
REMARK    7  A    between atoms: CT5_17  and  OH_19 
REMARK    8  A    between atoms: CR4_23  and  PA_26 
REMARK    9  A    between atoms: PA_26  and  CA2_28 
REMARK   10  A    between atoms: PA_26  and  CA3_29 
ROOT
ATOM      1  N9A HET d   1      17.069   2.140  26.105  0.00  0.00    -0.324 N 
ATOM      2  C8A HET d   1      18.197   1.435  26.248  0.00  0.00     0.068 A 
ATOM      3  N7A HET d   1      19.117   2.255  25.763  0.00  0.00    -0.236 NA
ATOM      4  C5A HET d   1      18.650   3.530  25.277  0.00  0.00     0.150 A 
ATOM      5  C6A HET d   1      19.121   4.711  24.717  0.00  0.00     0.163 A 
ATOM      6  N1A HET d   1      18.223   5.664  24.423  0.00  0.00    -0.213 NA
ATOM      7  C2A HET d   1      16.894   5.603  24.616  0.00  0.00     0.135 A 
ATOM      8  N3A HET d   1      16.371   4.483  25.172  0.00  0.00    -0.213 NA
ATOM      9  C4A HET d   1      17.160   3.438  25.518  0.00  0.00     0.165 A 
ATOM     10  H1  HET d   1      18.326   0.435  26.661  0.00  0.00     0.143 H 
ENDROOT
BRANCH   5  11
ATOM     11  N6A HET d   1      20.428   4.838  24.516  0.00  0.00    -0.339 N 
ATOM     12  H2  HET d   1      20.963   3.999  24.782  0.00  0.00     0.167 HD
BRANCH  11  13
ATOM     13  CR1 HET d   1      21.146   5.759  24.073  0.00  0.00     0.033 A 
ATOM     14  CR2 HET d   1      22.551   5.741  23.912  0.00  0.00    -0.056 A 
ATOM     15  CR3 HET d   1      23.215   6.862  23.424  0.00  0.00    -0.067 A 
ATOM     16  H12 HET d   1      23.113   4.850  24.170  0.00  0.00     0.086 H 
ATOM     17  CR4 HET d   1      22.478   8.023  23.091  0.00  0.00     0.004 A 
ATOM     18  H13 HET d   1      24.292   6.846  23.299  0.00  0.00     0.085 H 
ATOM     19  CR5 HET d   1      21.078   8.072  23.236  0.00  0.00    -0.067 A 
ATOM     20  CR6 HET d   1      20.409   6.945  23.727  0.00  0.00    -0.056 A 
ATOM     21  H14 HET d   1      20.528   8.968  22.972  0.00  0.00     0.085 H 
ATOM     22  H15 HET d   1      19.332   6.966  23.847  0.00  0.00     0.086 H 
BRANCH  17  23
ATOM     23  PA  HET d   1      23.333   9.487  22.477  0.00  0.00     0.101 P 
ATOM     24  OA1 HET d   1      24.363   9.791  23.595  0.00  0.00    -0.318 OA
BRANCH  23  25
ATOM     25  CA2 HET d   1      23.943   8.939  21.158  0.00  0.00    -0.022 C 
ATOM     26  H16 HET d   1      24.509   9.738  20.657  0.00  0.00     0.038 H 
ATOM     27  H17 HET d   1      23.135   8.592  20.497  0.00  0.00     0.038 H 
ATOM     28  H18 HET d   1      24.616   8.100  21.386  0.00  0.00     0.038 H 
ENDBRANCH  23  25
BRANCH  23  29
ATOM     29  CA3 HET d   1      22.383  10.610  22.184  0.00  0.00    -0.022 C 
ATOM     30  H19 HET d   1      22.946  11.479  21.813  0.00  0.00     0.038 H 
ATOM     31  H20 HET d   1      21.846  10.886  23.104  0.00  0.00     0.038 H 
ATOM     32  H21 HET d   1      21.660  10.289  21.420  0.00  0.00     0.038 H 
ENDBRANCH  23  29
ENDBRANCH  17  23
ENDBRANCH  11  13
ENDBRANCH   5  11
BRANCH   7  33
ATOM     33  CS1 HET d   1      15.951   6.686  24.255  0.00  0.00     0.006 C 
ATOM     34  CS2 HET d   1      16.252   7.162  22.793  0.00  0.00    -0.055 C 
ATOM     35  CS3 HET d   1      16.299   8.698  22.783  0.00  0.00    -0.064 C 
ATOM     36  H23 HET d   1      15.459   6.810  22.117  0.00  0.00     0.034 H 
ATOM     37  H24 HET d   1      17.221   6.759  22.463  0.00  0.00     0.034 H 
ATOM     38  CS4 HET d   1      16.022   9.162  24.213  0.00  0.00    -0.064 C 
ATOM     39  H25 HET d   1      15.532   9.095  22.102  0.00  0.00     0.033 H 
ATOM     40  H26 HET d   1      17.292   9.044  22.459  0.00  0.00     0.033 H 
ATOM     41  CS5 HET d   1      16.069   7.931  25.154  0.00  0.00    -0.055 C 
ATOM     42  H27 HET d   1      15.027   9.629  24.264  0.00  0.00     0.033 H 
ATOM     43  H28 HET d   1      16.786   9.892  24.520  0.00  0.00     0.033 H 
ATOM     44  H29 HET d   1      17.020   7.912  25.706  0.00  0.00     0.034 H 
ATOM     45  H30 HET d   1      15.232   7.966  25.866  0.00  0.00     0.034 H 
ATOM     46  H22 HET d   1      14.926   6.293  24.319  0.00  0.00     0.052 H 
ENDBRANCH   7  33
BRANCH   1  47
ATOM     47  C1A HET d   1      15.722   1.718  26.503  0.00  0.00     0.006 C 
ATOM     48  H3  HET d   1      15.794   0.718  26.955  0.00  0.00     0.065 H 
ATOM     49  H4  HET d   1      15.096   1.668  25.600  0.00  0.00     0.065 H 
BRANCH  47  50
ATOM     50  CT0 HET d   1      15.072   2.608  27.462  0.00  0.00    -0.026 C 
ATOM     51  H5  HET d   1      14.966   3.609  27.019  0.00  0.00     0.042 H 
ATOM     52  H6  HET d   1      15.683   2.673  28.374  0.00  0.00     0.042 H 
BRANCH  50  53
ATOM     53  CT1 HET d   1      13.677   2.052  27.816  0.00  0.00    -0.054 A 
ATOM     54  CT2 HET d   1      13.400   1.713  29.192  0.00  0.00    -0.077 A 
ATOM     55  CT3 HET d   1      12.103   1.183  29.546  0.00  0.00    -0.080 A 
ATOM     56  H7  HET d   1      14.159   1.855  29.953  0.00  0.00     0.084 H 
ATOM     57  CT4 HET d   1      11.100   0.998  28.523  0.00  0.00    -0.051 A 
ATOM     58  H8  HET d   1      11.883   0.925  30.576  0.00  0.00     0.083 H 
ATOM     59  CT5 HET d   1      11.366   1.333  27.151  0.00  0.00     0.066 A 
ATOM     60  H9  HET d   1      10.129   0.599  28.795  0.00  0.00     0.087 H 
ATOM     61  CT6 HET d   1      12.651   1.859  26.793  0.00  0.00    -0.045 A 
ATOM     62  H10 HET d   1      12.862   2.114  25.761  0.00  0.00     0.088 H 
BRANCH  59  63
ATOM     63  OH  HET d   1      10.409   1.150  26.208  0.00  0.00    -0.361 OA
ATOM     64  H11 HET d   1       9.627   0.797  26.616  0.00  0.00     0.217 HD
ENDBRANCH  59  63
ENDBRANCH  50  53
ENDBRANCH  47  50
ENDBRANCH   1  47
TORSDOF 10
