REMARK  18 active torsions:
REMARK  status: ('A' for Active; 'I' for Inactive)
REMARK    1  A    between atoms: C1_1  and  C2_2 
REMARK    2  A    between atoms: C2_2  and  C3_3 
REMARK    3  A    between atoms: C3_3  and  C4_4 
REMARK    4  A    between atoms: C4_4  and  C5_5 
REMARK    5  A    between atoms: C5_5  and  N1_6 
REMARK    6  A    between atoms: C5_5  and  C19_27 
REMARK       I    between atoms: N1_6  and  C6_7 
REMARK    7  A    between atoms: C6_7  and  O2_9 
REMARK    8  A    between atoms: O2_9  and  C7_10 
REMARK       I    between atoms: N2_12  and  C13_17 
REMARK    9  A    between atoms: C10_14  and  C11_15 
REMARK   10  A    between atoms: C10_14  and  C12_16 
REMARK       I    between atoms: C13_17  and  N3_19 
REMARK   11  A    between atoms: N3_19  and  C14_20 
REMARK   12  A    between atoms: C15_21  and  C16_22 
REMARK   13  A    between atoms: C17_25  and  C18_26 
REMARK   14  A    between atoms: C19_27  and  O5_28 
REMARK   15  A    between atoms: C19_27  and  C20_29 
REMARK       I    between atoms: C20_29  and  N5_31 
REMARK   16  A    between atoms: N5_31  and  C21_32 
REMARK   17  A    between atoms: C21_32  and  C22_33 
REMARK   18  A    between atoms: C21_32  and  C23_34 
ROOT
ATOM      1  C5  4PR d   1      77.754  95.261 164.921  0.00  0.00     0.047 C 
ATOM      2  H10 4PR d   1      77.287  95.241 165.917  0.00  0.00     0.077 H 
ENDROOT
BRANCH   1   3
ATOM      3  C4  4PR d   1      76.967  94.440 163.922  0.00  0.00    -0.043 C 
ATOM      4  H8  4PR d   1      77.328  94.663 162.907  0.00  0.00     0.036 H 
ATOM      5  H9  4PR d   1      77.115  93.371 164.137  0.00  0.00     0.036 H 
BRANCH   3   6
ATOM      6  C3  4PR d   1      75.497  94.763 164.006  0.00  0.00    -0.063 C 
ATOM      7  H6  4PR d   1      75.063  94.281 164.894  0.00  0.00     0.033 H 
ATOM      8  H7  4PR d   1      75.361  95.852 164.077  0.00  0.00     0.033 H 
BRANCH   6   9
ATOM      9  C2  4PR d   1      74.814  94.247 162.765  0.00  0.00    -0.068 C 
ATOM     10  H4  4PR d   1      74.414  95.092 162.185  0.00  0.00     0.032 H 
ATOM     11  H5  4PR d   1      75.537  93.690 162.151  0.00  0.00     0.032 H 
BRANCH   9  12
ATOM     12  C1  4PR d   1      73.688  93.336 163.171  0.00  0.00    -0.077 C 
ATOM     13  H1  4PR d   1      73.183  92.954 162.272  0.00  0.00     0.027 H 
ATOM     14  H2  4PR d   1      72.968  93.895 163.786  0.00  0.00     0.027 H 
ATOM     15  H3  4PR d   1      74.090  92.493 163.752  0.00  0.00     0.027 H 
ENDBRANCH   9  12
ENDBRANCH   6   9
ENDBRANCH   3   6
ENDBRANCH   1   3
BRANCH   1  16
ATOM     16  N1  4PR d   1      77.860  96.596 164.388  0.00  0.00    -0.329 N 
ATOM     17  C6  4PR d   1      77.386  97.691 165.067  0.00  0.00     0.361 C 
ATOM     18  O1  4PR d   1      76.781  97.685 166.128  0.00  0.00    -0.238 OA
ATOM     19  H11 4PR d   1      78.292  96.729 163.496  0.00  0.00     0.165 HD
BRANCH  17  20
ATOM     20  O2  4PR d   1      77.708  98.808 164.368  0.00  0.00    -0.296 OA
BRANCH  20  21
ATOM     21  C7  4PR d   1      77.231 100.013 164.950  0.00  0.00     0.073 C 
ATOM     22  C8  4PR d   1      75.837 100.255 164.424  0.00  0.00     0.025 C 
ATOM     23  N2  4PR d   1      76.030 101.107 163.286  0.00  0.00    -0.331 N 
ATOM     24  H13 4PR d   1      75.215 100.753 165.183  0.00  0.00     0.068 H 
ATOM     25  H14 4PR d   1      75.363  99.308 164.126  0.00  0.00     0.068 H 
ATOM     26  C9  4PR d   1      77.338 101.704 163.227  0.00  0.00     0.008 C 
ATOM     27  C13 4PR d   1      74.990 101.414 162.437  0.00  0.00     0.323 C 
ATOM     28  C10 4PR d   1      78.074 101.161 164.433  0.00  0.00    -0.003 C 
ATOM     29  H15 4PR d   1      77.265 102.800 163.281  0.00  0.00     0.065 H 
ATOM     30  H16 4PR d   1      77.853 101.416 162.298  0.00  0.00     0.065 H 
ATOM     31  O3  4PR d   1      73.835 101.058 162.640  0.00  0.00    -0.247 OA
ATOM     32  N3  4PR d   1      75.387 102.156 161.350  0.00  0.00    -0.305 N 
ATOM     33  H23 4PR d   1      76.170 102.774 161.424  0.00  0.00     0.171 HD
ATOM     34  H12 4PR d   1      77.249  99.960 166.049  0.00  0.00     0.088 H 
BRANCH  28  35
ATOM     35  C11 4PR d   1      78.203 102.249 165.476  0.00  0.00    -0.065 C 
ATOM     36  H17 4PR d   1      78.738 101.855 166.353  0.00  0.00     0.028 H 
ATOM     37  H18 4PR d   1      77.201 102.587 165.779  0.00  0.00     0.028 H 
ATOM     38  H19 4PR d   1      78.764 103.096 165.055  0.00  0.00     0.028 H 
ENDBRANCH  28  35
BRANCH  28  39
ATOM     39  C12 4PR d   1      79.458 100.689 164.053  0.00  0.00    -0.065 C 
ATOM     40  H20 4PR d   1      79.380  99.897 163.294  0.00  0.00     0.028 H 
ATOM     41  H21 4PR d   1      79.968 100.294 164.944  0.00  0.00     0.028 H 
ATOM     42  H22 4PR d   1      80.034 101.532 163.644  0.00  0.00     0.028 H 
ENDBRANCH  28  39
BRANCH  32  43
ATOM     43  C14 4PR d   1      74.704 102.047 160.156  0.00  0.00     0.094 A 
ATOM     44  C15 4PR d   1      74.645 100.952 159.260  0.00  0.00     0.087 A 
ATOM     45  N4  4PR d   1      73.875 101.231 158.202  0.00  0.00    -0.131 NA
ATOM     46  O4  4PR d   1      73.418 102.533 158.403  0.00  0.00    -0.216 OA
ATOM     47  C17 4PR d   1      73.920 103.014 159.574  0.00  0.00     0.103 A 
BRANCH  44  48
ATOM     48  C16 4PR d   1      75.300  99.642 159.368  0.00  0.00    -0.031 C 
ATOM     49  H24 4PR d   1      75.038  99.028 158.494  0.00  0.00     0.035 H 
ATOM     50  H25 4PR d   1      74.962  99.137 160.285  0.00  0.00     0.035 H 
ATOM     51  H26 4PR d   1      76.391  99.779 159.406  0.00  0.00     0.035 H 
ENDBRANCH  44  48
BRANCH  47  52
ATOM     52  C18 4PR d   1      73.543 104.385 159.952  0.00  0.00    -0.027 C 
ATOM     53  H27 4PR d   1      72.884 104.810 159.181  0.00  0.00     0.036 H 
ATOM     54  H28 4PR d   1      74.449 105.003 160.041  0.00  0.00     0.036 H 
ATOM     55  H29 4PR d   1      73.015 104.367 160.917  0.00  0.00     0.036 H 
ENDBRANCH  47  52
ENDBRANCH  32  43
ENDBRANCH  20  21
ENDBRANCH  17  20
ENDBRANCH   1  16
BRANCH   1  56
ATOM     56  C19 4PR d   1      79.175  94.764 164.949  0.00  0.00     0.131 C 
ATOM     57  H30 4PR d   1      79.604  95.208 165.859  0.00  0.00     0.101 H 
BRANCH  56  58
ATOM     58  O5  4PR d   1      80.029  95.187 163.900  0.00  0.00    -0.384 OA
ATOM     59  H31 4PR d   1      80.893  94.812 164.025  0.00  0.00     0.210 HD
ENDBRANCH  56  58
BRANCH  56  60
ATOM     60  C20 4PR d   1      79.264  93.273 165.139  0.00  0.00     0.249 C 
ATOM     61  O6  4PR d   1      78.812  92.764 166.154  0.00  0.00    -0.271 OA
ATOM     62  N5  4PR d   1      79.863  92.627 164.076  0.00  0.00    -0.351 N 
ATOM     63  H32 4PR d   1      80.206  93.168 163.308  0.00  0.00     0.163 HD
BRANCH  62  64
ATOM     64  C21 4PR d   1      80.008  91.184 164.045  0.00  0.00     0.034 C 
ATOM     65  H33 4PR d   1      80.484  90.875 164.987  0.00  0.00     0.079 H 
BRANCH  64  66
ATOM     66  C22 4PR d   1      80.894  90.762 162.896  0.00  0.00    -0.053 C 
ATOM     67  H34 4PR d   1      80.991  89.666 162.891  0.00  0.00     0.030 H 
ATOM     68  H35 4PR d   1      81.888  91.217 163.013  0.00  0.00     0.030 H 
ATOM     69  H36 4PR d   1      80.448  91.095 161.947  0.00  0.00     0.030 H 
ENDBRANCH  64  66
BRANCH  64  70
ATOM     70  C23 4PR d   1      78.702  90.469 163.927  0.00  0.00    -0.036 A 
ATOM     71  C24 4PR d   1      78.501  89.298 164.627  0.00  0.00    -0.075 A 
ATOM     72  C25 4PR d   1      77.304  88.624 164.530  0.00  0.00    -0.082 A 
ATOM     73  H37 4PR d   1      79.290  88.906 165.258  0.00  0.00     0.084 H 
ATOM     74  C26 4PR d   1      76.297  89.120 163.733  0.00  0.00    -0.083 A 
ATOM     75  H38 4PR d   1      77.155  87.703 165.081  0.00  0.00     0.083 H 
ATOM     76  C27 4PR d   1      76.493  90.287 163.032  0.00  0.00    -0.082 A 
ATOM     77  H39 4PR d   1      75.353  88.593 163.658  0.00  0.00     0.083 H 
ATOM     78  C28 4PR d   1      77.691  90.959 163.127  0.00  0.00    -0.075 A 
ATOM     79  H40 4PR d   1      75.702  90.679 162.403  0.00  0.00     0.083 H 
ATOM     80  H41 4PR d   1      77.840  91.877 162.571  0.00  0.00     0.084 H 
ENDBRANCH  64  70
ENDBRANCH  62  64
ENDBRANCH  56  60
ENDBRANCH   1  56
TORSDOF 18
