REMARK  11 active torsions:
REMARK  status: ('A' for Active; 'I' for Inactive)
REMARK    1  A    between atoms: C2_2  and  S5_5 
REMARK    2  A    between atoms: S5_5  and  N10_10 
REMARK    3  A    between atoms: N10_10  and  C15_15 
REMARK    4  A    between atoms: C16_16  and  O19_19 
REMARK    5  A    between atoms: C18_18  and  C22_22 
REMARK    6  A    between atoms: C21_21  and  C23_23 
REMARK    7  A    between atoms: C22_22  and  C24_24 
REMARK       I    between atoms: C24_24  and  N25_25 
REMARK    8  A    between atoms: N25_25  and  C27_27 
REMARK    9  A    between atoms: C27_27  and  C28_28 
REMARK   10  A    between atoms: C33_33  and  C34_34 
REMARK   11  A    between atoms: C34_34  and  N35_35 
ROOT
ATOM      1  C15 UNB d   1      18.929 -14.679  22.262  0.00  0.00     0.076 A 
ATOM      2  C16 UNB d   1      18.336 -13.495  21.822  0.00  0.00     0.100 A 
ATOM      3  C17 UNB d   1      20.239 -14.973  21.850  0.00  0.00    -0.053 A 
ATOM      4  C18 UNB d   1      19.035 -12.641  20.982  0.00  0.00    -0.008 A 
ATOM      5  C20 UNB d   1      20.953 -14.130  21.019  0.00  0.00    -0.074 A 
ATOM      6  C21 UNB d   1      20.337 -12.952  20.570  0.00  0.00    -0.052 A 
ATOM      7  H9  UNB d   1      20.705 -15.889  22.194  0.00  0.00     0.087 H 
ATOM      8  H11 UNB d   1      21.966 -14.374  20.721  0.00  0.00     0.084 H 
ENDROOT
BRANCH   4   9
ATOM      9  C22 UNB d   1      18.356 -11.354  20.511  0.00  0.00     0.036 C 
ATOM     10  H12 UNB d   1      19.028 -10.832  19.814  0.00  0.00     0.054 H 
ATOM     11  H13 UNB d   1      18.164 -10.713  21.384  0.00  0.00     0.054 H 
BRANCH   9  12
ATOM     12  C24 UNB d   1      17.043 -11.632  19.809  0.00  0.00     0.222 C 
ATOM     13  N25 UNB d   1      16.010 -10.801  20.062  0.00  0.00    -0.357 N 
ATOM     14  H17 UNB d   1      16.147 -10.030  20.684  0.00  0.00     0.162 HD
ATOM     15  O26 UNB d   1      16.933 -12.565  19.039  0.00  0.00    -0.273 OA
BRANCH  13  16
ATOM     16  C27 UNB d   1      14.697 -10.998  19.451  0.00  0.00     0.019 C 
ATOM     17  H18 UNB d   1      14.630 -11.990  18.980  0.00  0.00     0.071 H 
ATOM     18  H19 UNB d   1      14.496 -10.221  18.699  0.00  0.00     0.071 H 
BRANCH  16  19
ATOM     19  C28 UNB d   1      13.741 -10.888  20.597  0.00  0.00    -0.040 A 
ATOM     20  C29 UNB d   1      13.200  -9.663  20.956  0.00  0.00    -0.074 A 
ATOM     21  C31 UNB d   1      12.339  -9.579  22.038  0.00  0.00    -0.069 A 
ATOM     22  H20 UNB d   1      13.450  -8.772  20.391  0.00  0.00     0.084 H 
ATOM     23  C33 UNB d   1      11.968 -10.718  22.743  0.00  0.00     0.007 A 
ATOM     24  H22 UNB d   1      11.950  -8.613  22.339  0.00  0.00     0.085 H 
ATOM     25  C32 UNB d   1      12.543 -11.954  22.394  0.00  0.00    -0.069 A 
ATOM     26  C30 UNB d   1      13.411 -12.014  21.323  0.00  0.00    -0.074 A 
ATOM     27  H23 UNB d   1      12.307 -12.848  22.960  0.00  0.00     0.085 H 
ATOM     28  H21 UNB d   1      13.844 -12.968  21.046  0.00  0.00     0.084 H 
BRANCH  23  29
ATOM     29  C34 UNB d   1      11.029 -10.617  23.879  0.00  0.00     0.102 C 
ATOM     30  N36 UNB d   1      10.850  -9.477  24.498  0.00  0.00    -0.385 N 
ATOM     31  H26 UNB d   1      11.377  -8.643  24.203  0.00  0.00     0.157 HD
ATOM     32  H27 UNB d   1      10.182  -9.415  25.280  0.00  0.00     0.157 HD
BRANCH  29  33
ATOM     33  N35 UNB d   1      10.317 -11.739  24.280  0.00  0.00    -0.385 N 
ATOM     34  H24 UNB d   1       9.660 -11.677  25.071  0.00  0.00     0.157 HD
ATOM     35  H25 UNB d   1      10.445 -12.634  23.786  0.00  0.00     0.157 HD
ENDBRANCH  29  33
ENDBRANCH  23  29
ENDBRANCH  16  19
ENDBRANCH  13  16
ENDBRANCH   9  12
ENDBRANCH   4   9
BRANCH   2  36
ATOM     36  O19 UNB d   1      17.070 -13.193  22.214  0.00  0.00    -0.358 OA
ATOM     37  H10 UNB d   1      16.743 -13.880  22.783  0.00  0.00     0.217 HD
ENDBRANCH   2  36
BRANCH   6  38
ATOM     38  C23 UNB d   1      21.104 -12.031  19.664  0.00  0.00    -0.051 C 
ATOM     39  H14 UNB d   1      20.479 -11.163  19.409  0.00  0.00     0.033 H 
ATOM     40  H15 UNB d   1      21.379 -12.567  18.744  0.00  0.00     0.033 H 
ATOM     41  H16 UNB d   1      22.016 -11.689  20.176  0.00  0.00     0.033 H 
ENDBRANCH   6  38
BRANCH   1  42
ATOM     42  N10 UNB d   1      18.218 -15.559  23.108  0.00  0.00    -0.278 N 
ATOM     43  H6  UNB d   1      17.753 -16.355  22.720  0.00  0.00     0.179 HD
BRANCH  42  44
ATOM     44  S5  UNB d   1      18.150 -15.281  24.738  0.00  0.00     0.264 S 
ATOM     45  O11 UNB d   1      17.724 -16.501  25.335  0.00  0.00    -0.200 OA
ATOM     46  O12 UNB d   1      17.362 -14.081  24.850  0.00  0.00    -0.200 OA
BRANCH  44  47
ATOM     47  C2  UNB d   1      19.756 -14.797  25.259  0.00  0.00     0.090 A 
ATOM     48  C1  UNB d   1      20.773 -15.763  25.197  0.00  0.00    -0.003 A 
ATOM     49  C3  UNB d   1      22.082 -15.389  25.567  0.00  0.00    -0.024 A 
ATOM     50  C4  UNB d   1      20.480 -17.090  24.762  0.00  0.00    -0.071 A 
ATOM     51  C7  UNB d   1      22.346 -14.068  25.988  0.00  0.00    -0.072 A 
ATOM     52  C8  UNB d   1      23.097 -16.377  25.503  0.00  0.00    -0.072 A 
ATOM     53  C13 UNB d   1      21.350 -13.139  26.020  0.00  0.00    -0.081 A 
ATOM     54  H3  UNB d   1      23.350 -13.790  26.288  0.00  0.00     0.084 H 
ATOM     55  C6  UNB d   1      20.051 -13.512  25.651  0.00  0.00    -0.059 A 
ATOM     56  H7  UNB d   1      21.561 -12.121  26.328  0.00  0.00     0.083 H 
ATOM     57  H2  UNB d   1      19.260 -12.771  25.675  0.00  0.00     0.085 H 
ATOM     58  C14 UNB d   1      22.784 -17.648  25.076  0.00  0.00    -0.082 A 
ATOM     59  H4  UNB d   1      24.114 -16.133  25.789  0.00  0.00     0.084 H 
ATOM     60  C9  UNB d   1      21.485 -18.005  24.705  0.00  0.00    -0.082 A 
ATOM     61  H8  UNB d   1      23.569 -18.394  25.026  0.00  0.00     0.083 H 
ATOM     62  H5  UNB d   1      21.277 -19.015  24.370  0.00  0.00     0.083 H 
ATOM     63  H1  UNB d   1      19.470 -17.365  24.481  0.00  0.00     0.084 H 
ENDBRANCH  44  47
ENDBRANCH  42  44
ENDBRANCH   1  42
TORSDOF 11
