REMARK  9 active torsions:
REMARK  status: ('A' for Active; 'I' for Inactive)
REMARK    1  A    between atoms: O7_7  and  C1_1 
REMARK    2  A    between atoms: C3_3  and  C8_8 
REMARK    3  A    between atoms: C5_5  and  C9_9 
REMARK    4  A    between atoms: C4_13  and  O7_7 
REMARK    5  A    between atoms: C5_14  and  C10_19 
REMARK    6  A    between atoms: C6_15  and  C7_16 
REMARK    7  A    between atoms: C10_19  and  S11_20 
REMARK    8  A    between atoms: S11_20  and  C12_21 
REMARK    9  A    between atoms: C12_21  and  C13_22 
ROOT
ATOM      1  N1  R22 d   1      52.834 -25.869  30.315  0.00  0.00    -0.326 N 
ATOM      2  C2  R22 d   1      51.699 -25.187  30.656  0.00  0.00     0.265 A 
ATOM      3  C3  R22 d   1      50.619 -25.170  29.613  0.00  0.00     0.108 A 
ATOM      4  C4  R22 d   1      50.853 -25.809  28.402  0.00  0.00     0.107 A 
ATOM      5  C5  R22 d   1      52.043 -26.491  28.131  0.00  0.00     0.009 A 
ATOM      6  C6  R22 d   1      53.006 -26.530  29.076  0.00  0.00     0.018 A 
ATOM      7  O8  R22 d   1      51.678 -24.673  31.777  0.00  0.00    -0.267 OA
ATOM      8  I9  R22 d   1      48.848 -24.268  30.000  0.00  0.00    -0.036 I 
ATOM      9  H10 R22 d   1      53.583 -25.902  30.977  0.00  0.00     0.169 HD
ENDROOT
BRANCH   4  10
ATOM     10  O7  R22 d   1      49.892 -25.787  27.389  0.00  0.00    -0.309 OA
BRANCH  10  11
ATOM     11  C1  R22 d   1      50.043 -24.853  26.334  0.00  0.00     0.077 A 
ATOM     12  C2' R22 d   1      49.360 -25.149  25.110  0.00  0.00    -0.044 A 
ATOM     13  C3  R22 d   1      49.469 -24.287  23.985  0.00  0.00    -0.059 A 
ATOM     14  H1  R22 d   1      48.751 -26.043  25.041  0.00  0.00     0.088 H 
ATOM     15  C4  R22 d   1      50.267 -23.104  24.070  0.00  0.00    -0.071 A 
ATOM     16  C5  R22 d   1      50.959 -22.796  25.279  0.00  0.00    -0.059 A 
ATOM     17  H2  R22 d   1      50.346 -22.441  23.216  0.00  0.00     0.085 H 
ATOM     18  C6  R22 d   1      50.853 -23.658  26.395  0.00  0.00    -0.044 A 
ATOM     19  H3  R22 d   1      51.386 -23.419  27.308  0.00  0.00     0.088 H 
BRANCH  13  20
ATOM     20  C8  R22 d   1      48.729 -24.627  22.714  0.00  0.00    -0.051 C 
ATOM     21  H4  R22 d   1      48.178 -25.569  22.852  0.00  0.00     0.033 H 
ATOM     22  H5  R22 d   1      49.449 -24.740  21.890  0.00  0.00     0.033 H 
ATOM     23  H6  R22 d   1      48.021 -23.820  22.474  0.00  0.00     0.033 H 
ENDBRANCH  13  20
BRANCH  16  24
ATOM     24  C9  R22 d   1      51.799 -21.562  25.365  0.00  0.00    -0.051 C 
ATOM     25  H7  R22 d   1      51.758 -21.023  24.407  0.00  0.00     0.033 H 
ATOM     26  H8  R22 d   1      52.840 -21.842  25.585  0.00  0.00     0.033 H 
ATOM     27  H9  R22 d   1      51.416 -20.913  26.167  0.00  0.00     0.033 H 
ENDBRANCH  16  24
ENDBRANCH  10  11
ENDBRANCH   4  10
BRANCH   5  28
ATOM     28  C10 R22 d   1      52.315 -27.216  26.853  0.00  0.00     0.005 C 
ATOM     29  H14 R22 d   1      52.917 -28.097  27.119  0.00  0.00     0.056 H 
ATOM     30  H15 R22 d   1      52.916 -26.535  26.232  0.00  0.00     0.056 H 
BRANCH  28  31
ATOM     31  S11 R22 d   1      50.956 -27.823  25.786  0.00  0.00    -0.158 SA
BRANCH  31  32
ATOM     32  C12 R22 d   1      51.311 -29.531  25.454  0.00  0.00     0.021 C 
ATOM     33  H16 R22 d   1      52.347 -29.620  25.095  0.00  0.00     0.059 H 
ATOM     34  H17 R22 d   1      50.621 -29.898  24.680  0.00  0.00     0.059 H 
BRANCH  32  35
ATOM     35  C13 R22 d   1      51.149 -30.359  26.682  0.00  0.00     0.061 A 
ATOM     36  O14 R22 d   1      50.665 -31.595  26.433  0.00  0.00    -0.326 OA
ATOM     37  C15 R22 d   1      50.587 -32.204  27.650  0.00  0.00     0.019 A 
ATOM     38  C16 R22 d   1      51.017 -31.378  28.648  0.00  0.00    -0.059 A 
ATOM     39  H18 R22 d   1      50.227 -33.220  27.806  0.00  0.00     0.123 H 
ATOM     40  C17 R22 d   1      51.383 -30.169  28.013  0.00  0.00    -0.052 A 
ATOM     41  H19 R22 d   1      51.068 -31.603  29.712  0.00  0.00     0.086 H 
ATOM     42  H20 R22 d   1      51.772 -29.270  28.489  0.00  0.00     0.087 H 
ENDBRANCH  32  35
ENDBRANCH  31  32
ENDBRANCH  28  31
ENDBRANCH   5  28
BRANCH   6  43
ATOM     43  C7  R22 d   1      54.356 -27.234  28.989  0.00  0.00    -0.037 C 
ATOM     44  H11 R22 d   1      54.447 -27.733  28.013  0.00  0.00     0.035 H 
ATOM     45  H12 R22 d   1      54.432 -27.982  29.792  0.00  0.00     0.035 H 
ATOM     46  H13 R22 d   1      55.163 -26.495  29.100  0.00  0.00     0.035 H 
ENDBRANCH   6  43
TORSDOF 9
