REMARK  4 active torsions:
REMARK  status: ('A' for Active; 'I' for Inactive)
REMARK    1  A    between atoms: C9_7  and  C24_16 
REMARK    2  A    between atoms: C12_10  and  N1_24 
REMARK    3  A    between atoms: N27_19  and  S1_23 
REMARK    4  A    between atoms: S1_23  and  C15_31 
ROOT
ATOM      1  C1  736 d   1     185.937 127.863  31.827  0.00  0.00     0.003 A 
ATOM      2  N2  736 d   1     186.830 128.864  31.644  0.00  0.00    -0.264 NA
ATOM      3  C3  736 d   1     188.126 128.774  32.057  0.00  0.00     0.053 A 
ATOM      4  C4  736 d   1     188.602 127.596  32.716  0.00  0.00    -0.009 A 
ATOM      5  C5  736 d   1     187.678 126.540  32.908  0.00  0.00    -0.070 A 
ATOM      6  C6  736 d   1     186.334 126.663  32.468  0.00  0.00    -0.065 A 
ATOM      7  C9  736 d   1     189.021 129.951  31.794  0.00  0.00     0.019 C 
ATOM      8  C10 736 d   1     190.249 129.652  30.971  0.00  0.00    -0.036 A 
ATOM      9  C11 736 d   1     191.250 128.694  31.393  0.00  0.00    -0.006 A 
ATOM     10  C12 736 d   1     191.164 127.972  32.711  0.00  0.00     0.022 C 
ATOM     11  C13 736 d   1     190.000 127.462  33.239  0.00  0.00    -0.050 C 
ATOM     12  C18 736 d   1     190.421 130.352  29.739  0.00  0.00    -0.074 A 
ATOM     13  C19 736 d   1     191.567 130.120  28.928  0.00  0.00    -0.061 A 
ATOM     14  C20 736 d   1     192.556 129.184  29.345  0.00  0.00     0.035 A 
ATOM     15  C21 736 d   1     192.391 128.468  30.563  0.00  0.00    -0.050 A 
ATOM     16 CL40 736 d   1     193.976 128.940  28.389  0.00  0.00    -0.084 Cl
ATOM     17  H1  736 d   1     184.916 127.980  31.482  0.00  0.00     0.114 H 
ATOM     18  H2  736 d   1     188.001 125.628  33.396  0.00  0.00     0.085 H 
ATOM     19  H3  736 d   1     185.626 125.856  32.619  0.00  0.00     0.085 H 
ATOM     20  H4  736 d   1     188.425 130.646  31.184  0.00  0.00     0.058 H 
ATOM     21  H5  736 d   1     190.109 126.886  34.157  0.00  0.00     0.087 H 
ATOM     22  H6  736 d   1     189.672 131.067  29.418  0.00  0.00     0.084 H 
ATOM     23  H7  736 d   1     191.687 130.655  27.993  0.00  0.00     0.086 H 
ATOM     24  H8  736 d   1     193.139 127.743  30.865  0.00  0.00     0.087 H 
ENDROOT
BRANCH   7  25
ATOM     25  C24 736 d   1     189.354 130.712  33.119  0.00  0.00    -0.038 C 
ATOM     26  C25 736 d   1     190.273 131.909  32.876  0.00  0.00    -0.045 C 
ATOM     27  C26 736 d   1     190.445 132.776  34.104  0.00  0.00     0.005 C 
ATOM     28  H10 736 d   1     189.845 132.523  32.070  0.00  0.00     0.036 H 
ATOM     29  H11 736 d   1     191.261 131.536  32.568  0.00  0.00     0.036 H 
ATOM     30  N27 736 d   1     189.118 133.194  34.583  0.00  0.00    -0.311 N 
ATOM     31  H12 736 d   1     191.042 133.664  33.848  0.00  0.00     0.065 H 
ATOM     32  H13 736 d   1     190.958 132.204  34.891  0.00  0.00     0.065 H 
ATOM     33  C28 736 d   1     188.336 132.035  35.031  0.00  0.00     0.005 C 
ATOM     34  C29 736 d   1     188.076 131.129  33.848  0.00  0.00    -0.045 C 
ATOM     35  H14 736 d   1     187.379 132.376  35.451  0.00  0.00     0.065 H 
ATOM     36  H15 736 d   1     188.899 131.485  35.800  0.00  0.00     0.065 H 
ATOM     37  H16 736 d   1     187.566 130.223  34.207  0.00  0.00     0.036 H 
ATOM     38  H17 736 d   1     187.425 131.659  33.138  0.00  0.00     0.036 H 
ATOM     39  H9  736 d   1     189.894 130.012  33.773  0.00  0.00     0.041 H 
BRANCH  30  40
ATOM     40  S1  736 d   1     188.918 134.730  35.361  0.00  0.00     0.224 S 
ATOM     41  O1  736 d   1     187.546 134.748  35.777  0.00  0.00    -0.206 OA
ATOM     42  O2  736 d   1     189.958 134.771  36.345  0.00  0.00    -0.206 OA
BRANCH  40  43
ATOM     43  C15 736 d   1     189.191 136.008  34.147  0.00  0.00     0.032 C 
ATOM     44  H28 736 d   1     189.069 136.994  34.619  0.00  0.00     0.051 H 
ATOM     45  H29 736 d   1     188.462 135.900  33.330  0.00  0.00     0.051 H 
ATOM     46  H30 736 d   1     190.210 135.918  33.743  0.00  0.00     0.051 H 
ENDBRANCH  40  43
ENDBRANCH  30  40
ENDBRANCH   7  25
BRANCH  10  47
ATOM     47  N1  736 d   1     192.434 127.798  33.451  0.00  0.00    -0.280 NA
ATOM     48  C2  736 d   1     192.981 129.070  33.934  0.00  0.00     0.006 C 
ATOM     49  C8  736 d   1     194.412 128.842  34.389  0.00  0.00     0.093 C 
ATOM     50  H18 736 d   1     192.378 129.436  34.778  0.00  0.00     0.058 H 
ATOM     51  H19 736 d   1     192.964 129.812  33.122  0.00  0.00     0.058 H 
ATOM     52  N3  736 d   1     194.434 127.839  35.465  0.00  0.00    -0.073 N 
ATOM     53  H22 736 d   1     194.833 129.788  34.761  0.00  0.00     0.077 H 
ATOM     54  H23 736 d   1     195.013 128.482  33.541  0.00  0.00     0.077 H 
ATOM     55  C14 736 d   1     193.820 126.575  35.023  0.00  0.00     0.093 C 
ATOM     56  H26 736 d   1     193.922 128.195  36.257  0.00  0.00     0.277 HD
ATOM     57  H27 736 d   1     195.390 127.665  35.733  0.00  0.00     0.277 HD
ATOM     58  C7  736 d   1     192.400 126.828  34.554  0.00  0.00     0.006 C 
ATOM     59  H24 736 d   1     194.408 126.154  34.194  0.00  0.00     0.077 H 
ATOM     60  H25 736 d   1     193.806 125.863  35.862  0.00  0.00     0.077 H 
ATOM     61  H20 736 d   1     191.952 125.886  34.205  0.00  0.00     0.058 H 
ATOM     62  H21 736 d   1     191.803 127.232  35.384  0.00  0.00     0.058 H 
ENDBRANCH  10  47
TORSDOF 4
