REMARK  4 active torsions:
REMARK  status: ('A' for Active; 'I' for Inactive)
REMARK    1  A    between atoms: N1_7  and  C2_9 
REMARK    2  A    between atoms: C4_11  and  C9_17 
REMARK    3  A    between atoms: C7_14  and  O3_15 
REMARK    4  A    between atoms: O3_15  and  C8_16 
ROOT
ATOM      1  C2  T1D d   1      -1.498  61.959   3.068  0.00  0.00     0.081 A 
ATOM      2  C3  T1D d   1      -1.797  63.320   2.890  0.00  0.00    -0.043 A 
ATOM      3  C4  T1D d   1      -1.219  64.046   1.820  0.00  0.00    -0.024 A 
ATOM      4  C5  T1D d   1      -0.372  63.376   0.922  0.00  0.00    -0.070 A 
ATOM      5  C6  T1D d   1      -0.078  62.022   1.095  0.00  0.00    -0.048 A 
ATOM      6  C7  T1D d   1      -0.642  61.319   2.170  0.00  0.00     0.095 A 
ATOM      7  H4  T1D d   1      -2.474  63.817   3.575  0.00  0.00     0.088 H 
ATOM      8  H5  T1D d   1       0.058  63.916   0.086  0.00  0.00     0.085 H 
ATOM      9  H6  T1D d   1       0.584  61.516   0.401  0.00  0.00     0.087 H 
ENDROOT
BRANCH   1  10
ATOM     10  N1  T1D d   1      -2.043  61.168   4.116  0.00  0.00    -0.247 N 
ATOM     11  S   T1D d   1      -1.468  60.965   5.548  0.00  0.00     0.328 S 
ATOM     12  N   T1D d   1      -2.570  59.950   6.110  0.00  0.00    -0.235 N 
ATOM     13  O1  T1D d   1      -0.062  60.292   5.442  0.00  0.00    -0.182 OA
ATOM     14  O2  T1D d   1      -1.416  62.304   6.320  0.00  0.00    -0.182 OA
ATOM     15  C   T1D d   1      -3.482  59.652   5.179  0.00  0.00     0.251 A 
ATOM     16  H1  T1D d   1      -2.576  59.584   7.041  0.00  0.00     0.183 HD
ATOM     17  O   T1D d   1      -4.422  58.903   5.326  0.00  0.00    -0.271 OA
ATOM     18  C1  T1D d   1      -3.237  60.367   3.862  0.00  0.00     0.086 A 
ATOM     19  H2  T1D d   1      -4.091  61.009   3.600  0.00  0.00     0.080 H 
ATOM     20  H3  T1D d   1      -3.059  59.645   3.051  0.00  0.00     0.080 H 
ENDBRANCH   1  10
BRANCH   6  21
ATOM     21  O3  T1D d   1      -0.381  59.992   2.360  0.00  0.00    -0.354 OA
BRANCH  21  22
ATOM     22  C8  T1D d   1       0.326  59.189   1.401  0.00  0.00     0.010 C 
ATOM     23  H7  T1D d   1       0.412  58.159   1.777  0.00  0.00     0.066 H 
ATOM     24  H8  T1D d   1       1.331  59.606   1.243  0.00  0.00     0.066 H 
ATOM     25  H9  T1D d   1      -0.224  59.187   0.448  0.00  0.00     0.066 H 
ENDBRANCH  21  22
ENDBRANCH   6  21
BRANCH   3  26
ATOM     26  C9  T1D d   1      -1.480  65.404   1.581  0.00  0.00    -0.026 A 
ATOM     27  C10 T1D d   1      -2.694  65.974   1.999  0.00  0.00    -0.072 A 
ATOM     28  C11 T1D d   1      -2.985  67.325   1.742  0.00  0.00    -0.082 A 
ATOM     29  H10 T1D d   1      -3.417  65.363   2.527  0.00  0.00     0.084 H 
ATOM     30  C12 T1D d   1      -2.073  68.109   1.035  0.00  0.00    -0.083 A 
ATOM     31  H11 T1D d   1      -3.916  67.757   2.092  0.00  0.00     0.083 H 
ATOM     32  C13 T1D d   1      -0.857  67.533   0.602  0.00  0.00    -0.082 A 
ATOM     33  H12 T1D d   1      -2.294  69.148   0.820  0.00  0.00     0.083 H 
ATOM     34  C14 T1D d   1      -0.559  66.192   0.869  0.00  0.00    -0.072 A 
ATOM     35  H13 T1D d   1      -0.144  68.139   0.055  0.00  0.00     0.083 H 
ATOM     36  H14 T1D d   1       0.377  65.763   0.529  0.00  0.00     0.084 H 
ENDBRANCH   3  26
TORSDOF 4
