REMARK  1 active torsions:
REMARK  status: ('A' for Active; 'I' for Inactive)
REMARK    1  A    between atoms: C6_6  and  N7_7 
ROOT
ATOM      1  C1  T2D d   1      54.409  33.794  37.907  0.00  0.00    -0.056 A 
ATOM      2  C2  T2D d   1      55.527  33.840  37.033  0.00  0.00    -0.081 A 
ATOM      3  C3  T2D d   1      55.690  32.848  36.031  0.00  0.00    -0.083 A 
ATOM      4  C4  T2D d   1      54.734  31.804  35.901  0.00  0.00    -0.081 A 
ATOM      5  C5  T2D d   1      53.616  31.752  36.774  0.00  0.00    -0.056 A 
ATOM      6  C6  T2D d   1      53.436  32.744  37.788  0.00  0.00     0.047 A 
ATOM      7  H1  T2D d   1      54.289  34.556  38.669  0.00  0.00     0.086 H 
ATOM      8  H2  T2D d   1      56.258  34.635  37.131  0.00  0.00     0.083 H 
ATOM      9  H3  T2D d   1      56.544  32.886  35.364  0.00  0.00     0.083 H 
ATOM     10  H4  T2D d   1      54.859  31.047  35.135  0.00  0.00     0.083 H 
ATOM     11  H5  T2D d   1      52.892  30.952  36.671  0.00  0.00     0.086 H 
ENDROOT
BRANCH   6  12
ATOM     12  N7  T2D d   1      52.276  32.672  38.676  0.00  0.00    -0.250 N 
ATOM     13  S8  T2D d   1      52.269  31.810  40.146  0.00  0.00     0.328 S 
ATOM     14  N9  T2D d   1      50.674  32.179  40.566  0.00  0.00    -0.235 N 
ATOM     15  O13 T2D d   1      53.298  32.418  41.200  0.00  0.00    -0.182 OA
ATOM     16  O14 T2D d   1      52.499  30.253  39.929  0.00  0.00    -0.182 OA
ATOM     17  C10 T2D d   1      50.070  32.942  39.664  0.00  0.00     0.251 A 
ATOM     18  H6  T2D d   1      50.233  31.857  41.404  0.00  0.00     0.183 HD
ATOM     19  C11 T2D d   1      50.957  33.304  38.468  0.00  0.00     0.086 A 
ATOM     20  O12 T2D d   1      48.906  33.329  39.772  0.00  0.00    -0.271 OA
ATOM     21  H7  T2D d   1      50.504  32.928  37.539  0.00  0.00     0.080 H 
ATOM     22  H8  T2D d   1      51.071  34.396  38.404  0.00  0.00     0.080 H 
ENDBRANCH   6  12
TORSDOF 1
