REMARK  21 active torsions:
REMARK  status: ('A' for Active; 'I' for Inactive)
REMARK    1  A    between atoms: N_1  and  CA_2 
REMARK    2  A    between atoms: CA_2  and  C_3 
REMARK    3  A    between atoms: CA_2  and  CB_5 
REMARK       I    between atoms: C_3  and  N_9 
REMARK    4  A    between atoms: CB_5  and  CG_6 
REMARK    5  A    between atoms: CG_6  and  SD_7 
REMARK    6  A    between atoms: SD_7  and  CE_8 
REMARK    7  A    between atoms: N_9  and  CA_10 
REMARK    8  A    between atoms: CA_10  and  C_11 
REMARK    9  A    between atoms: CA_10  and  CB_13 
REMARK       I    between atoms: C_11  and  N_23 
REMARK   10  A    between atoms: CB_13  and  CG_14 
REMARK   11  A    between atoms: CA_24  and  C_25 
REMARK       I    between atoms: C_25  and  N_30 
REMARK   12  A    between atoms: N_30  and  CA_31 
REMARK   13  A    between atoms: CA_31  and  C_32 
REMARK   14  A    between atoms: CA_31  and  CB_34 
REMARK       I    between atoms: C_32  and  N_37 
REMARK   15  A    between atoms: CB_34  and  CG1_35 
REMARK   16  A    between atoms: CB_34  and  CG2_36 
REMARK   17  A    between atoms: N_37  and  CA_38 
REMARK   18  A    between atoms: CA_38  and  C_39 
REMARK   19  A    between atoms: CA_38  and  CB_41 
REMARK       I    between atoms: C_39  and  N_45 
REMARK   20  A    between atoms: CB_41  and  CG_42 
REMARK   21  A    between atoms: CA_46  and  C_47 
ROOT
ATOM      1  C   TRP d   1      24.048  -9.713 124.996  0.00  0.00     0.243 C 
ATOM      2  O   TRP d   1      23.729  -9.518 123.832  0.00  0.00    -0.271 OA
ATOM      3  N   PRO d   1      24.423 -10.897 125.466  0.00  0.00    -0.337 N 
ATOM      4  CA  PRO d   1      24.333 -12.108 124.685  0.00  0.00     0.091 C 
ATOM      5  CB  PRO d   1      24.536 -13.200 125.737  0.00  0.00    -0.036 C 
ATOM      6  CG  PRO d   1      25.416 -12.590 126.768  0.00  0.00    -0.048 C 
ATOM      7  CD  PRO d   1      25.030 -11.146 126.789  0.00  0.00    -0.001 C 
ATOM      8  H22 PRO d   1      25.146 -12.121 123.945  0.00  0.00     0.087 H 
ATOM      9  H23 PRO d   1      25.019 -14.081 125.290  0.00  0.00     0.036 H 
ATOM     10  H24 PRO d   1      23.572 -13.495 126.178  0.00  0.00     0.036 H 
ATOM     11  H25 PRO d   1      26.475 -12.705 126.492  0.00  0.00     0.035 H 
ATOM     12  H26 PRO d   1      25.241 -13.053 127.751  0.00  0.00     0.035 H 
ATOM     13  H27 PRO d   1      24.303 -10.951 127.591  0.00  0.00     0.064 H 
ATOM     14  H28 PRO d   1      25.916 -10.511 126.934  0.00  0.00     0.064 H 
ENDROOT
BRANCH   4  15
ATOM     15  C   PRO d   1      23.028 -12.365 123.951  0.00  0.00     0.241 C 
ATOM     16  O   PRO d   1      21.942 -12.048 124.439  0.00  0.00    -0.271 OA
ATOM     17  N   VAL d   1      23.169 -12.939 122.759  0.00  0.00    -0.346 N 
ATOM     18  H29 VAL d   1      24.066 -12.914 122.318  0.00  0.00     0.163 HD
BRANCH  17  19
ATOM     19  CA  VAL d   1      22.066 -13.605 122.066  0.00  0.00     0.092 C 
ATOM     20  H30 VAL d   1      21.328 -12.844 121.772  0.00  0.00     0.088 H 
BRANCH  19  21
ATOM     21  C   VAL d   1      21.430 -14.584 123.040  0.00  0.00     0.241 C 
ATOM     22  O   VAL d   1      22.091 -15.485 123.579  0.00  0.00    -0.271 OA
ATOM     23  N   ASP d   1      20.130 -14.411 123.250  0.00  0.00    -0.345 N 
ATOM     24  H38 ASP d   1      19.597 -13.856 122.612  0.00  0.00     0.163 HD
BRANCH  23  25
ATOM     25  CA  ASP d   1      19.472 -15.017 124.394  0.00  0.00     0.099 C 
ATOM     26  H39 ASP d   1      20.258 -15.318 125.103  0.00  0.00     0.088 H 
BRANCH  25  27
ATOM     27  C   ASP d   1      18.631 -16.253 124.093  0.00  0.00     0.243 C 
ATOM     28  O   ASP d   1      17.984 -16.349 123.041  0.00  0.00    -0.271 OA
ATOM     29  N   PRO d   1      18.671 -17.207 125.023  0.00  0.00    -0.339 N 
ATOM     30  CA  PRO d   1      17.678 -18.285 125.096  0.00  0.00     0.065 C 
ATOM     31  CD  PRO d   1      19.711 -17.361 126.063  0.00  0.00    -0.001 C 
ATOM     32  CB  PRO d   1      18.481 -19.462 125.696  0.00  0.00    -0.039 C 
ATOM     33  H42 PRO d   1      17.308 -18.538 124.091  0.00  0.00     0.084 H 
ATOM     34  CG  PRO d   1      19.703 -18.848 126.399  0.00  0.00    -0.048 C 
ATOM     35  H44 PRO d   1      18.806 -20.145 124.898  0.00  0.00     0.036 H 
ATOM     36  H45 PRO d   1      17.863 -20.012 126.421  0.00  0.00     0.036 H 
ATOM     37  H46 PRO d   1      20.626 -19.322 126.035  0.00  0.00     0.035 H 
ATOM     38  H47 PRO d   1      19.623 -18.989 127.487  0.00  0.00     0.035 H 
ATOM     39  H48 PRO d   1      19.464 -16.761 126.951  0.00  0.00     0.064 H 
ATOM     40  H49 PRO d   1      20.695 -17.056 125.677  0.00  0.00     0.064 H 
BRANCH  30  41
ATOM     41  C   PRO d   1      16.480 -17.914 125.993  0.00  0.00     0.110 C 
ATOM     42  O   PRO d   1      15.316 -18.199 125.675  0.00  0.00    -0.305 OA
ATOM     43  H43 PRO d   1      16.661 -17.388 126.930  0.00  0.00     0.146 H 
ENDBRANCH  30  41
ENDBRANCH  25  27
BRANCH  25  44
ATOM     44  CB  ASP d   1      18.582 -13.976 125.061  0.00  0.00     0.043 C 
ATOM     45  H40 ASP d   1      19.203 -13.125 125.377  0.00  0.00     0.052 H 
ATOM     46  H41 ASP d   1      18.103 -14.428 125.942  0.00  0.00     0.052 H 
BRANCH  44  47
ATOM     47  CG  ASP d   1      17.515 -13.480 124.128  0.00  0.00     0.175 C 
ATOM     48  OD1 ASP d   1      17.862 -12.718 123.193  0.00  0.00    -0.648 OA
ATOM     49  OD2 ASP d   1      16.324 -13.850 124.248  0.00  0.00    -0.648 OA
ENDBRANCH  44  47
ENDBRANCH  25  44
ENDBRANCH  23  25
ENDBRANCH  19  21
BRANCH  19  50
ATOM     50  CB  VAL d   1      22.501 -14.386 120.789  0.00  0.00    -0.033 C 
ATOM     51  H31 VAL d   1      21.639 -14.985 120.461  0.00  0.00     0.042 H 
BRANCH  50  52
ATOM     52  CG1 VAL d   1      22.812 -13.409 119.724  0.00  0.00    -0.071 C 
ATOM     53  H32 VAL d   1      23.121 -13.944 118.814  0.00  0.00     0.028 H 
ATOM     54  H33 VAL d   1      23.628 -12.751 120.057  0.00  0.00     0.028 H 
ATOM     55  H34 VAL d   1      21.918 -12.805 119.508  0.00  0.00     0.028 H 
ENDBRANCH  50  52
BRANCH  50  56
ATOM     56  CG2 VAL d   1      23.687 -15.381 121.006  0.00  0.00    -0.071 C 
ATOM     57  H35 VAL d   1      23.427 -16.094 121.802  0.00  0.00     0.028 H 
ATOM     58  H36 VAL d   1      24.588 -14.820 121.296  0.00  0.00     0.028 H 
ATOM     59  H37 VAL d   1      23.881 -15.929 120.072  0.00  0.00     0.028 H 
ENDBRANCH  50  56
ENDBRANCH  19  50
ENDBRANCH  17  19
ENDBRANCH   4  15
BRANCH   1  60
ATOM     60  CA  TRP d   1      24.092  -8.563 125.978  0.00  0.00     0.093 C 
ATOM     61  H13 TRP d   1      24.989  -8.670 126.605  0.00  0.00     0.088 H 
BRANCH  60  62
ATOM     62  N   TRP d   1      24.204  -7.342 125.209  0.00  0.00    -0.346 N 
ATOM     63  C   MET d   1      25.016  -6.366 125.601  0.00  0.00     0.249 C 
ATOM     64  O   MET d   1      25.693  -6.429 126.627  0.00  0.00    -0.271 OA
ATOM     65  H12 TRP d   1      23.665  -7.232 124.374  0.00  0.00     0.163 HD
BRANCH  63  66
ATOM     66  CA  MET d   1      25.084  -5.140 124.714  0.00  0.00     0.176 C 
ATOM     67  H4  MET d   1      24.648  -5.371 123.731  0.00  0.00     0.099 H 
BRANCH  66  68
ATOM     68  N   MET d   1      24.318  -4.024 125.338  0.00  0.00    -0.066 N 
ATOM     69  H1  MET d   1      24.366  -3.211 124.745  0.00  0.00     0.275 HD
ATOM     70  H2  MET d   1      24.715  -3.807 126.239  0.00  0.00     0.275 HD
ATOM     71  H3  MET d   1      23.355  -4.300 125.453  0.00  0.00     0.275 HD
ENDBRANCH  66  68
BRANCH  66  72
ATOM     72  CB  MET d   1      26.551  -4.753 124.541  0.00  0.00    -0.022 C 
ATOM     73  H5  MET d   1      26.938  -4.437 125.521  0.00  0.00     0.037 H 
ATOM     74  H6  MET d   1      26.600  -3.908 123.838  0.00  0.00     0.037 H 
BRANCH  72  75
ATOM     75  CG  MET d   1      27.444  -5.847 124.018  0.00  0.00    -0.021 C 
ATOM     76  H7  MET d   1      27.202  -6.783 124.542  0.00  0.00     0.049 H 
ATOM     77  H8  MET d   1      28.491  -5.575 124.217  0.00  0.00     0.049 H 
BRANCH  75  78
ATOM     78  SD  MET d   1      27.240  -6.101 122.266  0.00  0.00    -0.173 SA
BRANCH  78  79
ATOM     79  CE  MET d   1      28.233  -4.770 121.637  0.00  0.00    -0.035 C 
ATOM     80  H9  MET d   1      28.213  -4.785 120.537  0.00  0.00     0.041 H 
ATOM     81  H10 MET d   1      29.269  -4.889 121.986  0.00  0.00     0.041 H 
ATOM     82  H11 MET d   1      27.832  -3.811 121.998  0.00  0.00     0.041 H 
ENDBRANCH  78  79
ENDBRANCH  75  78
ENDBRANCH  72  75
ENDBRANCH  66  72
ENDBRANCH  63  66
ENDBRANCH  60  62
BRANCH  60  83
ATOM     83  CB  TRP d   1      22.871  -8.543 126.907  0.00  0.00    -0.012 C 
ATOM     84  H14 TRP d   1      22.879  -9.460 127.514  0.00  0.00     0.044 H 
ATOM     85  H15 TRP d   1      21.962  -8.521 126.288  0.00  0.00     0.044 H 
BRANCH  83  86
ATOM     86  CG  TRP d   1      22.846  -7.354 127.837  0.00  0.00    -0.028 A 
ATOM     87  CD1 TRP d   1      22.349  -6.116 127.559  0.00  0.00    -0.015 A 
ATOM     88  NE1 TRP d   1      22.494  -5.279 128.638  0.00  0.00    -0.365 N 
ATOM     89  H16 TRP d   1      21.898  -5.829 126.610  0.00  0.00     0.112 H 
ATOM     90  CE2 TRP d   1      23.108  -5.968 129.647  0.00  0.00     0.042 A 
ATOM     91  H17 TRP d   1      22.191  -4.296 128.680  0.00  0.00     0.165 HD
ATOM     92  CD2 TRP d   1      23.349  -7.279 129.177  0.00  0.00    -0.002 A 
ATOM     93  CZ2 TRP d   1      23.475  -5.543 130.918  0.00  0.00    -0.056 A 
ATOM     94  CE3 TRP d   1      23.985  -8.184 130.032  0.00  0.00    -0.070 A 
ATOM     95  CZ3 TRP d   1      24.338  -7.760 131.300  0.00  0.00    -0.082 A 
ATOM     96  H18 TRP d   1      24.197  -9.197 129.708  0.00  0.00     0.084 H 
ATOM     97  CH2 TRP d   1      24.083  -6.452 131.730  0.00  0.00    -0.081 A 
ATOM     98  H20 TRP d   1      24.823  -8.455 131.976  0.00  0.00     0.083 H 
ATOM     99  H21 TRP d   1      24.376  -6.156 132.731  0.00  0.00     0.083 H 
ATOM    100  H19 TRP d   1      23.285  -4.529 131.250  0.00  0.00     0.086 H 
ENDBRANCH  83  86
ENDBRANCH  60  83
ENDBRANCH   1  60
TORSDOF 21
