REMARK  11 active torsions:
REMARK  status: ('A' for Active; 'I' for Inactive)
REMARK    1  A    between atoms: N_1  and  CA_2 
REMARK    2  A    between atoms: CA_2  and  C_3 
REMARK    3  A    between atoms: CA_2  and  CB_5 
REMARK       I    between atoms: C_3  and  N_9 
REMARK    4  A    between atoms: CB_5  and  CG_6 
REMARK    5  A    between atoms: CG_6  and  SD_7 
REMARK    6  A    between atoms: SD_7  and  CE_8 
REMARK    7  A    between atoms: N_9  and  CA_10 
REMARK    8  A    between atoms: CA_10  and  C_11 
REMARK    9  A    between atoms: CA_10  and  CB_13 
REMARK       I    between atoms: C_11  and  N_17 
REMARK   10  A    between atoms: CB_13  and  CG_14 
REMARK   11  A    between atoms: CA_18  and  C_19 
ROOT
ATOM      1  CA  ASP d   1      39.643  52.224  39.228  0.00  0.00     0.099 C 
ATOM      2  H13 ASP d   1      39.572  53.311  39.381  0.00  0.00     0.088 H 
ENDROOT
BRANCH   1   3
ATOM      3  N   ASP d   1      38.969  51.870  37.982  0.00  0.00    -0.345 N 
ATOM      4  C   MET d   1      39.265  52.319  36.764  0.00  0.00     0.249 C 
ATOM      5  O   MET d   1      40.230  53.063  36.491  0.00  0.00    -0.271 OA
ATOM      6  H12 ASP d   1      38.208  51.225  38.050  0.00  0.00     0.163 HD
BRANCH   4   7
ATOM      7  CA  MET d   1      38.247  51.858  35.704  0.00  0.00     0.176 C 
ATOM      8  H4  MET d   1      37.301  52.359  35.958  0.00  0.00     0.099 H 
BRANCH   7   9
ATOM      9  N   MET d   1      38.533  52.234  34.295  0.00  0.00    -0.066 N 
ATOM     10  H1  MET d   1      37.802  51.880  33.698  0.00  0.00     0.275 HD
ATOM     11  H2  MET d   1      39.417  51.839  34.015  0.00  0.00     0.275 HD
ATOM     12  H3  MET d   1      38.573  53.238  34.217  0.00  0.00     0.275 HD
ENDBRANCH   7   9
BRANCH   7  13
ATOM     13  CB  MET d   1      38.002  50.343  35.833  0.00  0.00    -0.022 C 
ATOM     14  H5  MET d   1      38.295  50.023  36.844  0.00  0.00     0.037 H 
ATOM     15  H6  MET d   1      38.622  49.821  35.089  0.00  0.00     0.037 H 
BRANCH  13  16
ATOM     16  CG  MET d   1      36.560  49.969  35.608  0.00  0.00    -0.021 C 
ATOM     17  H7  MET d   1      36.447  49.694  34.549  0.00  0.00     0.049 H 
ATOM     18  H8  MET d   1      35.947  50.856  35.824  0.00  0.00     0.049 H 
BRANCH  16  19
ATOM     19  SD  MET d   1      35.927  48.617  36.591  0.00  0.00    -0.173 SA
BRANCH  19  20
ATOM     20  CE  MET d   1      34.633  48.030  35.504  0.00  0.00    -0.035 C 
ATOM     21  H9  MET d   1      34.125  47.172  35.969  0.00  0.00     0.041 H 
ATOM     22  H10 MET d   1      35.073  47.720  34.545  0.00  0.00     0.041 H 
ATOM     23  H11 MET d   1      33.906  48.837  35.330  0.00  0.00     0.041 H 
ENDBRANCH  19  20
ENDBRANCH  16  19
ENDBRANCH  13  16
ENDBRANCH   7  13
ENDBRANCH   4   7
ENDBRANCH   1   3
BRANCH   1  24
ATOM     24  C   ASP d   1      41.121  51.824  39.217  0.00  0.00     0.243 C 
ATOM     25  O   ASP d   1      41.454  50.689  38.861  0.00  0.00    -0.271 OA
ATOM     26  N   PRO d   1      42.006  52.726  39.639  0.00  0.00    -0.339 N 
ATOM     27  CA  PRO d   1      43.461  52.496  39.512  0.00  0.00     0.065 C 
ATOM     28  CD  PRO d   1      41.679  53.996  40.312  0.00  0.00    -0.001 C 
ATOM     29  CB  PRO d   1      44.092  53.820  39.956  0.00  0.00    -0.039 C 
ATOM     30  H16 PRO d   1      43.712  52.284  38.462  0.00  0.00     0.084 H 
ATOM     31  CG  PRO d   1      43.009  54.568  40.705  0.00  0.00    -0.048 C 
ATOM     32  H18 PRO d   1      44.421  54.399  39.081  0.00  0.00     0.036 H 
ATOM     33  H19 PRO d   1      44.952  53.631  40.615  0.00  0.00     0.036 H 
ATOM     34  H20 PRO d   1      43.046  55.636  40.443  0.00  0.00     0.035 H 
ATOM     35  H21 PRO d   1      43.158  54.451  41.788  0.00  0.00     0.035 H 
ATOM     36  H22 PRO d   1      41.056  53.816  41.200  0.00  0.00     0.064 H 
ATOM     37  H23 PRO d   1      41.152  54.675  39.626  0.00  0.00     0.064 H 
BRANCH  27  38
ATOM     38  C   PRO d   1      43.984  51.348  40.377  0.00  0.00     0.110 C 
ATOM     39  O   PRO d   1      44.221  50.249  39.862  0.00  0.00    -0.305 OA
ATOM     40  H17 PRO d   1      44.147  51.498  41.443  0.00  0.00     0.146 H 
ENDBRANCH  27  38
ENDBRANCH   1  24
BRANCH   1  41
ATOM     41  CB  ASP d   1      38.917  51.494  40.368  0.00  0.00     0.043 C 
ATOM     42  H14 ASP d   1      39.008  52.094  41.286  0.00  0.00     0.052 H 
ATOM     43  H15 ASP d   1      39.395  50.515  40.521  0.00  0.00     0.052 H 
BRANCH  41  44
ATOM     44  CG  ASP d   1      37.427  51.274  40.070  0.00  0.00     0.175 C 
ATOM     45  OD1 ASP d   1      36.632  52.237  40.205  0.00  0.00    -0.648 OA
ATOM     46  OD2 ASP d   1      36.960  50.186  39.661  0.00  0.00    -0.648 OA
ENDBRANCH  41  44
ENDBRANCH   1  41
TORSDOF 11
