REMARK WARNING: 32 MAX_TORS EXCEEDED!!!
REMARK  47 active torsions:
REMARK  status: ('A' for Active; 'I' for Inactive)
REMARK    1  A    between atoms: N_1  and  CA_2 
REMARK    2  A    between atoms: CA_2  and  C_3 
REMARK    3  A    between atoms: CA_2  and  CB_5 
REMARK       I    between atoms: C_3  and  N_9 
REMARK    4  A    between atoms: CB_5  and  CG_6 
REMARK    5  A    between atoms: CG_6  and  CD1_7 
REMARK    6  A    between atoms: CG_6  and  CD2_8 
REMARK    7  A    between atoms: N_9  and  CA_10 
REMARK    8  A    between atoms: CA_10  and  C_11 
REMARK    9  A    between atoms: CA_10  and  CB_13 
REMARK       I    between atoms: C_11  and  N_16 
REMARK   10  A    between atoms: CB_13  and  OG1_14 
REMARK   11  A    between atoms: CB_13  and  CG2_15 
REMARK   12  A    between atoms: N_16  and  CA_17 
REMARK   13  A    between atoms: CA_17  and  C_18 
REMARK   14  A    between atoms: CA_17  and  CB_20 
REMARK       I    between atoms: C_18  and  N_22 
REMARK   15  A    between atoms: CB_20  and  OG_21 
REMARK   16  A    between atoms: N_22  and  CA_23 
REMARK   17  A    between atoms: CA_23  and  C_24 
REMARK   18  A    between atoms: CA_23  and  CB_26 
REMARK       I    between atoms: C_24  and  N_33 
REMARK   19  A    between atoms: CB_26  and  CG_27 
REMARK   20  A    between atoms: CG_27  and  CD_28 
REMARK   21  A    between atoms: CD_28  and  NE_29 
REMARK       I    between atoms: NE_29  and  CZ_30 
REMARK       I    between atoms: CZ_30  and  NH1_31 
REMARK   22  A    between atoms: N_33  and  CA_34 
REMARK   23  A    between atoms: CA_34  and  C_35 
REMARK   24  A    between atoms: CA_34  and  CB_37 
REMARK       I    between atoms: C_35  and  N_41 
REMARK   25  A    between atoms: CB_37  and  CG_38 
REMARK   26  A    between atoms: N_41  and  CA_42 
REMARK   27  A    between atoms: CA_42  and  C_43 
REMARK   28  A    between atoms: CA_42  and  CB_45 
REMARK       I    between atoms: C_43  and  N_52 
REMARK   29  A    between atoms: CB_45  and  CG_46 
REMARK   30  A    between atoms: N_52  and  CA_53 
REMARK   31  A    between atoms: CA_53  and  C_54 
REMARK       I    between atoms: C_54  and  N_56 
REMARK   32  A    between atoms: N_56  and  CA_57 
REMARK   33  A    between atoms: CA_57  and  C_58 
REMARK   34  A    between atoms: CA_57  and  CB_60 
REMARK       I    between atoms: C_58  and  N_62 
REMARK   35  A    between atoms: CB_60  and  OG_61 
REMARK   36  A    between atoms: N_62  and  CA_63 
REMARK   37  A    between atoms: CA_63  and  C_64 
REMARK   38  A    between atoms: CA_63  and  CB_66 
REMARK       I    between atoms: C_64  and  N_76 
REMARK   39  A    between atoms: CB_66  and  CG_67 
REMARK   40  A    between atoms: N_76  and  CA_77 
REMARK   41  A    between atoms: CA_77  and  C_78 
REMARK   42  A    between atoms: CA_77  and  CB_80 
REMARK       I    between atoms: C_78  and  N_88 
REMARK   43  A    between atoms: CB_80  and  CG_81 
REMARK   44  A    between atoms: CZ_86  and  OH_87 
REMARK   45  A    between atoms: N_88  and  CA_89 
REMARK   46  A    between atoms: CA_89  and  C_90 
REMARK   47  A    between atoms: CA_89  and  CB_92 
ROOT
ATOM      1  CA  LEU d   1      28.537  55.158  31.488  0.00  0.00     0.093 C 
ATOM      2  H44 LEU d   1      29.632  55.163  31.384  0.00  0.00     0.088 H 
ENDROOT
BRANCH   1   3
ATOM      3  N   LEU d   1      28.190  55.611  32.835  0.00  0.00    -0.346 N 
ATOM      4  C   LEU d   1      29.119  55.891  33.745  0.00  0.00     0.241 C 
ATOM      5  O   LEU d   1      30.305  55.817  33.503  0.00  0.00    -0.271 OA
ATOM      6  H43 LEU d   1      27.226  55.713  33.079  0.00  0.00     0.163 HD
BRANCH   4   7
ATOM      7  CA  LEU d   1      28.649  56.329  35.136  0.00  0.00     0.098 C 
ATOM      8  H40 LEU d   1      29.043  57.339  35.325  0.00  0.00     0.088 H 
BRANCH   7   9
ATOM      9  N   LEU d   1      27.197  56.385  35.244  0.00  0.00    -0.346 N 
ATOM     10  C   LEU d   1      26.494  57.407  34.764  0.00  0.00     0.241 C 
ATOM     11  O   LEU d   1      27.014  58.382  34.198  0.00  0.00    -0.271 OA
ATOM     12  H39 LEU d   1      26.715  55.633  35.692  0.00  0.00     0.163 HD
BRANCH  10  13
ATOM     13  CA  LEU d   1      24.975  57.310  34.917  0.00  0.00     0.089 C 
ATOM     14  H27 LEU d   1      24.530  57.840  34.062  0.00  0.00     0.087 H 
BRANCH  13  15
ATOM     15  N   LEU d   1      24.456  55.929  34.888  0.00  0.00    -0.346 N 
ATOM     16  C   LEU d   1      24.713  55.083  33.902  0.00  0.00     0.243 C 
ATOM     17  O   LEU d   1      25.347  55.401  32.887  0.00  0.00    -0.271 OA
ATOM     18  H26 LEU d   1      23.884  55.618  35.647  0.00  0.00     0.163 HD
BRANCH  16  19
ATOM     19  CA  LEU d   1      24.155  53.654  34.084  0.00  0.00     0.109 C 
ATOM     20  H22 LEU d   1      24.795  52.957  33.523  0.00  0.00     0.090 H 
BRANCH  19  21
ATOM     21  N   LEU d   1      24.136  53.239  35.491  0.00  0.00    -0.344 N 
ATOM     22  C   LEU d   1      25.193  53.343  36.286  0.00  0.00     0.243 C 
ATOM     23  O   LEU d   1      26.298  53.763  35.914  0.00  0.00    -0.271 OA
ATOM     24  H21 LEU d   1      23.290  52.861  35.867  0.00  0.00     0.163 HD
BRANCH  22  25
ATOM     25  CA  LEU d   1      24.936  52.977  37.739  0.00  0.00     0.113 C 
ATOM     26  H15 LEU d   1      24.634  51.922  37.814  0.00  0.00     0.091 H 
BRANCH  25  27
ATOM     27  N   LEU d   1      26.162  53.178  38.525  0.00  0.00    -0.344 N 
ATOM     28  C   LEU d   1      26.582  52.300  39.449  0.00  0.00     0.249 C 
ATOM     29  O   LEU d   1      25.905  51.345  39.845  0.00  0.00    -0.271 OA
ATOM     30  H14 LEU d   1      26.705  54.002  38.365  0.00  0.00     0.163 HD
BRANCH  28  31
ATOM     31  CA  LEU d   1      27.950  52.549  40.055  0.00  0.00     0.176 C 
ATOM     32  H4  LEU d   1      28.384  53.459  39.614  0.00  0.00     0.099 H 
BRANCH  31  33
ATOM     33  N   LEU d   1      27.824  52.722  41.529  0.00  0.00    -0.066 N 
ATOM     34  H1  LEU d   1      28.735  52.887  41.927  0.00  0.00     0.275 HD
ATOM     35  H2  LEU d   1      27.427  51.888  41.932  0.00  0.00     0.275 HD
ATOM     36  H3  LEU d   1      27.224  53.508  41.725  0.00  0.00     0.275 HD
ENDBRANCH  31  33
BRANCH  31  37
ATOM     37  CB  LEU d   1      28.861  51.364  39.772  0.00  0.00    -0.028 C 
ATOM     38  H5  LEU d   1      28.283  50.452  39.980  0.00  0.00     0.037 H 
ATOM     39  H6  LEU d   1      29.707  51.429  40.472  0.00  0.00     0.037 H 
BRANCH  37  40
ATOM     40  CG  LEU d   1      29.445  51.219  38.369  0.00  0.00    -0.059 C 
ATOM     41  H7  LEU d   1      28.703  51.566  37.635  0.00  0.00     0.038 H 
BRANCH  40  42
ATOM     42  CD1 LEU d   1      30.709  52.037  38.204  0.00  0.00    -0.073 C 
ATOM     43  H8  LEU d   1      31.099  51.907  37.184  0.00  0.00     0.028 H 
ATOM     44  H9  LEU d   1      31.462  51.698  38.930  0.00  0.00     0.028 H 
ATOM     45  H10 LEU d   1      30.483  53.099  38.378  0.00  0.00     0.028 H 
ENDBRANCH  40  42
BRANCH  40  46
ATOM     46  CD2 LEU d   1      29.746  49.732  38.124  0.00  0.00    -0.073 C 
ATOM     47  H11 LEU d   1      28.823  49.146  38.246  0.00  0.00     0.028 H 
ATOM     48  H12 LEU d   1      30.498  49.386  38.848  0.00  0.00     0.028 H 
ATOM     49  H13 LEU d   1      30.132  49.599  37.103  0.00  0.00     0.028 H 
ENDBRANCH  40  46
ENDBRANCH  37  40
ENDBRANCH  31  37
ENDBRANCH  28  31
ENDBRANCH  25  27
BRANCH  25  50
ATOM     50  CB  LEU d   1      23.766  53.890  38.226  0.00  0.00     0.060 C 
ATOM     51  H16 LEU d   1      22.841  53.603  37.704  0.00  0.00     0.086 H 
BRANCH  50  52
ATOM     52  OG1 LEU d   1      24.093  55.268  37.963  0.00  0.00    -0.393 OA
ATOM     53  H17 LEU d   1      23.381  55.823  38.259  0.00  0.00     0.210 HD
ENDBRANCH  50  52
BRANCH  50  54
ATOM     54  CG2 LEU d   1      23.565  53.814  39.708  0.00  0.00    -0.050 C 
ATOM     55  H18 LEU d   1      22.733  54.472  39.999  0.00  0.00     0.031 H 
ATOM     56  H19 LEU d   1      24.484  54.136  40.220  0.00  0.00     0.031 H 
ATOM     57  H20 LEU d   1      23.330  52.778  39.993  0.00  0.00     0.031 H 
ENDBRANCH  50  54
ENDBRANCH  25  50
ENDBRANCH  22  25
ENDBRANCH  19  21
BRANCH  19  58
ATOM     58  CB  LEU d   1      22.730  53.585  33.527  0.00  0.00     0.044 C 
ATOM     59  H23 LEU d   1      22.327  52.573  33.681  0.00  0.00     0.077 H 
ATOM     60  H24 LEU d   1      22.747  53.814  32.451  0.00  0.00     0.077 H 
BRANCH  58  61
ATOM     61  OG  LEU d   1      21.907  54.525  34.194  0.00  0.00    -0.398 OA
ATOM     62  H25 LEU d   1      21.025  54.477  33.844  0.00  0.00     0.209 HD
ENDBRANCH  58  61
ENDBRANCH  19  58
ENDBRANCH  16  19
ENDBRANCH  13  15
BRANCH  13  63
ATOM     63  CB  LEU d   1      24.521  58.026  36.200  0.00  0.00    -0.036 C 
ATOM     64  H28 LEU d   1      25.375  58.588  36.606  0.00  0.00     0.036 H 
ATOM     65  H29 LEU d   1      24.203  57.266  36.928  0.00  0.00     0.036 H 
BRANCH  63  66
ATOM     66  CG  LEU d   1      23.366  58.997  35.980  0.00  0.00    -0.048 C 
ATOM     67  H30 LEU d   1      22.979  59.322  36.957  0.00  0.00     0.035 H 
ATOM     68  H31 LEU d   1      22.568  58.485  35.422  0.00  0.00     0.035 H 
BRANCH  66  69
ATOM     69  CD  LEU d   1      23.817  60.222  35.192  0.00  0.00     0.009 C 
ATOM     70  H32 LEU d   1      24.043  59.900  34.165  0.00  0.00     0.064 H 
ATOM     71  H33 LEU d   1      24.732  60.610  35.664  0.00  0.00     0.064 H 
BRANCH  69  72
ATOM     72  NE  LEU d   1      22.849  61.316  35.118  0.00  0.00    -0.227 N 
ATOM     73  CZ  LEU d   1      23.175  62.579  34.825  0.00  0.00     0.665 C 
ATOM     74  NH1 LEU d   1      24.443  62.912  34.590  0.00  0.00    -0.235 N 
ATOM     75  NH2 LEU d   1      22.237  63.524  34.775  0.00  0.00    -0.235 N 
ATOM     76  H35 LEU d   1      24.686  63.887  34.365  0.00  0.00     0.174 HD
ATOM     77  H36 LEU d   1      25.180  62.194  34.633  0.00  0.00     0.174 HD
ATOM     78  H37 LEU d   1      21.252  63.282  34.954  0.00  0.00     0.174 HD
ATOM     79  H38 LEU d   1      22.497  64.496  34.557  0.00  0.00     0.174 HD
ATOM     80  H34 LEU d   1      21.859  61.101  35.302  0.00  0.00     0.177 HD
ENDBRANCH  69  72
ENDBRANCH  66  69
ENDBRANCH  63  66
ENDBRANCH  13  63
ENDBRANCH  10  13
ENDBRANCH   7   9
BRANCH   7  81
ATOM     81  CB  LEU d   1      29.210  55.385  36.194  0.00  0.00     0.043 C 
ATOM     82  H41 LEU d   1      30.303  55.335  36.080  0.00  0.00     0.052 H 
ATOM     83  H42 LEU d   1      28.779  54.385  36.040  0.00  0.00     0.052 H 
BRANCH  81  84
ATOM     84  CG  LEU d   1      28.888  55.842  37.603  0.00  0.00     0.175 C 
ATOM     85  OD1 LEU d   1      29.412  56.905  38.013  0.00  0.00    -0.648 OA
ATOM     86  OD2 LEU d   1      28.114  55.213  38.362  0.00  0.00    -0.648 OA
ENDBRANCH  81  84
ENDBRANCH   7  81
ENDBRANCH   4   7
ENDBRANCH   1   3
BRANCH   1  87
ATOM     87  C   LEU d   1      27.938  56.068  30.439  0.00  0.00     0.241 C 
ATOM     88  O   LEU d   1      26.912  56.683  30.672  0.00  0.00    -0.271 OA
ATOM     89  N   LEU d   1      28.594  56.141  29.283  0.00  0.00    -0.351 N 
ATOM     90  H52 LEU d   1      29.495  55.712  29.215  0.00  0.00     0.163 HD
BRANCH  89  91
ATOM     91  CA  LEU d   1      28.054  56.820  28.113  0.00  0.00     0.069 C 
ATOM     92  H53 LEU d   1      27.060  56.399  27.903  0.00  0.00     0.078 H 
ATOM     93  H54 LEU d   1      28.724  56.620  27.263  0.00  0.00     0.078 H 
BRANCH  91  94
ATOM     94  C   LEU d   1      27.909  58.315  28.253  0.00  0.00     0.236 C 
ATOM     95  O   LEU d   1      28.407  58.922  29.199  0.00  0.00    -0.272 OA
ATOM     96  N   LEU d   1      27.198  58.899  27.300  0.00  0.00    -0.344 N 
ATOM     97  H55 LEU d   1      26.791  58.332  26.584  0.00  0.00     0.163 HD
BRANCH  96  98
ATOM     98  CA  LEU d   1      26.990  60.339  27.260  0.00  0.00     0.109 C 
ATOM     99  H56 LEU d   1      27.738  60.830  27.899  0.00  0.00     0.090 H 
BRANCH  98 100
ATOM    100  C   LEU d   1      25.598  60.662  27.780  0.00  0.00     0.243 C 
ATOM    101  O   LEU d   1      24.666  59.881  27.585  0.00  0.00    -0.271 OA
ATOM    102  N   LEU d   1      25.468  61.806  28.453  0.00  0.00    -0.346 N 
ATOM    103  H60 LEU d   1      26.279  62.368  28.616  0.00  0.00     0.163 HD
BRANCH 102 104
ATOM    104  CA  LEU d   1      24.165  62.265  28.963  0.00  0.00     0.093 C 
ATOM    105  H61 LEU d   1      23.370  61.619  28.562  0.00  0.00     0.088 H 
BRANCH 104 106
ATOM    106  C   LEU d   1      23.957  63.684  28.438  0.00  0.00     0.241 C 
ATOM    107  O   LEU d   1      24.921  64.426  28.262  0.00  0.00    -0.271 OA
ATOM    108  N   LEU d   1      22.711  64.036  28.125  0.00  0.00    -0.346 N 
ATOM    109  H70 LEU d   1      21.983  63.351  28.147  0.00  0.00     0.163 HD
BRANCH 108 110
ATOM    110  CA  LEU d   1      22.396  65.418  27.749  0.00  0.00     0.093 C 
ATOM    111  H71 LEU d   1      22.961  65.663  26.837  0.00  0.00     0.088 H 
BRANCH 110 112
ATOM    112  C   LEU d   1      22.813  66.394  28.864  0.00  0.00     0.241 C 
ATOM    113  O   LEU d   1      23.290  67.495  28.577  0.00  0.00    -0.271 OA
ATOM    114  N   LEU d   1      22.638  65.984  30.119  0.00  0.00    -0.345 N 
ATOM    115  H79 LEU d   1      22.277  65.066  30.286  0.00  0.00     0.163 HD
BRANCH 114 116
ATOM    116  CA  LEU d   1      22.960  66.842  31.259  0.00  0.00     0.093 C 
ATOM    117  H80 LEU d   1      23.407  67.770  30.874  0.00  0.00     0.089 H 
BRANCH 116 118
ATOM    118  C   LEU d   1      23.960  66.183  32.190  0.00  0.00     0.196 C 
ATOM    119  O   LEU d   1      23.918  64.976  32.477  0.00  0.00    -0.646 OA
ATOM    120  OXT LEU d   1      24.838  66.878  32.690  0.00  0.00    -0.646 OA
ENDBRANCH 116 118
BRANCH 116 121
ATOM    121  CB  LEU d   1      21.698  67.196  32.025  0.00  0.00    -0.048 C 
ATOM    122  H81 LEU d   1      21.956  67.841  32.878  0.00  0.00     0.030 H 
ATOM    123  H82 LEU d   1      21.221  66.275  32.392  0.00  0.00     0.030 H 
ATOM    124  H83 LEU d   1      21.003  67.729  31.360  0.00  0.00     0.030 H 
ENDBRANCH 116 121
ENDBRANCH 114 116
ENDBRANCH 110 112
BRANCH 110 125
ATOM    125  CB  LEU d   1      20.906  65.595  27.458  0.00  0.00    -0.014 C 
ATOM    126  H72 LEU d   1      20.668  66.665  27.544  0.00  0.00     0.043 H 
ATOM    127  H73 LEU d   1      20.342  65.032  28.216  0.00  0.00     0.043 H 
BRANCH 125 128
ATOM    128  CG  LEU d   1      20.454  65.124  26.094  0.00  0.00    -0.056 A 
ATOM    129  CD1 LEU d   1      20.995  65.663  24.933  0.00  0.00    -0.074 A 
ATOM    130  CE1 LEU d   1      20.553  65.248  23.675  0.00  0.00    -0.051 A 
ATOM    131  H74 LEU d   1      21.771  66.416  25.005  0.00  0.00     0.084 H 
ATOM    132  CZ  LEU d   1      19.580  64.297  23.565  0.00  0.00     0.065 A 
ATOM    133  H76 LEU d   1      20.985  65.683  22.781  0.00  0.00     0.087 H 
ATOM    134  CE2 LEU d   1      19.028  63.755  24.707  0.00  0.00    -0.051 A 
ATOM    135  CD2 LEU d   1      19.467  64.178  25.962  0.00  0.00    -0.074 A 
ATOM    136  H77 LEU d   1      18.253  63.001  24.629  0.00  0.00     0.087 H 
ATOM    137  H75 LEU d   1      19.019  63.751  26.852  0.00  0.00     0.084 H 
BRANCH 132 138
ATOM    138  OH  LEU d   1      19.146  63.883  22.312  0.00  0.00    -0.361 OA
ATOM    139  H78 LEU d   1      19.298  62.950  22.218  0.00  0.00     0.217 HD
ENDBRANCH 132 138
ENDBRANCH 125 128
ENDBRANCH 110 125
ENDBRANCH 108 110
ENDBRANCH 104 106
BRANCH 104 140
ATOM    140  CB  LEU d   1      24.121  62.179  30.505  0.00  0.00    -0.012 C 
ATOM    141  H62 LEU d   1      23.168  62.594  30.865  0.00  0.00     0.044 H 
ATOM    142  H63 LEU d   1      24.955  62.760  30.925  0.00  0.00     0.044 H 
BRANCH 140 143
ATOM    143  CG  LEU d   1      24.239  60.746  30.951  0.00  0.00    -0.028 A 
ATOM    144  CD1 LEU d   1      25.352  59.960  30.884  0.00  0.00    -0.015 A 
ATOM    145  NE1 LEU d   1      25.064  58.693  31.322  0.00  0.00    -0.365 N 
ATOM    146  H64 LEU d   1      26.328  60.291  30.533  0.00  0.00     0.112 H 
ATOM    147  CE2 LEU d   1      23.739  58.628  31.657  0.00  0.00     0.042 A 
ATOM    148  H65 LEU d   1      25.736  57.916  31.388  0.00  0.00     0.165 HD
ATOM    149  CD2 LEU d   1      23.189  59.905  31.434  0.00  0.00    -0.002 A 
ATOM    150  CZ2 LEU d   1      22.987  57.556  32.149  0.00  0.00    -0.056 A 
ATOM    151  CE3 LEU d   1      21.845  60.110  31.740  0.00  0.00    -0.070 A 
ATOM    152  CZ3 LEU d   1      21.095  59.033  32.220  0.00  0.00    -0.082 A 
ATOM    153  H66 LEU d   1      21.390  61.085  31.608  0.00  0.00     0.084 H 
ATOM    154  CH2 LEU d   1      21.669  57.778  32.416  0.00  0.00    -0.081 A 
ATOM    155  H68 LEU d   1      20.044  59.177  32.445  0.00  0.00     0.083 H 
ATOM    156  H69 LEU d   1      21.056  56.964  32.787  0.00  0.00     0.083 H 
ATOM    157  H67 LEU d   1      23.437  56.583  32.312  0.00  0.00     0.086 H 
ENDBRANCH 140 143
ENDBRANCH 104 140
ENDBRANCH 102 104
ENDBRANCH  98 100
BRANCH  98 158
ATOM    158  CB  LEU d   1      27.142  60.853  25.823  0.00  0.00     0.044 C 
ATOM    159  H57 LEU d   1      26.415  60.339  25.178  0.00  0.00     0.077 H 
ATOM    160  H58 LEU d   1      28.161  60.639  25.470  0.00  0.00     0.077 H 
BRANCH 158 161
ATOM    161  OG  LEU d   1      26.913  62.249  25.760  0.00  0.00    -0.398 OA
ATOM    162  H59 LEU d   1      27.012  62.545  24.863  0.00  0.00     0.209 HD
ENDBRANCH 158 161
ENDBRANCH  98 158
ENDBRANCH  96  98
ENDBRANCH  91  94
ENDBRANCH  89  91
ENDBRANCH   1  87
BRANCH   1 163
ATOM    163  CB  LEU d   1      28.015  53.733  31.263  0.00  0.00    -0.014 C 
ATOM    164  H45 LEU d   1      28.119  53.489  30.195  0.00  0.00     0.043 H 
ATOM    165  H46 LEU d   1      26.952  53.703  31.545  0.00  0.00     0.043 H 
BRANCH 163 166
ATOM    166  CG  LEU d   1      28.748  52.693  32.062  0.00  0.00    -0.056 A 
ATOM    167  CD1 LEU d   1      28.373  52.417  33.383  0.00  0.00    -0.077 A 
ATOM    168  CE1 LEU d   1      29.029  51.461  34.121  0.00  0.00    -0.082 A 
ATOM    169  H47 LEU d   1      27.552  52.966  33.830  0.00  0.00     0.084 H 
ATOM    170  CZ  LEU d   1      30.090  50.759  33.557  0.00  0.00    -0.083 A 
ATOM    171  H49 LEU d   1      28.721  51.254  35.139  0.00  0.00     0.083 H 
ATOM    172  CE2 LEU d   1      30.497  51.048  32.232  0.00  0.00    -0.082 A 
ATOM    173  H51 LEU d   1      30.602  49.994  34.130  0.00  0.00     0.083 H 
ATOM    174  CD2 LEU d   1      29.820  52.004  31.504  0.00  0.00    -0.077 A 
ATOM    175  H50 LEU d   1      31.336  50.521  31.792  0.00  0.00     0.083 H 
ATOM    176  H48 LEU d   1      30.126  52.221  30.487  0.00  0.00     0.084 H 
ENDBRANCH 163 166
ENDBRANCH   1 163
TORSDOF 47
