REMARK  1 active torsions:
REMARK  status: ('A' for Active; 'I' for Inactive)
REMARK    1  A    between atoms: C9_9  and  O9_10 
ROOT
ATOM      1  C1  ANF d   1      37.999  76.616  31.738  0.00  0.00    -0.070 A 
ATOM      2  C2  ANF d   1      38.395  77.947  31.696  0.00  0.00    -0.082 A 
ATOM      3  C3  ANF d   1      39.624  78.303  32.240  0.00  0.00    -0.082 A 
ATOM      4  C4  ANF d   1      40.469  77.373  32.828  0.00  0.00    -0.072 A 
ATOM      5  C5  ANF d   1      41.366  72.826  34.085  0.00  0.00    -0.072 A 
ATOM      6  C6  ANF d   1      40.990  71.486  34.135  0.00  0.00    -0.082 A 
ATOM      7  C7  ANF d   1      39.768  71.088  33.597  0.00  0.00    -0.082 A 
ATOM      8  C8  ANF d   1      38.925  72.033  33.013  0.00  0.00    -0.070 A 
ATOM      9  C9  ANF d   1      38.464  74.331  32.378  0.00  0.00     0.087 A 
ATOM     10  C10 ANF d   1      40.904  75.102  33.452  0.00  0.00    -0.061 A 
ATOM     11  C11 ANF d   1      40.522  73.767  33.500  0.00  0.00    -0.022 A 
ATOM     12  C12 ANF d   1      39.297  73.376  32.962  0.00  0.00     0.008 A 
ATOM     13  C13 ANF d   1      38.840  75.668  32.325  0.00  0.00     0.008 A 
ATOM     14  C14 ANF d   1      40.069  76.046  32.868  0.00  0.00    -0.022 A 
ATOM     15  H1  ANF d   1      37.045  76.316  31.319  0.00  0.00     0.085 H 
ATOM     16  H2  ANF d   1      37.755  78.697  31.246  0.00  0.00     0.083 H 
ATOM     17  H3  ANF d   1      39.932  79.342  32.203  0.00  0.00     0.083 H 
ATOM     18  H4  ANF d   1      41.421  77.677  33.247  0.00  0.00     0.084 H 
ATOM     19  H5  ANF d   1      42.317  73.137  34.502  0.00  0.00     0.084 H 
ATOM     20  H6  ANF d   1      41.647  70.754  34.592  0.00  0.00     0.083 H 
ATOM     21  H7  ANF d   1      39.473  70.046  33.632  0.00  0.00     0.083 H 
ATOM     22  H8  ANF d   1      37.974  71.722  32.596  0.00  0.00     0.085 H 
ATOM     23  H10 ANF d   1      41.856  75.407  33.871  0.00  0.00     0.086 H 
ENDROOT
BRANCH   9  24
ATOM     24  O9  ANF d   1      37.390  74.002  31.901  0.00  0.00    -0.359 OA
ATOM     25  H9  ANF d   1      36.953  74.768  31.548  0.00  0.00     0.217 HD
ENDBRANCH   9  24
TORSDOF 1
