REMARK  17 active torsions:
REMARK  status: ('A' for Active; 'I' for Inactive)
REMARK    1  A    between atoms: O1_2  and  C1_1 
REMARK    2  A    between atoms: C2_3  and  O1_2 
REMARK    3  A    between atoms: C4_5  and  C3_4 
REMARK    4  A    between atoms: O2_6  and  C4_5 
REMARK    5  A    between atoms: C33_29  and  O2_6 
REMARK    6  A    between atoms: C24_18  and  C20_11 
REMARK    7  A    between atoms: N3_16  and  C26_21 
REMARK    8  A    between atoms: O6_19  and  C24_18 
REMARK    9  A    between atoms: C14_36  and  O6_19 
REMARK   10  A    between atoms: C29_24  and  O7_26 
REMARK   11  A    between atoms: O7_26  and  C31_27 
REMARK   12  A    between atoms: C31_27  and  C32_28 
REMARK   13  A    between atoms: C32_28  and  C33_29 
REMARK   14  A    between atoms: C19_42  and  C34_30 
REMARK   15  A    between atoms: C34_30  and  O3_43 
REMARK   16  A    between atoms: C18_41  and  N1_40 
REMARK   17  A    between atoms: C18_41  and  C19_42 
ROOT
ATOM      1  C20 PZ1 d   1     128.266  17.031  37.414  0.00  0.00     0.064 C 
ATOM      2  C21 PZ1 d   1     127.775  16.915  35.961  0.00  0.00     0.103 C 
ATOM      3  N2  PZ1 d   1     128.782  16.454  35.025  0.00  0.00    -0.065 N 
ATOM      4  C22 PZ1 d   1     130.227  16.683  35.156  0.00  0.00     0.154 C 
ATOM      5  C23 PZ1 d   1     130.730  17.113  36.559  0.00  0.00     0.250 C 
ATOM      6  N3  PZ1 d   1     129.793  17.266  37.601  0.00  0.00    -0.308 N 
ATOM      7  O5  PZ1 d   1     131.933  17.297  36.685  0.00  0.00    -0.271 OA
ATOM      8  H10 PZ1 d   1     128.038  16.087  37.931  0.00  0.00     0.079 H 
ATOM      9  H11 PZ1 d   1     127.429  17.907  35.634  0.00  0.00     0.079 H 
ATOM     10  H12 PZ1 d   1     126.933  16.207  35.937  0.00  0.00     0.079 H 
ATOM     11  H13 PZ1 d   1     128.526  16.856  34.137  0.00  0.00     0.277 HD
ATOM     12  H14 PZ1 d   1     128.672  15.453  34.985  0.00  0.00     0.277 HD
ATOM     13  H15 PZ1 d   1     130.507  17.472  34.443  0.00  0.00     0.090 H 
ATOM     14  H16 PZ1 d   1     130.740  15.748  34.888  0.00  0.00     0.090 H 
ENDROOT
BRANCH   6  15
ATOM     15  C26 PZ1 d   1     130.289  17.645  38.864  0.00  0.00     0.038 A 
ATOM     16  C25 PZ1 d   1     130.503  19.024  39.239  0.00  0.00    -0.054 A 
ATOM     17  C30 PZ1 d   1     130.989  19.377  40.523  0.00  0.00    -0.049 A 
ATOM     18  H19 PZ1 d   1     130.287  19.807  38.521  0.00  0.00     0.087 H 
ATOM     19  C29 PZ1 d   1     131.285  18.373  41.487  0.00  0.00     0.068 A 
ATOM     20  H22 PZ1 d   1     131.137  20.422  40.773  0.00  0.00     0.087 H 
ATOM     21  C28 PZ1 d   1     131.086  16.967  41.136  0.00  0.00    -0.049 A 
ATOM     22  C27 PZ1 d   1     130.594  16.601  39.837  0.00  0.00    -0.054 A 
ATOM     23  H21 PZ1 d   1     131.312  16.195  41.862  0.00  0.00     0.087 H 
ATOM     24  H20 PZ1 d   1     130.450  15.557  39.581  0.00  0.00     0.087 H 
BRANCH  19  25
ATOM     25  O7  PZ1 d   1     131.733  18.803  42.746  0.00  0.00    -0.351 OA
BRANCH  25  26
ATOM     26  C31 PZ1 d   1     132.843  18.199  43.362  0.00  0.00     0.028 C 
ATOM     27  H23 PZ1 d   1     133.738  18.344  42.740  0.00  0.00     0.075 H 
ATOM     28  H24 PZ1 d   1     132.657  17.123  43.491  0.00  0.00     0.075 H 
BRANCH  26  29
ATOM     29  C32 PZ1 d   1     133.053  18.862  44.742  0.00  0.00    -0.025 C 
ATOM     30  H25 PZ1 d   1     132.530  19.830  44.751  0.00  0.00     0.039 H 
ATOM     31  H26 PZ1 d   1     134.130  19.026  44.894  0.00  0.00     0.039 H 
BRANCH  29  32
ATOM     32  C33 PZ1 d   1     132.513  17.996  45.911  0.00  0.00     0.022 C 
ATOM     33  H27 PZ1 d   1     132.184  17.042  45.474  0.00  0.00     0.074 H 
ATOM     34  H28 PZ1 d   1     133.359  17.816  46.590  0.00  0.00     0.074 H 
BRANCH  32  35
ATOM     35  O2  PZ1 d   1     131.412  18.485  46.731  0.00  0.00    -0.386 OA
BRANCH  35  36
ATOM     36  C4  PZ1 d   1     130.147  18.594  46.101  0.00  0.00     0.046 C 
ATOM     37  H4  PZ1 d   1     130.254  19.290  45.256  0.00  0.00     0.082 H 
ATOM     38  H5  PZ1 d   1     129.876  17.597  45.723  0.00  0.00     0.082 H 
BRANCH  36  39
ATOM     39  C3  PZ1 d   1     128.987  19.093  46.972  0.00  0.00    -0.001 A 
ATOM     40  C2  PZ1 d   1     127.672  19.228  46.377  0.00  0.00     0.076 A 
ATOM     41  C5  PZ1 d   1     126.568  19.689  47.156  0.00  0.00    -0.050 A 
ATOM     42  C6  PZ1 d   1     126.751  20.024  48.546  0.00  0.00    -0.080 A 
ATOM     43  H6  PZ1 d   1     125.589  19.787  46.701  0.00  0.00     0.087 H 
ATOM     44  C7  PZ1 d   1     128.042  19.894  49.139  0.00  0.00    -0.082 A 
ATOM     45  H7  PZ1 d   1     125.912  20.373  49.138  0.00  0.00     0.083 H 
ATOM     46  C8  PZ1 d   1     129.147  19.432  48.359  0.00  0.00    -0.072 A 
ATOM     47  H8  PZ1 d   1     128.185  20.146  50.184  0.00  0.00     0.083 H 
ATOM     48  H9  PZ1 d   1     130.123  19.336  48.822  0.00  0.00     0.084 H 
BRANCH  40  49
ATOM     49  O1  PZ1 d   1     127.452  18.913  45.026  0.00  0.00    -0.355 OA
BRANCH  49  50
ATOM     50  C1  PZ1 d   1     127.151  17.548  44.825  0.00  0.00     0.010 C 
ATOM     51  H1  PZ1 d   1     126.990  17.362  43.753  0.00  0.00     0.066 H 
ATOM     52  H2  PZ1 d   1     126.240  17.287  45.384  0.00  0.00     0.066 H 
ATOM     53  H3  PZ1 d   1     127.989  16.931  45.182  0.00  0.00     0.066 H 
ENDBRANCH  49  50
ENDBRANCH  40  49
ENDBRANCH  36  39
ENDBRANCH  35  36
ENDBRANCH  32  35
ENDBRANCH  29  32
ENDBRANCH  26  29
ENDBRANCH  25  26
ENDBRANCH  19  25
ENDBRANCH   6  15
BRANCH   1  54
ATOM     54  C24 PZ1 d   1     127.363  18.150  38.007  0.00  0.00     0.047 C 
ATOM     55  H17 PZ1 d   1     126.376  18.129  37.522  0.00  0.00     0.078 H 
ATOM     56  H18 PZ1 d   1     127.831  19.132  37.845  0.00  0.00     0.078 H 
BRANCH  54  57
ATOM     57  O6  PZ1 d   1     127.220  17.910  39.396  0.00  0.00    -0.349 OA
BRANCH  57  58
ATOM     58  C14 PZ1 d   1     126.441  18.815  40.092  0.00  0.00     0.071 A 
ATOM     59  C9  PZ1 d   1     127.041  19.652  41.101  0.00  0.00    -0.050 A 
ATOM     60  C10 PZ1 d   1     126.216  20.581  41.812  0.00  0.00    -0.072 A 
ATOM     61  H31 PZ1 d   1     128.101  19.579  41.318  0.00  0.00     0.087 H 
ATOM     62  C11 PZ1 d   1     124.795  20.686  41.529  0.00  0.00    -0.031 A 
ATOM     63  H32 PZ1 d   1     126.658  21.215  42.572  0.00  0.00     0.084 H 
ATOM     64  C12 PZ1 d   1     124.177  19.843  40.512  0.00  0.00     0.039 A 
ATOM     65  C15 PZ1 d   1     123.993  21.696  42.328  0.00  0.00    -0.037 A 
ATOM     66  C13 PZ1 d   1     125.046  18.921  39.819  0.00  0.00    -0.025 A 
ATOM     67  N1  PZ1 d   1     122.759  19.914  40.200  0.00  0.00    -0.380 N 
ATOM     68  H33 PZ1 d   1     124.618  18.280  39.056  0.00  0.00     0.091 H 
ATOM     69  C17 PZ1 d   1     121.856  20.866  40.915  0.00  0.00    -0.004 A 
ATOM     70  C16 PZ1 d   1     122.468  21.790  42.010  0.00  0.00    -0.046 A 
ATOM     71  H38 PZ1 d   1     121.405  21.519  40.154  0.00  0.00     0.064 H 
ATOM     72  H39 PZ1 d   1     121.070  20.267  41.398  0.00  0.00     0.064 H 
ATOM     73  H36 PZ1 d   1     122.268  22.827  41.702  0.00  0.00     0.035 H 
ATOM     74  H37 PZ1 d   1     121.932  21.576  42.946  0.00  0.00     0.035 H 
ATOM     75  H34 PZ1 d   1     124.433  22.688  42.148  0.00  0.00     0.040 H 
ATOM     76  H35 PZ1 d   1     124.096  21.437  43.392  0.00  0.00     0.040 H 
BRANCH  67  77
ATOM     77  C18 PZ1 d   1     122.145  19.026  39.147  0.00  0.00    -0.003 C 
ATOM     78  H40 PZ1 d   1     122.817  19.029  38.276  0.00  0.00     0.064 H 
ATOM     79  H41 PZ1 d   1     121.177  19.466  38.865  0.00  0.00     0.064 H 
BRANCH  77  80
ATOM     80  C19 PZ1 d   1     121.894  17.560  39.534  0.00  0.00    -0.030 C 
ATOM     81  H42 PZ1 d   1     122.901  17.244  39.843  0.00  0.00     0.038 H 
ATOM     82  H43 PZ1 d   1     121.258  17.679  40.424  0.00  0.00     0.038 H 
BRANCH  80  83
ATOM     83  C34 PZ1 d   1     121.326  16.224  38.927  0.00  0.00     0.018 C 
ATOM     84  H29 PZ1 d   1     122.273  15.701  38.729  0.00  0.00     0.074 H 
ATOM     85  H30 PZ1 d   1     120.919  16.616  37.983  0.00  0.00     0.074 H 
BRANCH  83  86
ATOM     86  O3  PZ1 d   1     120.386  14.984  39.113  0.00  0.00    -0.401 OA
ATOM     87  H44 PZ1 d   1     120.437  14.431  38.342  0.00  0.00     0.209 HD
ENDBRANCH  83  86
ENDBRANCH  80  83
ENDBRANCH  77  80
ENDBRANCH  67  77
ENDBRANCH  57  58
ENDBRANCH  54  57
ENDBRANCH   1  54
TORSDOF 17
