REMARK  13 active torsions:
REMARK  status: ('A' for Active; 'I' for Inactive)
REMARK    1  A    between atoms: O1_2  and  C1_1 
REMARK    2  A    between atoms: C2_3  and  O1_2 
REMARK    3  A    between atoms: C4_5  and  C3_4 
REMARK    4  A    between atoms: O2_6  and  C4_5 
REMARK    5  A    between atoms: C33_35  and  O2_6 
REMARK    6  A    between atoms: C9_11  and  O6_25 
REMARK    7  A    between atoms: C24_24  and  C20_17 
REMARK    8  A    between atoms: N3_22  and  C26_27 
REMARK    9  A    between atoms: O6_25  and  C24_24 
REMARK   10  A    between atoms: C29_30  and  O7_32 
REMARK   11  A    between atoms: O7_32  and  C31_33 
REMARK   12  A    between atoms: C31_33  and  C32_34 
REMARK   13  A    between atoms: C32_34  and  C33_35 
ROOT
ATOM      1  C25 RPF d   1      73.988  21.051  75.034  0.00  0.00    -0.054 A 
ATOM      2  C26 RPF d   1      74.241  22.019  76.050  0.00  0.00     0.038 A 
ATOM      3  C27 RPF d   1      74.626  21.573  77.357  0.00  0.00    -0.054 A 
ATOM      4  C28 RPF d   1      74.752  20.199  77.636  0.00  0.00    -0.049 A 
ATOM      5  C29 RPF d   1      74.500  19.232  76.625  0.00  0.00     0.068 A 
ATOM      6  C30 RPF d   1      74.118  19.665  75.327  0.00  0.00    -0.049 A 
ATOM      7  H22 RPF d   1      73.697  21.371  74.040  0.00  0.00     0.087 H 
ATOM      8  H23 RPF d   1      74.822  22.300  78.137  0.00  0.00     0.087 H 
ATOM      9  H24 RPF d   1      75.043  19.876  78.629  0.00  0.00     0.087 H 
ATOM     10  H25 RPF d   1      73.924  18.932  74.552  0.00  0.00     0.087 H 
ENDROOT
BRANCH   2  11
ATOM     11  N3  RPF d   1      74.125  23.380  75.760  0.00  0.00    -0.308 N 
ATOM     12  C20 RPF d   1      75.190  23.999  74.917  0.00  0.00     0.064 A 
ATOM     13  C21 RPF d   1      75.059  25.508  74.614  0.00  0.00     0.103 A 
ATOM     14  H13 RPF d   1      75.135  23.479  73.949  0.00  0.00     0.079 H 
ATOM     15  N2  RPF d   1      73.908  26.179  75.197  0.00  0.00    -0.065 N 
ATOM     16  H14 RPF d   1      75.001  25.628  73.522  0.00  0.00     0.079 H 
ATOM     17  H15 RPF d   1      75.965  26.006  74.990  0.00  0.00     0.079 H 
ATOM     18  C22 RPF d   1      72.864  25.554  75.997  0.00  0.00     0.154 A 
ATOM     19  H16 RPF d   1      73.427  26.601  74.418  0.00  0.00     0.277 HD
ATOM     20  H17 RPF d   1      74.294  26.901  75.785  0.00  0.00     0.277 HD
ATOM     21  C23 RPF d   1      73.026  24.052  76.281  0.00  0.00     0.250 A 
ATOM     22  H18 RPF d   1      71.909  25.693  75.469  0.00  0.00     0.090 H 
ATOM     23  H19 RPF d   1      72.827  26.075  76.965  0.00  0.00     0.090 H 
ATOM     24  O5  RPF d   1      72.164  23.522  76.967  0.00  0.00    -0.271 OA
BRANCH  12  25
ATOM     25  C24 RPF d   1      76.634  23.773  75.488  0.00  0.00     0.047 C 
ATOM     26  H20 RPF d   1      76.710  22.779  75.953  0.00  0.00     0.078 H 
ATOM     27  H21 RPF d   1      76.876  24.546  76.233  0.00  0.00     0.078 H 
BRANCH  25  28
ATOM     28  O6  RPF d   1      77.510  23.866  74.382  0.00  0.00    -0.349 OA
BRANCH  28  29
ATOM     29  C9  RPF d   1      77.875  22.730  73.635  0.00  0.00     0.071 A 
ATOM     30  C10 RPF d   1      78.710  23.014  72.556  0.00  0.00    -0.025 A 
ATOM     31  C11 RPF d   1      79.160  22.018  71.691  0.00  0.00     0.036 A 
ATOM     32  H10 RPF d   1      79.018  24.039  72.385  0.00  0.00     0.091 H 
ATOM     33  C12 RPF d   1      78.774  20.660  71.900  0.00  0.00    -0.032 A 
ATOM     34  N1  RPF d   1      79.978  22.366  70.638  0.00  0.00    -0.389 N 
ATOM     35  C13 RPF d   1      77.929  20.344  72.991  0.00  0.00    -0.072 A 
ATOM     36  C36 RPF d   1      79.264  19.581  70.963  0.00  0.00    -0.037 C 
ATOM     37  C14 RPF d   1      77.475  21.370  73.858  0.00  0.00    -0.050 A 
ATOM     38  H11 RPF d   1      77.629  19.317  73.164  0.00  0.00     0.084 H 
ATOM     39  H12 RPF d   1      76.825  21.127  74.691  0.00  0.00     0.087 H 
ATOM     40  C34 RPF d   1      80.593  19.976  70.268  0.00  0.00    -0.047 C 
ATOM     41  H37 RPF d   1      78.499  19.405  70.193  0.00  0.00     0.040 H 
ATOM     42  H38 RPF d   1      79.425  18.657  71.538  0.00  0.00     0.040 H 
ATOM     43  C35 RPF d   1      80.508  21.395  69.657  0.00  0.00    -0.007 C 
ATOM     44  H32 RPF d   1      81.406  19.953  71.009  0.00  0.00     0.035 H 
ATOM     45  H33 RPF d   1      80.807  19.253  69.467  0.00  0.00     0.035 H 
ATOM     46  H34 RPF d   1      79.843  21.370  68.781  0.00  0.00     0.064 H 
ATOM     47  H35 RPF d   1      81.514  21.712  69.345  0.00  0.00     0.064 H 
ATOM     48  H36 RPF d   1      80.234  23.358  70.528  0.00  0.00     0.159 HD
ENDBRANCH  28  29
ENDBRANCH  25  28
ENDBRANCH  12  25
ENDBRANCH   2  11
BRANCH   5  49
ATOM     49  O7  RPF d   1      74.609  17.863  76.837  0.00  0.00    -0.351 OA
BRANCH  49  50
ATOM     50  C31 RPF d   1      74.471  17.341  78.151  0.00  0.00     0.028 C 
ATOM     51  H26 RPF d   1      73.512  17.666  78.581  0.00  0.00     0.075 H 
ATOM     52  H27 RPF d   1      75.297  17.701  78.782  0.00  0.00     0.075 H 
BRANCH  50  53
ATOM     53  C32 RPF d   1      74.510  15.799  78.069  0.00  0.00    -0.025 C 
ATOM     54  H28 RPF d   1      73.532  15.453  77.703  0.00  0.00     0.039 H 
ATOM     55  H29 RPF d   1      74.682  15.408  79.083  0.00  0.00     0.039 H 
BRANCH  53  56
ATOM     56  C33 RPF d   1      75.604  15.217  77.139  0.00  0.00     0.022 C 
ATOM     57  H30 RPF d   1      75.236  14.276  76.704  0.00  0.00     0.074 H 
ATOM     58  H31 RPF d   1      75.805  15.939  76.334  0.00  0.00     0.074 H 
BRANCH  56  59
ATOM     59  O2  RPF d   1      76.812  14.958  77.833  0.00  0.00    -0.386 OA
BRANCH  59  60
ATOM     60  C4  RPF d   1      77.847  15.893  77.637  0.00  0.00     0.046 C 
ATOM     61  H4  RPF d   1      77.408  16.833  77.271  0.00  0.00     0.082 H 
ATOM     62  H5  RPF d   1      78.347  16.072  78.600  0.00  0.00     0.082 H 
BRANCH  60  63
ATOM     63  C3  RPF d   1      78.879  15.419  76.637  0.00  0.00    -0.001 A 
ATOM     64  C2  RPF d   1      79.362  16.298  75.620  0.00  0.00     0.076 A 
ATOM     65  C5  RPF d   1      80.333  15.848  74.691  0.00  0.00    -0.050 A 
ATOM     66  C6  RPF d   1      80.828  14.522  74.768  0.00  0.00    -0.080 A 
ATOM     67  H6  RPF d   1      80.697  16.518  73.921  0.00  0.00     0.087 H 
ATOM     68  C7  RPF d   1      80.358  13.647  75.763  0.00  0.00    -0.082 A 
ATOM     69  H7  RPF d   1      81.572  14.181  74.057  0.00  0.00     0.083 H 
ATOM     70  C8  RPF d   1      79.390  14.096  76.692  0.00  0.00    -0.072 A 
ATOM     71  H8  RPF d   1      80.736  12.632  75.818  0.00  0.00     0.083 H 
ATOM     72  H9  RPF d   1      79.033  13.418  77.459  0.00  0.00     0.084 H 
BRANCH  64  73
ATOM     73  O1  RPF d   1      78.887  17.603  75.520  0.00  0.00    -0.355 OA
BRANCH  73  74
ATOM     74  C1  RPF d   1      79.752  18.523  76.153  0.00  0.00     0.010 C 
ATOM     75  H1  RPF d   1      79.343  19.539  76.052  0.00  0.00     0.066 H 
ATOM     76  H2  RPF d   1      80.744  18.478  75.680  0.00  0.00     0.066 H 
ATOM     77  H3  RPF d   1      79.842  18.268  77.219  0.00  0.00     0.066 H 
ENDBRANCH  73  74
ENDBRANCH  64  73
ENDBRANCH  60  63
ENDBRANCH  59  60
ENDBRANCH  56  59
ENDBRANCH  53  56
ENDBRANCH  50  53
ENDBRANCH  49  50
ENDBRANCH   5  49
TORSDOF 13
