REMARK  4 active torsions:
REMARK  status: ('A' for Active; 'I' for Inactive)
REMARK    1  A    between atoms: C3_3  and  N7_7 
REMARK    2  A    between atoms: C6_6  and  S22_22 
REMARK    3  A    between atoms: C10_10  and  C19_19 
REMARK       I    between atoms: C19_19  and  N20_20 
REMARK    4  A    between atoms: S22_22  and  N25_25 
ROOT
ATOM      1  N7  SBC d   1     -11.951 205.049 114.095  0.00  0.00    -0.232 N 
ATOM      2  C8  SBC d   1     -12.590 204.998 112.800  0.00  0.00     0.081 A 
ATOM      3  C9  SBC d   1     -13.905 204.487 113.017  0.00  0.00     0.008 A 
ATOM      4  C10 SBC d   1     -14.026 204.248 114.402  0.00  0.00     0.153 A 
ATOM      5  N11 SBC d   1     -12.826 204.597 115.024  0.00  0.00    -0.161 NA
ATOM      6  C12 SBC d   1     -12.143 205.361 111.424  0.00  0.00     0.036 A 
ATOM      7  C13 SBC d   1     -14.857 204.118 111.824  0.00  0.00    -0.031 C 
ATOM      8  C14 SBC d   1     -14.440 204.689 110.420  0.00  0.00    -0.021 C 
ATOM      9  C15 SBC d   1     -12.980 205.225 110.312  0.00  0.00     0.042 A 
ATOM     10  C16 SBC d   1     -10.941 205.869 110.942  0.00  0.00     0.036 A 
ATOM     11  N17 SBC d   1     -12.288 205.645 109.206  0.00  0.00    -0.282 N 
ATOM     12  N18 SBC d   1     -11.056 206.034 109.581  0.00  0.00    -0.186 NA
ATOM     13  H5  SBC d   1     -15.860 204.501 112.061  0.00  0.00     0.040 H 
ATOM     14  H6  SBC d   1     -14.893 203.021 111.746  0.00  0.00     0.040 H 
ATOM     15  H7  SBC d   1     -15.122 205.517 110.176  0.00  0.00     0.042 H 
ATOM     16  H8  SBC d   1     -14.560 203.885 109.679  0.00  0.00     0.042 H 
ATOM     17  H9  SBC d   1     -10.060 206.097 111.540  0.00  0.00     0.118 H 
ATOM     18  H10 SBC d   1     -12.652 205.660 108.243  0.00  0.00     0.189 HD
ENDROOT
BRANCH   1  19
ATOM     19  C3  SBC d   1     -10.755 205.459 114.388  0.00  0.00     0.059 A 
ATOM     20  C2  SBC d   1      -9.739 204.564 114.857  0.00  0.00    -0.054 A 
ATOM     21  C1  SBC d   1      -8.448 205.066 115.172  0.00  0.00    -0.058 A 
ATOM     22  H2  SBC d   1      -9.955 203.508 114.971  0.00  0.00     0.087 H 
ATOM     23  C6  SBC d   1      -8.183 206.449 115.019  0.00  0.00     0.079 A 
ATOM     24  H1  SBC d   1      -7.673 204.397 115.526  0.00  0.00     0.086 H 
ATOM     25  C5  SBC d   1      -9.161 207.338 114.565  0.00  0.00    -0.058 A 
ATOM     26  C4  SBC d   1     -10.435 206.848 114.255  0.00  0.00    -0.054 A 
ATOM     27  H4  SBC d   1      -8.936 208.393 114.454  0.00  0.00     0.086 H 
ATOM     28  H3  SBC d   1     -11.197 207.536 113.906  0.00  0.00     0.087 H 
BRANCH  23  29
ATOM     29  S22 SBC d   1      -6.621 207.082 115.397  0.00  0.00     0.256 S 
ATOM     30  O23 SBC d   1      -6.696 208.066 116.754  0.00  0.00    -0.201 OA
ATOM     31  O24 SBC d   1      -5.595 205.899 115.619  0.00  0.00    -0.201 OA
BRANCH  29  32
ATOM     32  N25 SBC d   1      -6.067 208.042 114.076  0.00  0.00    -0.324 N 
ATOM     33  H13 SBC d   1      -5.174 208.489 114.123  0.00  0.00     0.169 HD
ATOM     34  H14 SBC d   1      -6.639 208.151 113.263  0.00  0.00     0.169 HD
ENDBRANCH  29  32
ENDBRANCH  23  29
ENDBRANCH   1  19
BRANCH   4  35
ATOM     35  C19 SBC d   1     -15.265 203.697 115.144  0.00  0.00     0.270 C 
ATOM     36  N20 SBC d   1     -15.203 203.536 116.466  0.00  0.00    -0.365 N 
ATOM     37  H11 SBC d   1     -15.994 203.181 116.964  0.00  0.00     0.159 HD
ATOM     38  H12 SBC d   1     -14.365 203.770 116.960  0.00  0.00     0.159 HD
ATOM     39  O21 SBC d   1     -16.308 203.405 114.552  0.00  0.00    -0.266 OA
ENDBRANCH   4  35
TORSDOF 4
