REMARK  9 active torsions:
REMARK  status: ('A' for Active; 'I' for Inactive)
REMARK       I    between atoms: C25_25  and  N1_1 
REMARK    1  A    between atoms: C3_3  and  N5_5 
REMARK       I    between atoms: N5_5  and  C6_6 
REMARK    2  A    between atoms: C6_6  and  C7_7 
REMARK    3  A    between atoms: C24_24  and  N17_17 
REMARK    4  A    between atoms: N20_20  and  C23_23 
REMARK       I    between atoms: N30_30  and  C25_25 
REMARK    5  A    between atoms: C27_27  and  N30_30 
REMARK    6  A    between atoms: C28_28  and  C32_32 
REMARK    7  A    between atoms: C29_29  and  C34_34 
REMARK    8  A    between atoms: C32_32  and  C36_36 
REMARK    9  A    between atoms: C34_34  and  C37_37 
ROOT
ATOM      1  N1  MPY d   1       5.462  -7.602   6.910  0.00  0.00    -0.282 N 
ATOM      2  N2  MPY d   1       8.179  -8.708   4.871  0.00  0.00    -0.216 N 
ATOM      3  C3  MPY d   1       9.112  -7.253   6.138  0.00  0.00     0.220 A 
ATOM      4  N4  MPY d   1       9.351  -8.115   5.129  0.00  0.00     0.030 N 
ATOM      5  C13 MPY d   1       7.212  -8.242   5.681  0.00  0.00     0.082 A 
ATOM      6  C14 MPY d   1       7.738  -7.311   6.513  0.00  0.00     0.039 A 
ATOM      7  C15 MPY d   1       6.632  -6.843   7.369  0.00  0.00     0.001 A 
ATOM      8  C16 MPY d   1       5.785  -8.547   5.802  0.00  0.00     0.017 A 
ATOM      9  C25 MPY d   1       4.136  -7.237   7.100  0.00  0.00     0.331 C 
ATOM     10  O26 MPY d   1       3.223  -7.802   6.519  0.00  0.00    -0.246 OA
ATOM     11  N30 MPY d   1       3.878  -6.168   7.994  0.00  0.00    -0.307 N 
ATOM     12  H1  MPY d   1       8.037  -9.427   4.147  0.00  0.00     0.193 HD
ATOM     13  H2  MPY d   1       9.361  -8.007   6.899  0.00  0.00     0.130 H 
ATOM     14  H3  MPY d   1       9.681  -7.620   4.315  0.00  0.00     0.309 HD
ATOM     15  H4  MPY d   1      10.037  -8.799   5.407  0.00  0.00     0.309 HD
ATOM     16  H10 MPY d   1       6.674  -6.100   8.164  0.00  0.00     0.113 H 
ATOM     17  H11 MPY d   1       5.155  -9.246   5.254  0.00  0.00     0.116 H 
ATOM     18  H24 MPY d   1       4.671  -5.824   8.496  0.00  0.00     0.170 HD
ENDROOT
BRANCH   3  19
ATOM     19  N5  MPY d   1      10.143  -6.449   6.655  0.00  0.00    -0.323 N 
ATOM     20  C6  MPY d   1      10.048  -5.499   7.718  0.00  0.00     0.253 C 
ATOM     21  O8  MPY d   1       9.018  -5.285   8.339  0.00  0.00    -0.268 OA
ATOM     22  H5  MPY d   1      11.043  -6.554   6.232  0.00  0.00     0.165 HD
BRANCH  20  23
ATOM     23  C7  MPY d   1      11.307  -4.707   8.058  0.00  0.00     0.032 A 
ATOM     24  C9  MPY d   1      11.279  -3.718   9.094  0.00  0.00    -0.066 A 
ATOM     25  C10 MPY d   1      12.399  -2.945   9.436  0.00  0.00    -0.056 A 
ATOM     26  H6  MPY d   1      10.354  -3.560   9.636  0.00  0.00     0.085 H 
ATOM     27  C24 MPY d   1      13.652  -3.105   8.759  0.00  0.00     0.030 A 
ATOM     28  H7  MPY d   1      12.315  -2.211  10.229  0.00  0.00     0.086 H 
ATOM     29  C11 MPY d   1      13.689  -4.108   7.717  0.00  0.00    -0.056 A 
ATOM     30  C12 MPY d   1      12.551  -4.878   7.383  0.00  0.00    -0.066 A 
ATOM     31  H8  MPY d   1      14.614  -4.274   7.178  0.00  0.00     0.086 H 
ATOM     32  H9  MPY d   1      12.626  -5.617   6.594  0.00  0.00     0.085 H 
BRANCH  27  33
ATOM     33  N17 MPY d   1      14.813  -2.300   9.109  0.00  0.00    -0.378 N 
ATOM     34  C18 MPY d   1      14.708  -1.164  10.105  0.00  0.00     0.018 C 
ATOM     35  C19 MPY d   1      16.073  -0.597  10.586  0.00  0.00     0.098 C 
ATOM     36  H12 MPY d   1      14.159  -1.529  10.985  0.00  0.00     0.066 H 
ATOM     37  H13 MPY d   1      14.143  -0.346   9.634  0.00  0.00     0.066 H 
ATOM     38  N20 MPY d   1      17.013  -0.289   9.480  0.00  0.00    -0.072 N 
ATOM     39  H14 MPY d   1      16.545  -1.340  11.246  0.00  0.00     0.078 H 
ATOM     40  H15 MPY d   1      15.885   0.328  11.150  0.00  0.00     0.078 H 
ATOM     41  C21 MPY d   1      17.022  -1.256   8.315  0.00  0.00     0.098 C 
ATOM     42  H16 MPY d   1      16.705   0.590   9.094  0.00  0.00     0.279 HD
ATOM     43  C22 MPY d   1      16.173  -2.545   8.518  0.00  0.00     0.018 C 
ATOM     44  H17 MPY d   1      18.063  -1.560   8.133  0.00  0.00     0.078 H 
ATOM     45  H18 MPY d   1      16.634  -0.728   7.431  0.00  0.00     0.078 H 
ATOM     46  H19 MPY d   1      16.042  -3.029   7.539  0.00  0.00     0.066 H 
ATOM     47  H20 MPY d   1      16.725  -3.219   9.190  0.00  0.00     0.066 H 
BRANCH  38  48
ATOM     48  C23 MPY d   1      18.355  -0.060  10.025  0.00  0.00     0.066 C 
ATOM     49  H21 MPY d   1      18.294   0.647  10.866  0.00  0.00     0.068 H 
ATOM     50  H22 MPY d   1      19.003   0.358   9.241  0.00  0.00     0.068 H 
ATOM     51  H23 MPY d   1      18.775  -1.013  10.378  0.00  0.00     0.068 H 
ENDBRANCH  38  48
ENDBRANCH  27  33
ENDBRANCH  20  23
ENDBRANCH   3  19
BRANCH  11  52
ATOM     52  C27 MPY d   1       2.637  -5.513   8.276  0.00  0.00     0.049 A 
ATOM     53  C28 MPY d   1       2.173  -4.518   7.318  0.00  0.00    -0.031 A 
ATOM     54  C31 MPY d   1       0.936  -3.855   7.582  0.00  0.00    -0.075 A 
ATOM     55  C35 MPY d   1       0.166  -4.139   8.728  0.00  0.00    -0.082 A 
ATOM     56  H25 MPY d   1       0.578  -3.111   6.880  0.00  0.00     0.084 H 
ATOM     57  C33 MPY d   1       0.623  -5.103   9.641  0.00  0.00    -0.075 A 
ATOM     58  H31 MPY d   1      -0.769  -3.619   8.903  0.00  0.00     0.083 H 
ATOM     59  C29 MPY d   1       1.845  -5.806   9.451  0.00  0.00    -0.031 A 
ATOM     60  H28 MPY d   1       0.025  -5.319  10.519  0.00  0.00     0.084 H 
BRANCH  53  61
ATOM     61  C32 MPY d   1       2.927  -4.133   6.034  0.00  0.00    -0.042 C 
ATOM     62  H26 MPY d   1       2.249  -3.570   5.376  0.00  0.00     0.039 H 
ATOM     63  H27 MPY d   1       3.256  -5.050   5.523  0.00  0.00     0.039 H 
BRANCH  61  64
ATOM     64  C36 MPY d   1       4.155  -3.267   6.346  0.00  0.00    -0.073 C 
ATOM     65  H32 MPY d   1       4.670  -3.010   5.409  0.00  0.00     0.028 H 
ATOM     66  H33 MPY d   1       4.841  -3.825   7.000  0.00  0.00     0.028 H 
ATOM     67  H34 MPY d   1       3.834  -2.345   6.853  0.00  0.00     0.028 H 
ENDBRANCH  61  64
ENDBRANCH  53  61
BRANCH  59  68
ATOM     68  C34 MPY d   1       2.204  -6.820  10.523  0.00  0.00    -0.042 C 
ATOM     69  H29 MPY d   1       2.677  -7.690  10.044  0.00  0.00     0.039 H 
ATOM     70  H30 MPY d   1       1.283  -7.138  11.033  0.00  0.00     0.039 H 
BRANCH  68  71
ATOM     71  C37 MPY d   1       3.171  -6.241  11.563  0.00  0.00    -0.073 C 
ATOM     72  H35 MPY d   1       3.402  -7.008  12.316  0.00  0.00     0.028 H 
ATOM     73  H36 MPY d   1       2.705  -5.374  12.054  0.00  0.00     0.028 H 
ATOM     74  H37 MPY d   1       4.100  -5.926  11.065  0.00  0.00     0.028 H 
ENDBRANCH  68  71
ENDBRANCH  59  68
ENDBRANCH  11  52
TORSDOF 9
