REMARK  10 active torsions:
REMARK  status: ('A' for Active; 'I' for Inactive)
REMARK    1  A    between atoms: C1_1  and  O7_7 
REMARK    2  A    between atoms: C2_2  and  O8_8 
REMARK    3  A    between atoms: C4_4  and  C23_19 
REMARK    4  A    between atoms: O7_7  and  C7_35 
REMARK    5  A    between atoms: O8_8  and  C9_9 
REMARK    6  A    between atoms: C9_9  and  C10_10 
REMARK    7  A    between atoms: C10_10  and  C13_11 
REMARK       I    between atoms: C23_19  and  N24_20 
REMARK    8  A    between atoms: N24_20  and  C25_21 
REMARK    9  A    between atoms: C25_21  and  C26_22 
REMARK   10  A    between atoms: N31_25  and  C43_28 
ROOT
ATOM      1  C1  I1H d   1       3.812   7.990  25.307  0.00  0.00     0.101 A 
ATOM      2  C2  I1H d   1       5.028   7.578  24.588  0.00  0.00     0.103 A 
ATOM      3  C3  I1H d   1       4.991   6.493  23.585  0.00  0.00    -0.033 A 
ATOM      4  C4  I1H d   1       3.746   5.779  23.314  0.00  0.00     0.034 A 
ATOM      5  C5  I1H d   1       2.526   6.132  24.059  0.00  0.00    -0.065 A 
ATOM      6  C6  I1H d   1       2.566   7.238  25.034  0.00  0.00    -0.047 A 
ATOM      7  H1  I1H d   1       5.893   6.226  23.047  0.00  0.00     0.089 H 
ATOM      8  H2  I1H d   1       1.606   5.583  23.892  0.00  0.00     0.085 H 
ATOM      9  H3  I1H d   1       1.660   7.507  25.564  0.00  0.00     0.087 H 
ENDROOT
BRANCH   4  10
ATOM     10  C23 I1H d   1       3.717   4.800  22.257  0.00  0.00     0.251 C 
ATOM     11  N24 I1H d   1       4.849   4.055  22.133  0.00  0.00    -0.356 N 
ATOM     12  H11 I1H d   1       5.615   4.095  22.775  0.00  0.00     0.162 HD
ATOM     13  O52 I1H d   1       2.734   4.668  21.527  0.00  0.00    -0.268 OA
BRANCH  11  14
ATOM     14  C25 I1H d   1       4.818   3.192  20.958  0.00  0.00    -0.001 C 
ATOM     15  H12 I1H d   1       3.818   3.240  20.503  0.00  0.00     0.064 H 
ATOM     16  H13 I1H d   1       5.032   2.158  21.265  0.00  0.00     0.064 H 
BRANCH  14  17
ATOM     17  C26 I1H d   1       5.857   3.634  19.930  0.00  0.00    -0.036 C 
ATOM     18  C29 I1H d   1       7.264   3.301  20.413  0.00  0.00    -0.045 C 
ATOM     19  C30 I1H d   1       8.351   3.598  19.381  0.00  0.00    -0.004 C 
ATOM     20  H15 I1H d   1       7.303   2.230  20.660  0.00  0.00     0.036 H 
ATOM     21  H16 I1H d   1       7.471   3.893  21.316  0.00  0.00     0.036 H 
ATOM     22  N31 I1H d   1       8.023   2.894  18.106  0.00  0.00    -0.381 N 
ATOM     23  H17 I1H d   1       9.322   3.244  19.757  0.00  0.00     0.064 H 
ATOM     24  H18 I1H d   1       8.401   4.682  19.201  0.00  0.00     0.064 H 
ATOM     25  C32 I1H d   1       6.689   3.252  17.561  0.00  0.00    -0.004 C 
ATOM     26  C33 I1H d   1       5.649   2.891  18.609  0.00  0.00    -0.045 C 
ATOM     27  H19 I1H d   1       6.499   2.689  16.635  0.00  0.00     0.064 H 
ATOM     28  H20 I1H d   1       6.648   4.331  17.349  0.00  0.00     0.064 H 
ATOM     29  H21 I1H d   1       4.653   3.143  18.217  0.00  0.00     0.036 H 
ATOM     30  H22 I1H d   1       5.705   1.809  18.801  0.00  0.00     0.036 H 
ATOM     31  H14 I1H d   1       5.765   4.718  19.767  0.00  0.00     0.042 H 
BRANCH  22  32
ATOM     32  C43 I1H d   1       8.817   1.895  17.526  0.00  0.00     0.032 A 
ATOM     33  C44 I1H d   1      10.162   1.612  18.044  0.00  0.00    -0.041 A 
ATOM     34  C45 I1H d   1      10.904   0.499  17.488  0.00  0.00     0.004 A 
ATOM     35  H23 I1H d   1      10.592   2.225  18.828  0.00  0.00     0.089 H 
ATOM     36  N46 I1H d   1      10.301  -0.243  16.475  0.00  0.00    -0.273 NA
ATOM     37  H24 I1H d   1      11.896   0.252  17.848  0.00  0.00     0.114 H 
ATOM     38  C47 I1H d   1       9.047  -0.017  15.914  0.00  0.00     0.004 A 
ATOM     39  C48 I1H d   1       8.269   1.076  16.433  0.00  0.00    -0.041 A 
ATOM     40  H25 I1H d   1       8.670  -0.643  15.114  0.00  0.00     0.114 H 
ATOM     41  H26 I1H d   1       7.289   1.294  16.023  0.00  0.00     0.089 H 
ENDBRANCH  22  32
ENDBRANCH  14  17
ENDBRANCH  11  14
ENDBRANCH   4  10
BRANCH   2  42
ATOM     42  O8  I1H d   1       6.162   8.269  24.907  0.00  0.00    -0.348 OA
BRANCH  42  43
ATOM     43  C9  I1H d   1       7.403   7.587  24.937  0.00  0.00     0.030 C 
ATOM     44  H4  I1H d   1       7.782   7.387  23.924  0.00  0.00     0.075 H 
ATOM     45  H5  I1H d   1       7.335   6.642  25.496  0.00  0.00     0.075 H 
BRANCH  43  46
ATOM     46  C10 I1H d   1       8.252   8.602  25.660  0.00  0.00    -0.019 C 
ATOM     47  H6  I1H d   1       7.810   8.786  26.651  0.00  0.00     0.043 H 
ATOM     48  H7  I1H d   1       8.251   9.536  25.079  0.00  0.00     0.043 H 
BRANCH  46  49
ATOM     49  C13 I1H d   1       9.665   8.160  25.845  0.00  0.00    -0.034 A 
ATOM     50  C16 I1H d   1      10.095   7.548  27.106  0.00  0.00    -0.074 A 
ATOM     51  C17 I1H d   1      11.506   7.212  27.349  0.00  0.00    -0.061 A 
ATOM     52  H8  I1H d   1       9.359   7.339  27.874  0.00  0.00     0.084 H 
ATOM     53  C18 I1H d   1      12.493   7.454  26.290  0.00  0.00     0.035 A 
ATOM     54  H9  I1H d   1      11.813   6.790  28.299  0.00  0.00     0.086 H 
ATOM     55  C19 I1H d   1      12.068   8.034  25.029  0.00  0.00    -0.040 A 
ATOM     56 CL22 I1H d   1      14.131   7.096  26.502  0.00  0.00    -0.084 Cl
ATOM     57  C20 I1H d   1      10.674   8.395  24.824  0.00  0.00     0.042 A 
ATOM     58  H10 I1H d   1      12.791   8.198  24.238  0.00  0.00     0.088 H 
ATOM     59 CL21 I1H d   1      10.297   9.149  23.375  0.00  0.00    -0.084 Cl
ENDBRANCH  46  49
ENDBRANCH  43  46
ENDBRANCH  42  43
ENDBRANCH   2  42
BRANCH   1  60
ATOM     60  O7  I1H d   1       3.928   9.068  26.204  0.00  0.00    -0.353 OA
BRANCH  60  61
ATOM     61  C7  I1H d   1       2.783   9.903  26.438  0.00  0.00     0.010 C 
ATOM     62  H27 I1H d   1       3.045  10.691  27.160  0.00  0.00     0.066 H 
ATOM     63  H28 I1H d   1       1.961   9.294  26.843  0.00  0.00     0.066 H 
ATOM     64  H29 I1H d   1       2.466  10.364  25.491  0.00  0.00     0.066 H 
ENDBRANCH  60  61
ENDBRANCH   1  60
TORSDOF 10
