REMARK  6 active torsions:
REMARK  status: ('A' for Active; 'I' for Inactive)
REMARK    1  A    between atoms: C1_1  and  O1_7 
REMARK    2  A    between atoms: C2_2  and  O2_8 
REMARK    3  A    between atoms: C3_3  and  O3_9 
REMARK    4  A    between atoms: C4_4  and  O4_10 
REMARK    5  A    between atoms: C5_5  and  C6_6 
REMARK    6  A    between atoms: O1_7  and  CM_12 
ROOT
ATOM      1  C1  MFU d   1      35.630  21.260  20.859  0.00  0.00     0.158 C 
ATOM      2  C2  MFU d   1      35.231  19.835  20.517  0.00  0.00     0.110 C 
ATOM      3  C3  MFU d   1      34.740  19.125  21.765  0.00  0.00     0.092 C 
ATOM      4  C4  MFU d   1      33.630  19.897  22.446  0.00  0.00     0.087 C 
ATOM      5  C5  MFU d   1      34.095  21.320  22.707  0.00  0.00     0.065 C 
ATOM      6  O5  MFU d   1      34.534  21.926  21.475  0.00  0.00    -0.351 OA
ATOM      7  H1  MFU d   1      35.915  21.797  19.942  0.00  0.00     0.133 H 
ATOM      8  H2  MFU d   1      34.419  19.873  19.776  0.00  0.00     0.094 H 
ATOM      9  H3  MFU d   1      35.578  19.023  22.471  0.00  0.00     0.091 H 
ATOM     10  H4  MFU d   1      33.384  19.426  23.409  0.00  0.00     0.091 H 
ATOM     11  H5  MFU d   1      34.936  21.292  23.415  0.00  0.00     0.086 H 
ENDROOT
BRANCH   1  12
ATOM     12  O1  MFU d   1      36.738  21.210  21.746  0.00  0.00    -0.363 OA
BRANCH  12  13
ATOM     13  CM  MFU d   1      37.248  22.522  22.066  0.00  0.00     0.007 C 
ATOM     14  H12 MFU d   1      38.102  22.426  22.753  0.00  0.00     0.066 H 
ATOM     15  H13 MFU d   1      36.456  23.116  22.546  0.00  0.00     0.066 H 
ATOM     16  H14 MFU d   1      37.575  23.023  21.143  0.00  0.00     0.066 H 
ENDBRANCH  12  13
ENDBRANCH   1  12
BRANCH   2  17
ATOM     17  O2  MFU d   1      36.305  19.063  19.980  0.00  0.00    -0.388 OA
ATOM     18  H9  MFU d   1      36.635  19.484  19.195  0.00  0.00     0.210 HD
ENDBRANCH   2  17
BRANCH   3  19
ATOM     19  O3  MFU d   1      34.280  17.812  21.382  0.00  0.00    -0.390 OA
ATOM     20  H10 MFU d   1      34.002  17.337  22.156  0.00  0.00     0.210 HD
ENDBRANCH   3  19
BRANCH   5  21
ATOM     21  C6  MFU d   1      32.981  22.159  23.301  0.00  0.00    -0.050 C 
ATOM     22  H6  MFU d   1      33.347  23.181  23.479  0.00  0.00     0.031 H 
ATOM     23  H7  MFU d   1      32.656  21.715  24.254  0.00  0.00     0.031 H 
ATOM     24  H8  MFU d   1      32.132  22.189  22.602  0.00  0.00     0.031 H 
ENDBRANCH   5  21
BRANCH   4  25
ATOM     25  O4  MFU d   1      32.482  19.827  21.583  0.00  0.00    -0.390 OA
ATOM     26  H11 MFU d   1      31.759  20.298  21.981  0.00  0.00     0.210 HD
ENDBRANCH   4  25
TORSDOF 6
