REMARK  4 active torsions:
REMARK  status: ('A' for Active; 'I' for Inactive)
REMARK    1  A    between atoms: P_1  and  C1A_2 
REMARK    2  A    between atoms: P_1  and  C1C_8 
REMARK    3  A    between atoms: P_1  and  C1D_14 
REMARK    4  A    between atoms: C1B_25  and  P_1 
ROOT
ATOM      1  P   P4P d   1     -16.445  73.074  26.211  0.00  0.00    -0.019 P 
ENDROOT
BRANCH   1   2
ATOM      2  C1A P4P d   1     -16.254  74.375  25.032  0.00  0.00    -0.022 A 
ATOM      3  C2A P4P d   1     -16.972  75.572  25.090  0.00  0.00    -0.072 A 
ATOM      4  C3A P4P d   1     -16.775  76.560  24.123  0.00  0.00    -0.082 A 
ATOM      5  H1  P4P d   1     -17.686  75.735  25.890  0.00  0.00     0.084 H 
ATOM      6  C4A P4P d   1     -15.854  76.358  23.092  0.00  0.00    -0.083 A 
ATOM      7  H2  P4P d   1     -17.338  77.485  24.172  0.00  0.00     0.083 H 
ATOM      8  C5A P4P d   1     -15.132  75.168  23.025  0.00  0.00    -0.082 A 
ATOM      9  H3  P4P d   1     -15.701  77.127  22.344  0.00  0.00     0.083 H 
ATOM     10  C6A P4P d   1     -15.328  74.180  23.991  0.00  0.00    -0.072 A 
ATOM     11  H4  P4P d   1     -14.419  75.010  22.224  0.00  0.00     0.083 H 
ATOM     12  H5  P4P d   1     -14.763  73.256  23.939  0.00  0.00     0.084 H 
ENDBRANCH   1   2
BRANCH   1  13
ATOM     13  C1C P4P d   1     -15.260  73.254  27.521  0.00  0.00    -0.022 A 
ATOM     14  C6C P4P d   1     -13.935  73.551  27.178  0.00  0.00    -0.072 A 
ATOM     15  C5C P4P d   1     -12.955  73.699  28.172  0.00  0.00    -0.082 A 
ATOM     16  H6  P4P d   1     -13.664  73.668  26.135  0.00  0.00     0.084 H 
ATOM     17  C4C P4P d   1     -13.296  73.541  29.507  0.00  0.00    -0.083 A 
ATOM     18  H7  P4P d   1     -11.934  73.936  27.897  0.00  0.00     0.083 H 
ATOM     19  C3C P4P d   1     -14.611  73.239  29.861  0.00  0.00    -0.082 A 
ATOM     20  H8  P4P d   1     -12.540  73.652  30.276  0.00  0.00     0.083 H 
ATOM     21  C2C P4P d   1     -15.589  73.095  28.866  0.00  0.00    -0.072 A 
ATOM     22  H9  P4P d   1     -14.877  73.116  30.905  0.00  0.00     0.083 H 
ATOM     23  H10 P4P d   1     -16.609  72.858  29.145  0.00  0.00     0.084 H 
ENDBRANCH   1  13
BRANCH   1  24
ATOM     24  C1D P4P d   1     -16.209  71.507  25.315  0.00  0.00    -0.022 A 
ATOM     25  C6D P4P d   1     -16.781  71.408  24.039  0.00  0.00    -0.072 A 
ATOM     26  C5D P4P d   1     -16.643  70.240  23.287  0.00  0.00    -0.082 A 
ATOM     27  H11 P4P d   1     -17.335  72.246  23.633  0.00  0.00     0.084 H 
ATOM     28  C4D P4P d   1     -15.939  69.157  23.810  0.00  0.00    -0.083 A 
ATOM     29  H12 P4P d   1     -17.083  70.176  22.298  0.00  0.00     0.083 H 
ATOM     30  C3D P4P d   1     -15.373  69.232  25.084  0.00  0.00    -0.082 A 
ATOM     31  H13 P4P d   1     -15.830  68.251  23.224  0.00  0.00     0.083 H 
ATOM     32  C2D P4P d   1     -15.512  70.407  25.835  0.00  0.00    -0.072 A 
ATOM     33  H14 P4P d   1     -14.829  68.386  25.490  0.00  0.00     0.083 H 
ATOM     34  H15 P4P d   1     -15.077  70.466  26.826  0.00  0.00     0.084 H 
ENDBRANCH   1  24
BRANCH   1  35
ATOM     35  C1B P4P d   1     -18.032  73.032  26.975  0.00  0.00    -0.022 A 
ATOM     36  C6B P4P d   1     -18.870  71.954  26.641  0.00  0.00    -0.072 A 
ATOM     37  C5B P4P d   1     -20.142  71.831  27.199  0.00  0.00    -0.082 A 
ATOM     38  H16 P4P d   1     -18.522  71.206  25.938  0.00  0.00     0.084 H 
ATOM     39  C4B P4P d   1     -20.589  72.785  28.104  0.00  0.00    -0.083 A 
ATOM     40  H17 P4P d   1     -20.778  70.996  26.928  0.00  0.00     0.083 H 
ATOM     41  C3B P4P d   1     -19.766  73.868  28.451  0.00  0.00    -0.082 A 
ATOM     42  H18 P4P d   1     -21.576  72.693  28.543  0.00  0.00     0.083 H 
ATOM     43  C2B P4P d   1     -18.483  73.988  27.885  0.00  0.00    -0.072 A 
ATOM     44  H19 P4P d   1     -20.119  74.612  29.155  0.00  0.00     0.083 H 
ATOM     45  H20 P4P d   1     -17.846  74.822  28.156  0.00  0.00     0.084 H 
ENDBRANCH   1  35
TORSDOF 4
