REMARK  6 active torsions:
REMARK  status: ('A' for Active; 'I' for Inactive)
REMARK    1  A    between atoms: C21_21  and  N1_1 
REMARK    2  A    between atoms: N14_14  and  C8_8 
REMARK    3  A    between atoms: C10_10  and  C11_11 
REMARK       I    between atoms: C15_15  and  N14_14 
REMARK    4  A    between atoms: C16_16  and  C15_15 
REMARK    5  A    between atoms: C18_18  and  C16_16 
REMARK    6  A    between atoms: C16_16  and  C25_25 
ROOT
ATOM      1  C16 529 d   1      -7.865 206.049 112.861  0.00  0.00     0.046 C 
ATOM      2  H14 529 d   1      -7.697 206.686 111.980  0.00  0.00     0.061 H 
ENDROOT
BRANCH   1   3
ATOM      3  C15 529 d   1      -9.135 205.203 112.603  0.00  0.00     0.231 C 
ATOM      4  N14 529 d   1      -9.638 205.281 111.359  0.00  0.00    -0.311 N 
ATOM      5  H13 529 d   1      -9.097 205.843 110.734  0.00  0.00     0.170 HD
ATOM      6  O17 529 d   1      -9.649 204.532 113.513  0.00  0.00    -0.272 OA
BRANCH   4   7
ATOM      7  C8  529 d   1     -10.818 204.701 110.759  0.00  0.00     0.126 A 
ATOM      8  N7  529 d   1     -11.148 204.915 109.451  0.00  0.00    -0.262 N 
ATOM      9  N6  529 d   1     -12.296 204.266 109.225  0.00  0.00    -0.177 NA
ATOM     10  H6  529 d   1     -10.614 205.471 108.768  0.00  0.00     0.191 HD
ATOM     11  C10 529 d   1     -12.715 203.632 110.374  0.00  0.00     0.062 A 
ATOM     12  C9  529 d   1     -11.787 203.895 111.353  0.00  0.00    -0.013 A 
ATOM     13  H7  529 d   1     -11.805 203.544 112.384  0.00  0.00     0.092 H 
BRANCH  11  14
ATOM     14  C11 529 d   1     -14.002 202.803 110.492  0.00  0.00    -0.010 A 
ATOM     15  C12 529 d   1     -14.160 201.988 111.790  0.00  0.00    -0.056 A 
ATOM     16  C13 529 d   1     -15.229 203.003 111.322  0.00  0.00    -0.056 A 
ATOM     17  H9  529 d   1     -13.530 202.208 112.665  0.00  0.00     0.034 H 
ATOM     18  H10 529 d   1     -14.363 200.908 111.747  0.00  0.00     0.034 H 
ATOM     19  H11 529 d   1     -16.202 202.644 110.956  0.00  0.00     0.034 H 
ATOM     20  H12 529 d   1     -15.369 203.944 111.874  0.00  0.00     0.034 H 
ATOM     21  H8  529 d   1     -14.165 202.324 109.515  0.00  0.00     0.049 H 
ENDBRANCH  11  14
ENDBRANCH   4   7
ENDBRANCH   1   3
BRANCH   1  22
ATOM     22  C18 529 d   1      -6.622 205.156 113.026  0.00  0.00    -0.045 A 
ATOM     23  C19 529 d   1      -5.822 204.910 111.875  0.00  0.00    -0.074 A 
ATOM     24  C20 529 d   1      -4.679 204.101 111.972  0.00  0.00    -0.056 A 
ATOM     25  H15 529 d   1      -6.096 205.348 110.922  0.00  0.00     0.084 H 
ATOM     26  C21 529 d   1      -4.290 203.503 113.223  0.00  0.00     0.038 A 
ATOM     27  H16 529 d   1      -4.077 203.923 111.088  0.00  0.00     0.086 H 
ATOM     28  C22 529 d   1      -5.114 203.767 114.374  0.00  0.00    -0.056 A 
ATOM     29  C23 529 d   1      -6.254 204.575 114.281  0.00  0.00    -0.074 A 
ATOM     30  H17 529 d   1      -4.847 203.332 115.330  0.00  0.00     0.086 H 
ATOM     31  H18 529 d   1      -6.859 204.761 115.161  0.00  0.00     0.084 H 
BRANCH  26  32
ATOM     32  N1  529 d   1      -3.063 202.626 113.350  0.00  0.00    -0.298 N 
ATOM     33  C2  529 d   1      -2.654 201.998 114.635  0.00  0.00     0.019 A 
ATOM     34  C3  529 d   1      -1.380 201.211 114.300  0.00  0.00     0.012 A 
ATOM     35  H1  529 d   1      -3.440 201.323 115.004  0.00  0.00     0.067 H 
ATOM     36  H2  529 d   1      -2.446 202.767 115.393  0.00  0.00     0.067 H 
ATOM     37  N4  529 d   1      -1.223 201.486 112.879  0.00  0.00    -0.341 N 
ATOM     38  H3  529 d   1      -1.513 200.135 114.487  0.00  0.00     0.066 H 
ATOM     39  H4  529 d   1      -0.519 201.579 114.876  0.00  0.00     0.066 H 
ATOM     40  C5  529 d   1      -2.162 202.261 112.403  0.00  0.00     0.323 A 
ATOM     41  H5  529 d   1      -0.475 201.120 112.325  0.00  0.00     0.164 HD
ATOM     42  O24 529 d   1      -2.158 202.584 111.201  0.00  0.00    -0.247 OA
ENDBRANCH  26  32
ENDBRANCH   1  22
BRANCH   1  43
ATOM     43  C25 529 d   1      -8.095 206.986 114.085  0.00  0.00    -0.061 C 
ATOM     44  H19 529 d   1      -8.992 207.599 113.914  0.00  0.00     0.029 H 
ATOM     45  H20 529 d   1      -7.222 207.642 114.213  0.00  0.00     0.029 H 
ATOM     46  H21 529 d   1      -8.233 206.378 114.991  0.00  0.00     0.029 H 
ENDBRANCH   1  43
TORSDOF 6
