REMARK  17 active torsions:
REMARK  status: ('A' for Active; 'I' for Inactive)
REMARK    1  A    between atoms: N1_1  and  C31_39 
REMARK    2  A    between atoms: C2_3  and  C3_4 
REMARK       I    between atoms: C3_4  and  N2_6 
REMARK    3  A    between atoms: N2_6  and  C4_7 
REMARK    4  A    between atoms: C4_7  and  C5_8 
REMARK    5  A    between atoms: C4_7  and  C6_9 
REMARK    6  A    between atoms: C4_7  and  C7_10 
REMARK    7  A    between atoms: N3_11  and  C10_14 
REMARK    8  A    between atoms: C10_14  and  C11_15 
REMARK    9  A    between atoms: C11_15  and  O2_16 
REMARK   10  A    between atoms: C11_15  and  C12_17 
REMARK   11  A    between atoms: C12_17  and  C13_18 
REMARK   12  A    between atoms: C13_18  and  C14_19 
REMARK   13  A    between atoms: C13_18  and  C21_26 
REMARK   14  A    between atoms: C14_19  and  C15_20 
REMARK       I    between atoms: C21_26  and  N4_28 
REMARK   15  A    between atoms: N4_28  and  C22_29 
REMARK   16  A    between atoms: C23_30  and  O4_31 
REMARK   17  A    between atoms: C31_39  and  C32_40 
ROOT
ATOM      1  C10 MK1 d   1      13.070  25.495   4.565  0.00  0.00     0.108 C 
ATOM      2  H20 MK1 d   1      12.842  26.370   5.192  0.00  0.00     0.080 H 
ATOM      3  H21 MK1 d   1      13.284  25.826   3.538  0.00  0.00     0.080 H 
ENDROOT
BRANCH   1   4
ATOM      4  N3  MK1 d   1      11.861  24.645   4.522  0.00  0.00    -0.053 N 
ATOM      5  C2  MK1 d   1      10.700  25.463   4.954  0.00  0.00     0.203 C 
ATOM      6  C1  MK1 d   1       9.403  24.738   4.569  0.00  0.00     0.119 C 
ATOM      7  H4  MK1 d   1      10.734  26.440   4.449  0.00  0.00     0.102 H 
ATOM      8  N1  MK1 d   1       9.335  24.468   3.114  0.00  0.00    -0.063 N 
ATOM      9  H2  MK1 d   1       9.355  23.782   5.111  0.00  0.00     0.080 H 
ATOM     10  H3  MK1 d   1       8.546  25.365   4.855  0.00  0.00     0.080 H 
ATOM     11  C9  MK1 d   1      10.505  23.698   2.690  0.00  0.00     0.106 C 
ATOM     12  H1  MK1 d   1       9.233  25.319   2.583  0.00  0.00     0.280 HD
ATOM     13  C8  MK1 d   1      11.778  24.429   3.071  0.00  0.00     0.107 C 
ATOM     14  H18 MK1 d   1      10.476  23.564   1.599  0.00  0.00     0.078 H 
ATOM     15  H19 MK1 d   1      10.490  22.714   3.181  0.00  0.00     0.078 H 
ATOM     16  H16 MK1 d   1      12.643  23.832   2.748  0.00  0.00     0.078 H 
ATOM     17  H17 MK1 d   1      11.796  25.404   2.563  0.00  0.00     0.078 H 
ATOM     18  H15 MK1 d   1      11.941  23.794   5.056  0.00  0.00     0.281 HD
BRANCH   5  19
ATOM     19  C3  MK1 d   1      10.751  25.677   6.456  0.00  0.00     0.251 C 
ATOM     20  O1  MK1 d   1      11.153  24.780   7.197  0.00  0.00    -0.271 OA
ATOM     21  N2  MK1 d   1      10.334  26.899   6.871  0.00  0.00    -0.351 N 
ATOM     22  H5  MK1 d   1      10.207  27.618   6.187  0.00  0.00     0.163 HD
BRANCH  21  23
ATOM     23  C4  MK1 d   1      10.062  27.213   8.273  0.00  0.00     0.022 C 
BRANCH  23  24
ATOM     24  C5  MK1 d   1       9.468  28.612   8.385  0.00  0.00    -0.054 C 
ATOM     25  H6  MK1 d   1       9.266  28.841   9.442  0.00  0.00     0.030 H 
ATOM     26  H7  MK1 d   1       8.529  28.659   7.814  0.00  0.00     0.030 H 
ATOM     27  H8  MK1 d   1      10.180  29.346   7.980  0.00  0.00     0.030 H 
ENDBRANCH  23  24
BRANCH  23  28
ATOM     28  C6  MK1 d   1      11.367  27.124   9.106  0.00  0.00    -0.054 C 
ATOM     29  H9  MK1 d   1      11.148  27.362  10.157  0.00  0.00     0.030 H 
ATOM     30  H10 MK1 d   1      12.102  27.841   8.713  0.00  0.00     0.030 H 
ATOM     31  H11 MK1 d   1      11.776  26.105   9.039  0.00  0.00     0.030 H 
ENDBRANCH  23  28
BRANCH  23  32
ATOM     32  C7  MK1 d   1       8.938  26.303   8.787  0.00  0.00    -0.054 C 
ATOM     33  H12 MK1 d   1       8.731  26.537   9.842  0.00  0.00     0.030 H 
ATOM     34  H13 MK1 d   1       9.248  25.251   8.698  0.00  0.00     0.030 H 
ATOM     35  H14 MK1 d   1       8.030  26.469   8.189  0.00  0.00     0.030 H 
ENDBRANCH  23  32
ENDBRANCH  21  23
ENDBRANCH   5  19
BRANCH   8  36
ATOM     36  C31 MK1 d   1       8.209  23.546   2.930  0.00  0.00     0.108 C 
ATOM     37  H44 MK1 d   1       8.182  22.851   3.783  0.00  0.00     0.083 H 
ATOM     38  H45 MK1 d   1       8.368  22.980   2.000  0.00  0.00     0.083 H 
BRANCH  36  39
ATOM     39  C32 MK1 d   1       6.865  24.259   2.841  0.00  0.00    -0.015 A 
ATOM     40  C33 MK1 d   1       6.625  25.242   1.856  0.00  0.00     0.009 A 
ATOM     41  N5  MK1 d   1       5.428  25.834   1.770  0.00  0.00    -0.273 NA
ATOM     42  H46 MK1 d   1       7.414  25.518   1.166  0.00  0.00     0.115 H 
ATOM     43  C34 MK1 d   1       4.420  25.529   2.603  0.00  0.00     0.002 A 
ATOM     44  C35 MK1 d   1       4.556  24.555   3.624  0.00  0.00    -0.066 A 
ATOM     45  H47 MK1 d   1       3.473  26.044   2.491  0.00  0.00     0.114 H 
ATOM     46  C36 MK1 d   1       5.814  23.924   3.724  0.00  0.00    -0.072 A 
ATOM     47  H48 MK1 d   1       3.738  24.308   4.291  0.00  0.00     0.085 H 
ATOM     48  H49 MK1 d   1       5.976  23.172   4.488  0.00  0.00     0.084 H 
ENDBRANCH  36  39
ENDBRANCH   8  36
ENDBRANCH   1   4
BRANCH   1  49
ATOM     49  C11 MK1 d   1      14.349  24.839   5.122  0.00  0.00     0.059 C 
ATOM     50  H22 MK1 d   1      14.494  23.887   4.591  0.00  0.00     0.085 H 
BRANCH  49  51
ATOM     51  O2  MK1 d   1      15.309  25.667   4.829  0.00  0.00    -0.394 OA
ATOM     52  H23 MK1 d   1      15.354  25.778   3.886  0.00  0.00     0.210 HD
ENDBRANCH  49  51
BRANCH  49  53
ATOM     53  C12 MK1 d   1      14.449  24.542   6.632  0.00  0.00    -0.028 C 
ATOM     54  H24 MK1 d   1      13.537  24.000   6.923  0.00  0.00     0.038 H 
ATOM     55  H25 MK1 d   1      14.485  25.508   7.157  0.00  0.00     0.038 H 
BRANCH  53  56
ATOM     56  C13 MK1 d   1      15.649  23.713   7.109  0.00  0.00     0.029 C 
ATOM     57  H26 MK1 d   1      16.564  24.198   6.737  0.00  0.00     0.055 H 
BRANCH  56  58
ATOM     58  C14 MK1 d   1      15.755  23.609   8.630  0.00  0.00    -0.029 C 
ATOM     59  H27 MK1 d   1      14.821  23.183   9.025  0.00  0.00     0.041 H 
ATOM     60  H28 MK1 d   1      15.905  24.616   9.047  0.00  0.00     0.041 H 
BRANCH  58  61
ATOM     61  C15 MK1 d   1      16.913  22.726   9.048  0.00  0.00    -0.057 A 
ATOM     62  C16 MK1 d   1      18.239  22.993   8.666  0.00  0.00    -0.077 A 
ATOM     63  C17 MK1 d   1      19.270  22.089   8.983  0.00  0.00    -0.082 A 
ATOM     64  H29 MK1 d   1      18.469  23.902   8.123  0.00  0.00     0.084 H 
ATOM     65  C18 MK1 d   1      18.935  20.914   9.697  0.00  0.00    -0.083 A 
ATOM     66  H30 MK1 d   1      20.294  22.288   8.688  0.00  0.00     0.083 H 
ATOM     67  C19 MK1 d   1      17.615  20.646  10.122  0.00  0.00    -0.082 A 
ATOM     68  H31 MK1 d   1      19.716  20.197   9.925  0.00  0.00     0.083 H 
ATOM     69  C20 MK1 d   1      16.611  21.574   9.787  0.00  0.00    -0.077 A 
ATOM     70  H32 MK1 d   1      17.382  19.752  10.689  0.00  0.00     0.083 H 
ATOM     71  H33 MK1 d   1      15.590  21.395  10.105  0.00  0.00     0.084 H 
ENDBRANCH  58  61
ENDBRANCH  56  58
BRANCH  56  72
ATOM     72  C21 MK1 d   1      15.565  22.340   6.535  0.00  0.00     0.222 C 
ATOM     73  O3  MK1 d   1      14.518  21.691   6.570  0.00  0.00    -0.273 OA
ATOM     74  N4  MK1 d   1      16.733  21.894   6.090  0.00  0.00    -0.350 N 
ATOM     75  H34 MK1 d   1      17.490  22.528   5.934  0.00  0.00     0.163 HD
BRANCH  74  76
ATOM     76  C22 MK1 d   1      16.899  20.476   5.832  0.00  0.00     0.063 C 
ATOM     77  C23 MK1 d   1      18.345  19.997   6.079  0.00  0.00     0.063 C 
ATOM     78  C24 MK1 d   1      18.469  18.621   5.496  0.00  0.00    -0.014 C 
ATOM     79  H36 MK1 d   1      18.564  20.003   7.157  0.00  0.00     0.087 H 
ATOM     80  C25 MK1 d   1      17.611  18.938   4.248  0.00  0.00    -0.047 A 
ATOM     81  H38 MK1 d   1      18.029  17.841   6.135  0.00  0.00     0.044 H 
ATOM     82  H39 MK1 d   1      19.506  18.350   5.248  0.00  0.00     0.044 H 
ATOM     83  C26 MK1 d   1      17.597  18.220   3.032  0.00  0.00    -0.076 A 
ATOM     84  C30 MK1 d   1      16.761  20.034   4.452  0.00  0.00    -0.027 A 
ATOM     85  C27 MK1 d   1      16.696  18.666   2.038  0.00  0.00    -0.082 A 
ATOM     86  H40 MK1 d   1      18.246  17.367   2.869  0.00  0.00     0.084 H 
ATOM     87  C28 MK1 d   1      15.857  19.802   2.247  0.00  0.00    -0.082 A 
ATOM     88  H41 MK1 d   1      16.641  18.133   1.096  0.00  0.00     0.083 H 
ATOM     89  C29 MK1 d   1      15.877  20.495   3.480  0.00  0.00    -0.074 A 
ATOM     90  H42 MK1 d   1      15.199  20.137   1.454  0.00  0.00     0.083 H 
ATOM     91  H43 MK1 d   1      15.232  21.348   3.660  0.00  0.00     0.084 H 
ATOM     92  H35 MK1 d   1      16.188  19.937   6.475  0.00  0.00     0.084 H 
BRANCH  77  93
ATOM     93  O4  MK1 d   1      19.245  20.714   5.416  0.00  0.00    -0.393 OA
ATOM     94  H37 MK1 d   1      20.114  20.379   5.602  0.00  0.00     0.210 HD
ENDBRANCH  77  93
ENDBRANCH  74  76
ENDBRANCH  56  72
ENDBRANCH  53  56
ENDBRANCH  49  53
ENDBRANCH   1  49
TORSDOF 17
