REMARK  9 active torsions:
REMARK  status: ('A' for Active; 'I' for Inactive)
REMARK    1  A    between atoms: C2_2  and  C11_36 
REMARK    2  A    between atoms: N7_7  and  C37_21 
REMARK    3  A    between atoms: C8_8  and  C10_10 
REMARK       I    between atoms: C10_10  and  N11_11 
REMARK    4  A    between atoms: N11_11  and  C12_12 
REMARK    5  A    between atoms: N15_15  and  C27_18 
REMARK    6  A    between atoms: C27_18  and  C28_19 
REMARK    7  A    between atoms: C27_18  and  C32_20 
REMARK    8  A    between atoms: C37_21  and  C38_22 
REMARK    9  A    between atoms: C43_25  and  C45_27 
ROOT
ATOM      1  C1  IIB d   1       1.483   7.445  25.188  0.00  0.00    -0.075 A 
ATOM      2  C2  IIB d   1       2.601   7.734  24.334  0.00  0.00    -0.034 A 
ATOM      3  C3  IIB d   1       3.280   6.672  23.618  0.00  0.00     0.053 A 
ATOM      4  C4  IIB d   1       2.786   5.315  23.801  0.00  0.00     0.015 A 
ATOM      5  C5  IIB d   1       1.664   5.054  24.663  0.00  0.00    -0.069 A 
ATOM      6  C6  IIB d   1       1.013   6.109  25.355  0.00  0.00    -0.082 A 
ATOM      7  N7  IIB d   1       4.390   6.560  22.705  0.00  0.00    -0.334 N 
ATOM      8  C8  IIB d   1       4.605   5.209  22.330  0.00  0.00     0.125 A 
ATOM      9  C9  IIB d   1       3.610   4.452  23.004  0.00  0.00     0.089 A 
ATOM     10  C7  IIB d   1       3.394   3.014  22.948  0.00  0.00     0.103 C 
ATOM     11  N1  IIB d   1       3.185   1.889  22.885  0.00  0.00    -0.191 NA
ATOM     12  H1  IIB d   1       0.989   8.254  25.713  0.00  0.00     0.084 H 
ATOM     13  H2  IIB d   1       1.310   4.037  24.786  0.00  0.00     0.085 H 
ATOM     14  H3  IIB d   1       0.169   5.902  26.003  0.00  0.00     0.083 H 
ENDROOT
BRANCH   8  15
ATOM     15  C10 IIB d   1       5.620   4.702  21.455  0.00  0.00     0.270 C 
ATOM     16  N11 IIB d   1       5.280   3.771  20.539  0.00  0.00    -0.351 N 
ATOM     17  H4  IIB d   1       4.310   3.593  20.376  0.00  0.00     0.163 HD
ATOM     18  O56 IIB d   1       6.784   5.073  21.573  0.00  0.00    -0.266 OA
BRANCH  16  19
ATOM     19  C12 IIB d   1       6.271   3.009  19.773  0.00  0.00     0.015 C 
ATOM     20  C13 IIB d   1       6.024   1.500  19.873  0.00  0.00    -0.023 C 
ATOM     21  C14 IIB d   1       7.101   0.746  19.044  0.00  0.00     0.086 C 
ATOM     22  H6  IIB d   1       5.025   1.264  19.478  0.00  0.00     0.038 H 
ATOM     23  H7  IIB d   1       6.085   1.187  20.926  0.00  0.00     0.038 H 
ATOM     24  N15 IIB d   1       7.184   1.264  17.626  0.00  0.00    -0.067 N 
ATOM     25  H8  IIB d   1       6.846  -0.324  19.018  0.00  0.00     0.076 H 
ATOM     26  H9  IIB d   1       8.080   0.877  19.529  0.00  0.00     0.076 H 
ATOM     27  C16 IIB d   1       7.440   2.722  17.537  0.00  0.00     0.086 C 
ATOM     28  H10 IIB d   1       6.266   1.107  17.240  0.00  0.00     0.280 HD
ATOM     29  C17 IIB d   1       6.328   3.477  18.298  0.00  0.00    -0.023 C 
ATOM     30  H11 IIB d   1       7.440   3.032  16.482  0.00  0.00     0.076 H 
ATOM     31  H12 IIB d   1       8.417   2.953  17.987  0.00  0.00     0.076 H 
ATOM     32  H13 IIB d   1       6.537   4.557  18.268  0.00  0.00     0.038 H 
ATOM     33  H14 IIB d   1       5.359   3.277  17.817  0.00  0.00     0.038 H 
ATOM     34  H5  IIB d   1       7.256   3.210  20.220  0.00  0.00     0.072 H 
BRANCH  24  35
ATOM     35  C27 IIB d   1       8.152   0.571  16.693  0.00  0.00     0.097 C 
ATOM     36  H15 IIB d   1       8.887   1.312  16.345  0.00  0.00     0.083 H 
BRANCH  35  37
ATOM     37  C28 IIB d   1       7.350   0.062  15.497  0.00  0.00    -0.050 C 
ATOM     38  H16 IIB d   1       8.024  -0.450  14.794  0.00  0.00     0.030 H 
ATOM     39  H17 IIB d   1       6.868   0.911  14.990  0.00  0.00     0.030 H 
ATOM     40  H18 IIB d   1       6.580  -0.642  15.845  0.00  0.00     0.030 H 
ENDBRANCH  35  37
BRANCH  35  41
ATOM     41  C32 IIB d   1       8.931  -0.600  17.348  0.00  0.00    -0.050 C 
ATOM     42  H19 IIB d   1       9.610  -1.048  16.608  0.00  0.00     0.030 H 
ATOM     43  H20 IIB d   1       8.220  -1.361  17.702  0.00  0.00     0.030 H 
ATOM     44  H21 IIB d   1       9.516  -0.221  18.199  0.00  0.00     0.030 H 
ENDBRANCH  35  41
ENDBRANCH  24  35
ENDBRANCH  16  19
ENDBRANCH   8  15
BRANCH   7  45
ATOM     45  C37 IIB d   1       5.215   7.720  22.214  0.00  0.00     0.043 C 
ATOM     46  H22 IIB d   1       4.640   8.639  22.399  0.00  0.00     0.074 H 
ATOM     47  H23 IIB d   1       5.360   7.590  21.131  0.00  0.00     0.074 H 
BRANCH  45  48
ATOM     48  C38 IIB d   1       6.576   7.899  22.839  0.00  0.00     0.083 A 
ATOM     49  N41 IIB d   1       7.424   8.878  22.414  0.00  0.00    -0.131 NA
ATOM     50  O42 IIB d   1       8.500   8.762  23.129  0.00  0.00    -0.212 OA
ATOM     51  C43 IIB d   1       8.370   7.744  24.000  0.00  0.00     0.120 A 
ATOM     52  C44 IIB d   1       7.139   7.132  23.870  0.00  0.00    -0.019 A 
ATOM     53  H24 IIB d   1       6.721   6.288  24.416  0.00  0.00     0.091 H 
BRANCH  51  54
ATOM     54  C45 IIB d   1       9.412   7.304  24.957  0.00  0.00     0.042 A 
ATOM     55  S46 IIB d   1      11.036   7.527  24.611  0.00  0.00    -0.075 SA
ATOM     56  C47 IIB d   1      11.448   6.772  26.060  0.00  0.00     0.075 A 
ATOM     57  C48 IIB d   1      10.352   6.344  26.841  0.00  0.00    -0.054 A 
ATOM     58 CL50 IIB d   1      13.088   6.554  26.487  0.00  0.00    -0.076 Cl
ATOM     59  C49 IIB d   1       9.131   6.658  26.187  0.00  0.00    -0.061 A 
ATOM     60  H25 IIB d   1      10.432   5.845  27.806  0.00  0.00     0.086 H 
ATOM     61  H26 IIB d   1       8.136   6.437  26.570  0.00  0.00     0.085 H 
ENDBRANCH  51  54
ENDBRANCH  45  48
ENDBRANCH   7  45
BRANCH   2  62
ATOM     62  C11 IIB d   1       2.949   9.174  24.289  0.00  0.00    -0.049 C 
ATOM     63  H27 IIB d   1       2.259   9.738  24.933  0.00  0.00     0.033 H 
ATOM     64  H28 IIB d   1       2.866   9.539  23.255  0.00  0.00     0.033 H 
ATOM     65  H29 IIB d   1       3.980   9.313  24.646  0.00  0.00     0.033 H 
ENDBRANCH   2  62
TORSDOF 9
