REMARK  7 active torsions:
REMARK  status: ('A' for Active; 'I' for Inactive)
REMARK    1  A    between atoms: C37_21  and  N7_7 
REMARK    2  A    between atoms: C8_8  and  C10_10 
REMARK       I    between atoms: C10_10  and  N11_11 
REMARK    3  A    between atoms: N11_11  and  C12_12 
REMARK    4  A    between atoms: N15_15  and  C27_18 
REMARK    5  A    between atoms: C27_18  and  C28_19 
REMARK    6  A    between atoms: C27_18  and  C32_20 
REMARK    7  A    between atoms: C38_22  and  C37_21 
REMARK       I    between atoms: N12_29  and  C38_22 
ROOT
ATOM      1  C1  IIE d   1       3.308  10.315  25.119  0.00  0.00    -0.081 A 
ATOM      2  C2  IIE d   1       4.361   9.295  25.187  0.00  0.00    -0.056 A 
ATOM      3  C3  IIE d   1       4.834   8.655  23.931  0.00  0.00     0.045 A 
ATOM      4  C4  IIE d   1       4.264   9.033  22.630  0.00  0.00    -0.007 A 
ATOM      5  C5  IIE d   1       3.235  10.065  22.588  0.00  0.00    -0.071 A 
ATOM      6  C6  IIE d   1       2.749  10.704  23.814  0.00  0.00    -0.082 A 
ATOM      7  N7  IIE d   1       5.761   7.669  23.663  0.00  0.00    -0.333 N 
ATOM      8  C8  IIE d   1       5.798   7.441  22.359  0.00  0.00     0.104 A 
ATOM      9  C9  IIE d   1       4.891   8.239  21.671  0.00  0.00    -0.039 A 
ATOM     10  H1  IIE d   1       2.943  10.781  26.027  0.00  0.00     0.083 H 
ATOM     11  H2  IIE d   1       4.789   9.011  26.142  0.00  0.00     0.087 H 
ATOM     12  H3  IIE d   1       2.822  10.365  21.632  0.00  0.00     0.084 H 
ATOM     13  H4  IIE d   1       1.978  11.463  23.760  0.00  0.00     0.083 H 
ATOM     14  H5  IIE d   1       4.707   8.243  20.598  0.00  0.00     0.088 H 
ENDROOT
BRANCH   8  15
ATOM     15  C10 IIE d   1       6.730   6.669  21.731  0.00  0.00     0.268 C 
ATOM     16  N11 IIE d   1       6.279   5.931  20.706  0.00  0.00    -0.351 N 
ATOM     17  H6  IIE d   1       5.358   6.029  20.328  0.00  0.00     0.163 HD
ATOM     18  O56 IIE d   1       7.900   6.695  22.132  0.00  0.00    -0.266 OA
BRANCH  16  19
ATOM     19  C12 IIE d   1       7.249   4.975  20.193  0.00  0.00     0.015 C 
ATOM     20  C13 IIE d   1       6.614   3.592  20.328  0.00  0.00    -0.023 C 
ATOM     21  C14 IIE d   1       7.496   2.535  19.699  0.00  0.00     0.086 C 
ATOM     22  H8  IIE d   1       5.636   3.593  19.824  0.00  0.00     0.038 H 
ATOM     23  H9  IIE d   1       6.477   3.360  21.395  0.00  0.00     0.038 H 
ATOM     24  N15 IIE d   1       7.735   2.891  18.277  0.00  0.00    -0.067 N 
ATOM     25  H10 IIE d   1       6.997   1.556  19.756  0.00  0.00     0.076 H 
ATOM     26  H11 IIE d   1       8.456   2.489  20.234  0.00  0.00     0.076 H 
ATOM     27  C16 IIE d   1       8.467   4.186  18.162  0.00  0.00     0.086 C 
ATOM     28  H12 IIE d   1       6.838   3.039  17.841  0.00  0.00     0.280 HD
ATOM     29  C17 IIE d   1       7.578   5.282  18.728  0.00  0.00    -0.023 C 
ATOM     30  H13 IIE d   1       8.691   4.396  17.106  0.00  0.00     0.076 H 
ATOM     31  H14 IIE d   1       9.406   4.136  18.733  0.00  0.00     0.076 H 
ATOM     32  H15 IIE d   1       8.102   6.247  18.665  0.00  0.00     0.038 H 
ATOM     33  H16 IIE d   1       6.646   5.333  18.147  0.00  0.00     0.038 H 
ATOM     34  H7  IIE d   1       8.173   5.022  20.788  0.00  0.00     0.072 H 
BRANCH  24  35
ATOM     35  C27 IIE d   1       8.345   1.711  17.608  0.00  0.00     0.097 C 
ATOM     36  H17 IIE d   1       7.660   0.858  17.723  0.00  0.00     0.083 H 
BRANCH  35  37
ATOM     37  C28 IIE d   1       9.714   1.305  18.220  0.00  0.00    -0.050 C 
ATOM     38  H18 IIE d   1      10.110   0.430  17.684  0.00  0.00     0.030 H 
ATOM     39  H19 IIE d   1       9.581   1.054  19.283  0.00  0.00     0.030 H 
ATOM     40  H20 IIE d   1      10.420   2.143  18.127  0.00  0.00     0.030 H 
ENDBRANCH  35  37
BRANCH  35  41
ATOM     41  C32 IIE d   1       8.493   2.022  16.124  0.00  0.00    -0.050 C 
ATOM     42  H21 IIE d   1       8.943   1.159  15.612  0.00  0.00     0.030 H 
ATOM     43  H22 IIE d   1       9.140   2.903  15.997  0.00  0.00     0.030 H 
ATOM     44  H23 IIE d   1       7.503   2.229  15.692  0.00  0.00     0.030 H 
ENDBRANCH  35  41
ENDBRANCH  24  35
ENDBRANCH  16  19
ENDBRANCH   8  15
BRANCH   7  45
ATOM     45  C37 IIE d   1       6.594   7.030  24.677  0.00  0.00     0.074 C 
ATOM     46  H24 IIE d   1       6.984   6.072  24.304  0.00  0.00     0.079 H 
ATOM     47  H25 IIE d   1       6.014   6.857  25.596  0.00  0.00     0.079 H 
BRANCH  45  48
ATOM     48  C38 IIE d   1       7.729   7.992  24.944  0.00  0.00     0.240 C 
ATOM     49  N12 IIE d   1       8.427   7.568  26.017  0.00  0.00    -0.326 N 
ATOM     50  C45 IIE d   1       9.770   7.655  26.167  0.00  0.00     0.034 A 
ATOM     51  H30 IIE d   1       7.909   7.154  26.765  0.00  0.00     0.169 HD
ATOM     52  C43 IIE d   1      10.343   7.157  27.410  0.00  0.00    -0.056 A 
ATOM     53  C49 IIE d   1      10.668   8.152  25.131  0.00  0.00    -0.056 A 
ATOM     54  C40 IIE d   1      11.785   7.140  27.625  0.00  0.00    -0.060 A 
ATOM     55  H26 IIE d   1       9.685   6.792  28.190  0.00  0.00     0.087 H 
ATOM     56  C47 IIE d   1      12.666   7.615  26.570  0.00  0.00     0.034 A 
ATOM     57  H27 IIE d   1      12.196   6.777  28.560  0.00  0.00     0.086 H 
ATOM     58  C48 IIE d   1      12.100   8.134  25.329  0.00  0.00    -0.060 A 
ATOM     59 CL50 IIE d   1      14.336   7.500  26.728  0.00  0.00    -0.084 Cl
ATOM     60  H28 IIE d   1      12.757   8.508  24.552  0.00  0.00     0.086 H 
ATOM     61  H29 IIE d   1      10.258   8.538  24.205  0.00  0.00     0.087 H 
ATOM     62  O14 IIE d   1       7.942   8.977  24.228  0.00  0.00    -0.271 OA
ENDBRANCH  45  48
ENDBRANCH   7  45
TORSDOF 7
