REMARK  1 active torsions:
REMARK  status: ('A' for Active; 'I' for Inactive)
REMARK    1  A    between atoms: N_1  and  CA_2 
ROOT
ATOM      1  CA  HSL d   1       8.697  22.129  13.455  0.00  0.00     0.184 C 
ATOM      2  C   HSL d   1       9.212  23.085  12.500  0.00  0.00     0.289 C 
ATOM      3  O   HSL d   1       9.414  22.926  11.295  0.00  0.00    -0.263 OA
ATOM      4  CB  HSL d   1       8.043  22.874  14.659  0.00  0.00    -0.009 C 
ATOM      5  CG  HSL d   1       8.719  24.234  14.576  0.00  0.00     0.031 C 
ATOM      6  OD  HSL d   1       9.411  24.344  13.239  0.00  0.00    -0.320 OA
ATOM      7  H4  HSL d   1       7.772  21.905  12.903  0.00  0.00     0.100 H 
ATOM      8  H5  HSL d   1       8.266  22.372  15.612  0.00  0.00     0.040 H 
ATOM      9  H6  HSL d   1       6.953  22.959  14.536  0.00  0.00     0.040 H 
ATOM     10  H7  HSL d   1       9.458  24.331  15.385  0.00  0.00     0.075 H 
ATOM     11  H8  HSL d   1       7.965  25.029  14.670  0.00  0.00     0.075 H 
ENDROOT
BRANCH   1  12
ATOM     12  N   HSL d   1       9.025  20.909  13.586  0.00  0.00    -0.066 N 
ATOM     13  H1  HSL d   1       8.495  20.497  14.338  0.00  0.00     0.275 HD
ATOM     14  H2  HSL d   1      10.009  20.846  13.795  0.00  0.00     0.275 HD
ATOM     15  H3  HSL d   1       8.832  20.415  12.729  0.00  0.00     0.275 HD
ENDBRANCH   1  12
TORSDOF 1
