REMARK  28 active torsions:
REMARK  status: ('A' for Active; 'I' for Inactive)
REMARK    1  A    between atoms: CA_2  and  N_1 
REMARK    2  A    between atoms: C_3  and  CA_2 
REMARK       I    between atoms: N_5  and  C_3 
REMARK    3  A    between atoms: CA_6  and  N_5 
REMARK    4  A    between atoms: CA_18  and  CB_21 
REMARK    5  A    between atoms: CB_21  and  OG_22 
REMARK    6  A    between atoms: CA_24  and  CB_27 
REMARK    7  A    between atoms: CB_27  and  CG_28 
REMARK    8  A    between atoms: CG_28  and  CD1_29 
REMARK    9  A    between atoms: CG_28  and  CD2_30 
REMARK   10  A    between atoms: CA_52  and  CB_55 
REMARK   11  A    between atoms: CA_57  and  CB_60 
REMARK   12  A    between atoms: CB_60  and  CG_61 
REMARK   13  A    between atoms: CG_61  and  CD1_62 
REMARK   14  A    between atoms: CG_61  and  CD2_63 
REMARK   15  A    between atoms: CA_65  and  CB_68 
REMARK   16  A    between atoms: CB_68  and  CG_69 
REMARK       I    between atoms: CG_69  and  ND2_71 
REMARK   17  A    between atoms: CA_73  and  CB_76 
REMARK   18  A    between atoms: CB_76  and  CG_77 
REMARK       I    between atoms: CG_77  and  ND2_79 
REMARK   19  A    between atoms: CA_88  and  CB_91 
REMARK   20  A    between atoms: CB_91  and  CG_92 
REMARK   21  A    between atoms: CG_92  and  CD_93 
REMARK   22  A    between atoms: CD_93  and  CE_94 
REMARK   23  A    between atoms: CE_94  and  NZ_95 
REMARK   24  A    between atoms: CA_97  and  CB_100 
REMARK   25  A    between atoms: CB_100  and  CG_101 
REMARK   26  A    between atoms: CZ_106  and  OH_107 
REMARK   27  A    between atoms: CA_109  and  C_110 
REMARK   28  A    between atoms: C_110  and  O1_114 
ROOT
ATOM      1  CA  CYS d   1      68.338 112.807  45.401  0.00  0.00     0.098 C 
ATOM      2  C   CYS d   1      68.463 111.343  45.806  0.00  0.00     0.242 C 
ATOM      3  O   CYS d   1      68.691 110.465  44.960  0.00  0.00    -0.271 OA
ATOM      4  CB  CYS d   1      69.605 113.535  45.854  0.00  0.00     0.013 C 
ATOM      5  SG  CYS d   1      71.124 112.611  45.473  0.00  0.00    -0.095 SA
ATOM      6  N   CYS d   1      68.320 111.088  47.101  0.00  0.00    -0.345 N 
ATOM      7  CA  CYS d   1      68.575 109.776  47.661  0.00  0.00     0.098 C 
ATOM      8  C   CYS d   1      67.508 108.726  47.303  0.00  0.00     0.242 C 
ATOM      9  O   CYS d   1      67.653 107.553  47.651  0.00  0.00    -0.271 OA
ATOM     10  CB  CYS d   1      68.747 109.891  49.182  0.00  0.00     0.013 C 
ATOM     11  SG  CYS d   1      70.017 111.072  49.680  0.00  0.00    -0.095 SA
ATOM     12  N   CYS d   1      72.100 108.934  41.828  0.00  0.00    -0.345 N 
ATOM     13  CA  CYS d   1      72.414 110.099  42.661  0.00  0.00     0.098 C 
ATOM     14  C   CYS d   1      72.901 109.658  44.048  0.00  0.00     0.241 C 
ATOM     15  O   CYS d   1      74.005 110.040  44.483  0.00  0.00    -0.271 OA
ATOM     16  CB  CYS d   1      71.213 111.050  42.753  0.00  0.00     0.013 C 
ATOM     17  SG  CYS d   1      71.570 112.671  43.482  0.00  0.00    -0.095 SA
ATOM     18  N   CYS d   1      73.941 110.785  51.420  0.00  0.00    -0.344 N 
ATOM     19  CA  CYS d   1      72.845 109.842  51.462  0.00  0.00     0.102 C 
ATOM     20  CB  CYS d   1      72.573 109.299  50.054  0.00  0.00     0.015 C 
ATOM     21  SG  CYS d   1      71.861 110.548  48.940  0.00  0.00    -0.095 SA
ATOM     22  H7  CYS d   1      68.281 112.851  44.303  0.00  0.00     0.088 H 
ATOM     23  H8  CYS d   1      69.551 113.690  46.942  0.00  0.00     0.053 H 
ATOM     24  H9  CYS d   1      69.650 114.510  45.347  0.00  0.00     0.053 H 
ATOM     25  H10 CYS d   1      68.027 111.825  47.710  0.00  0.00     0.163 HD
ATOM     26  H11 CYS d   1      69.528 109.421  47.240  0.00  0.00     0.088 H 
ATOM     27  H12 CYS d   1      69.019 108.901  49.577  0.00  0.00     0.053 H 
ATOM     28  H13 CYS d   1      67.788 110.208  49.617  0.00  0.00     0.053 H 
ATOM     29  H44 CYS d   1      71.140 108.706  41.668  0.00  0.00     0.163 HD
ATOM     30  H45 CYS d   1      73.236 110.647  42.177  0.00  0.00     0.088 H 
ATOM     31  H46 CYS d   1      70.439 110.564  43.365  0.00  0.00     0.053 H 
ATOM     32  H47 CYS d   1      70.827 111.211  41.736  0.00  0.00     0.053 H 
ATOM     33 5H10 CYS d   1      74.762 110.556  50.898  0.00  0.00     0.163 HD
ATOM     34 6H10 CYS d   1      71.943 110.370  51.805  0.00  0.00     0.090 H 
ATOM     35 7H10 CYS d   1      71.870 108.457  50.132  0.00  0.00     0.054 H 
ATOM     36 8H10 CYS d   1      73.522 108.946  49.624  0.00  0.00     0.054 H 
ATOM     37  N   SER d   1      66.445 109.139  46.620  0.00  0.00    -0.344 N 
ATOM     38  CA  SER d   1      65.452 108.187  46.103  0.00  0.00     0.109 C 
ATOM     39  C   SER d   1      65.869 107.687  44.734  0.00  0.00     0.243 C 
ATOM     40  O   SER d   1      65.264 106.749  44.188  0.00  0.00    -0.271 OA
ATOM     41  H14 SER d   1      66.319 110.117  46.455  0.00  0.00     0.163 HD
ATOM     42  H15 SER d   1      65.384 107.334  46.795  0.00  0.00     0.090 H 
ATOM     43  N   LEU d   1      66.886 108.349  44.181  0.00  0.00    -0.346 N 
ATOM     44  CA  LEU d   1      67.379 108.042  42.863  0.00  0.00     0.090 C 
ATOM     45  C   LEU d   1      68.751 107.423  43.026  0.00  0.00     0.243 C 
ATOM     46  O   LEU d   1      69.712 108.114  43.364  0.00  0.00    -0.271 OA
ATOM     47  N   LEU d   1      74.236 106.879  44.794  0.00  0.00    -0.346 N 
ATOM     48  CA  LEU d   1      75.560 106.298  44.549  0.00  0.00     0.089 C 
ATOM     49  C   LEU d   1      76.671 107.326  44.414  0.00  0.00     0.241 C 
ATOM     50  O   LEU d   1      77.791 107.112  44.896  0.00  0.00    -0.271 OA
ATOM     51  H19 LEU d   1      67.322 109.085  44.700  0.00  0.00     0.163 HD
ATOM     52  H20 LEU d   1      66.709 107.312  42.385  0.00  0.00     0.087 H 
ATOM     53  H53 LEU d   1      73.507 106.698  44.134  0.00  0.00     0.163 HD
ATOM     54  H54 LEU d   1      75.797 105.637  45.395  0.00  0.00     0.087 H 
ATOM     55  N   PRO d   1      68.829 106.114  42.806  0.00  0.00    -0.337 N 
ATOM     56  CA  PRO d   1      70.053 105.358  43.032  0.00  0.00     0.092 C 
ATOM     57  C   PRO d   1      71.337 105.918  42.400  0.00  0.00     0.243 C 
ATOM     58  O   PRO d   1      72.365 105.938  43.104  0.00  0.00    -0.271 OA
ATOM     59  CB  PRO d   1      69.705 103.971  42.489  0.00  0.00    -0.036 C 
ATOM     60  CG  PRO d   1      68.250 103.884  42.700  0.00  0.00    -0.048 C 
ATOM     61  CD  PRO d   1      67.733 105.240  42.345  0.00  0.00    -0.001 C 
ATOM     62  N   PRO d   1      71.324 106.361  41.132  0.00  0.00    -0.337 N 
ATOM     63  CA  PRO d   1      72.544 106.928  40.532  0.00  0.00     0.091 C 
ATOM     64  C   PRO d   1      73.041 108.162  41.273  0.00  0.00     0.241 C 
ATOM     65  O   PRO d   1      74.262 108.392  41.337  0.00  0.00    -0.271 OA
ATOM     66  CB  PRO d   1      72.123 107.279  39.096  0.00  0.00    -0.036 C 
ATOM     67  CG  PRO d   1      70.632 107.286  39.099  0.00  0.00    -0.048 C 
ATOM     68  CD  PRO d   1      70.211 106.330  40.161  0.00  0.00    -0.001 C 
ATOM     69  N   PRO d   1      77.427 109.316  48.431  0.00  0.00    -0.337 N 
ATOM     70  CA  PRO d   1      77.416 108.481  49.634  0.00  0.00     0.091 C 
ATOM     71  C   PRO d   1      77.318 109.286  50.929  0.00  0.00     0.241 C 
ATOM     72  O   PRO d   1      76.387 109.078  51.708  0.00  0.00    -0.271 OA
ATOM     73  CB  PRO d   1      78.775 107.763  49.574  0.00  0.00    -0.036 C 
ATOM     74  CG  PRO d   1      79.119 107.722  48.140  0.00  0.00    -0.048 C 
ATOM     75  CD  PRO d   1      78.601 109.021  47.587  0.00  0.00    -0.001 C 
ATOM     76  H30 PRO d   1      70.231 105.295  44.116  0.00  0.00     0.087 H 
ATOM     77  H31 PRO d   1      70.233 103.184  43.048  0.00  0.00     0.036 H 
ATOM     78  H32 PRO d   1      69.954 103.891  41.421  0.00  0.00     0.036 H 
ATOM     79  H33 PRO d   1      67.809 103.117  42.046  0.00  0.00     0.035 H 
ATOM     80  H34 PRO d   1      68.024 103.645  43.750  0.00  0.00     0.035 H 
ATOM     81  H35 PRO d   1      67.574 105.336  41.261  0.00  0.00     0.064 H 
ATOM     82  H36 PRO d   1      66.795 105.462  42.875  0.00  0.00     0.064 H 
ATOM     83  H37 PRO d   1      73.346 106.175  40.523  0.00  0.00     0.087 H 
ATOM     84  H38 PRO d   1      72.501 106.524  38.391  0.00  0.00     0.036 H 
ATOM     85  H39 PRO d   1      72.510 108.270  38.815  0.00  0.00     0.036 H 
ATOM     86  H40 PRO d   1      70.257 108.295  39.324  0.00  0.00     0.035 H 
ATOM     87  H41 PRO d   1      70.248 106.962  38.121  0.00  0.00     0.035 H 
ATOM     88  H42 PRO d   1      69.272 106.657  40.632  0.00  0.00     0.064 H 
ATOM     89  H43 PRO d   1      70.081 105.319  39.748  0.00  0.00     0.064 H 
ATOM     90  H76 PRO d   1      76.585 107.762  49.593  0.00  0.00     0.087 H 
ATOM     91  H77 PRO d   1      78.693 106.745  49.982  0.00  0.00     0.036 H 
ATOM     92  H78 PRO d   1      79.534 108.324  50.138  0.00  0.00     0.036 H 
ATOM     93  H79 PRO d   1      80.208 107.649  48.004  0.00  0.00     0.035 H 
ATOM     94  H80 PRO d   1      78.630 106.868  47.648  0.00  0.00     0.035 H 
ATOM     95  H81 PRO d   1      79.358 109.815  47.676  0.00  0.00     0.064 H 
ATOM     96  H82 PRO d   1      78.308 108.910  46.533  0.00  0.00     0.064 H 
ATOM     97  N   ALA d   1      72.102 108.832  44.719  0.00  0.00    -0.346 N 
ATOM     98  CA  ALA d   1      72.529 108.197  45.962  0.00  0.00     0.086 C 
ATOM     99  C   ALA d   1      73.959 107.637  45.856  0.00  0.00     0.240 C 
ATOM    100  O   ALA d   1      74.793 107.909  46.713  0.00  0.00    -0.271 OA
ATOM    101  H48 ALA d   1      71.187 108.642  44.363  0.00  0.00     0.163 HD
ATOM    102  H49 ALA d   1      72.528 108.965  46.749  0.00  0.00     0.086 H 
ATOM    103  N   ASN d   1      76.375 108.419  43.720  0.00  0.00    -0.346 N 
ATOM    104  CA  ASN d   1      77.349 109.480  43.511  0.00  0.00     0.097 C 
ATOM    105  C   ASN d   1      77.545 110.337  44.748  0.00  0.00     0.241 C 
ATOM    106  O   ASN d   1      78.541 111.042  44.877  0.00  0.00    -0.271 OA
ATOM    107  N   ASN d   1      76.593 110.247  45.669  0.00  0.00    -0.346 N 
ATOM    108  CA  ASN d   1      76.609 111.046  46.892  0.00  0.00     0.097 C 
ATOM    109  C   ASN d   1      76.478 110.229  48.182  0.00  0.00     0.243 C 
ATOM    110  O   ASN d   1      75.529 110.438  48.942  0.00  0.00    -0.271 OA
ATOM    111  H64 ASN d   1      75.459 108.516  43.331  0.00  0.00     0.163 HD
ATOM    112  H65 ASN d   1      78.314 109.009  43.273  0.00  0.00     0.088 H 
ATOM    113  H70 ASN d   1      75.837 109.609  45.520  0.00  0.00     0.163 HD
ATOM    114  H71 ASN d   1      77.580 111.560  46.935  0.00  0.00     0.088 H 
ATOM    115  N   LYS d   1      78.271 110.191  51.154  0.00  0.00    -0.346 N 
ATOM    116  CA  LYS d   1      78.289 110.999  52.367  0.00  0.00     0.089 C 
ATOM    117  C   LYS d   1      76.936 111.652  52.653  0.00  0.00     0.241 C 
ATOM    118  O   LYS d   1      76.464 111.610  53.792  0.00  0.00    -0.271 OA
ATOM    119  H83 LYS d   1      78.992 110.319  50.473  0.00  0.00     0.163 HD
ATOM    120  H84 LYS d   1      78.515 110.325  53.206  0.00  0.00     0.087 H 
ATOM    121  N   TYR d   1      76.317 112.238  51.624  0.00  0.00    -0.346 N 
ATOM    122  CA  TYR d   1      75.027 112.918  51.780  0.00  0.00     0.093 C 
ATOM    123  C   TYR d   1      73.882 111.946  52.058  0.00  0.00     0.241 C 
ATOM    124  O   TYR d   1      72.962 112.247  52.822  0.00  0.00    -0.271 OA
ATOM    125  H96 TYR d   1      76.746 112.212  50.721  0.00  0.00     0.163 HD
ATOM    126  H97 TYR d   1      75.113 113.593  52.644  0.00  0.00     0.088 H 
ENDROOT
BRANCH 116 127
ATOM    127  CB  LYS d   1      79.393 112.062  52.311  0.00  0.00    -0.038 C 
ATOM    128  H85 LYS d   1      79.009 112.982  52.776  0.00  0.00     0.036 H 
ATOM    129  H86 LYS d   1      79.631 112.256  51.255  0.00  0.00     0.036 H 
BRANCH 127 130
ATOM    130  CG  LYS d   1      80.679 111.669  53.024  0.00  0.00    -0.061 C 
ATOM    131  H87 LYS d   1      81.321 111.108  52.329  0.00  0.00     0.033 H 
ATOM    132  H88 LYS d   1      80.434 111.036  53.889  0.00  0.00     0.033 H 
BRANCH 130 133
ATOM    133  CD  LYS d   1      81.420 112.900  53.502  0.00  0.00    -0.043 C 
ATOM    134  H89 LYS d   1      80.730 113.528  54.085  0.00  0.00     0.035 H 
ATOM    135  H90 LYS d   1      81.779 113.463  52.628  0.00  0.00     0.035 H 
BRANCH 133 136
ATOM    136  CE  LYS d   1      82.616 112.530  54.379  0.00  0.00     0.080 C 
ATOM    137  H91 LYS d   1      83.352 111.985  53.769  0.00  0.00     0.075 H 
ATOM    138  H92 LYS d   1      82.271 111.885  55.200  0.00  0.00     0.075 H 
BRANCH 136 139
ATOM    139  NZ  LYS d   1      83.265 113.736  54.954  0.00  0.00    -0.079 N 
ATOM    140  H93 LYS d   1      84.047 113.457  55.525  0.00  0.00     0.274 HD
ATOM    141  H94 LYS d   1      82.599 114.239  55.519  0.00  0.00     0.274 HD
ATOM    142  H95 LYS d   1      83.589 114.331  54.208  0.00  0.00     0.274 HD
ENDBRANCH 136 139
ENDBRANCH 133 136
ENDBRANCH 130 133
ENDBRANCH 127 130
ENDBRANCH 116 127
BRANCH 122 143
ATOM    143  CB  TYR d   1      74.685 113.767  50.544  0.00  0.00    -0.014 C 
ATOM    144  H98 TYR d   1      74.616 113.104  49.669  0.00  0.00     0.043 H 
ATOM    145  H99 TYR d   1      75.490 114.500  50.386  0.00  0.00     0.043 H 
BRANCH 143 146
ATOM    146  CG  TYR d   1      73.370 114.514  50.692  0.00  0.00    -0.056 A 
ATOM    147  CD1 TYR d   1      73.248 115.575  51.606  0.00  0.00    -0.074 A 
ATOM    148  CE1 TYR d   1      72.041 116.251  51.765  0.00  0.00    -0.051 A 
ATOM    149 0H10 TYR d   1      74.107 115.872  52.197  0.00  0.00     0.084 H 
ATOM    150  CZ  TYR d   1      70.941 115.873  50.999  0.00  0.00     0.065 A 
ATOM    151 2H10 TYR d   1      71.958 117.063  52.478  0.00  0.00     0.087 H 
ATOM    152  CE2 TYR d   1      71.031 114.830  50.085  0.00  0.00    -0.051 A 
ATOM    153  CD2 TYR d   1      72.242 114.151  49.941  0.00  0.00    -0.074 A 
ATOM    154 3H10 TYR d   1      70.170 114.547  49.490  0.00  0.00     0.087 H 
ATOM    155 1H10 TYR d   1      72.312 113.329  49.237  0.00  0.00     0.084 H 
BRANCH 150 156
ATOM    156  OH  TYR d   1      69.757 116.544  51.167  0.00  0.00    -0.361 OA
ATOM    157 4H10 TYR d   1      69.868 117.221  51.824  0.00  0.00     0.217 HD
ENDBRANCH 150 156
ENDBRANCH 143 146
ENDBRANCH 122 143
BRANCH 108 158
ATOM    158  CB  ASN d   1      75.516 112.107  46.809  0.00  0.00     0.036 C 
ATOM    159  H72 ASN d   1      75.496 112.671  47.753  0.00  0.00     0.051 H 
ATOM    160  H73 ASN d   1      74.547 111.608  46.659  0.00  0.00     0.051 H 
BRANCH 158 161
ATOM    161  CG  ASN d   1      75.749 113.075  45.667  0.00  0.00     0.217 C 
ATOM    162  ND2 ASN d   1      75.153 112.790  44.508  0.00  0.00    -0.370 N 
ATOM    163  H74 ASN d   1      75.273 113.396  43.722  0.00  0.00     0.159 HD
ATOM    164  H75 ASN d   1      74.586 111.971  44.426  0.00  0.00     0.159 HD
ATOM    165  OD1 ASN d   1      76.462 114.065  45.821  0.00  0.00    -0.274 OA
ENDBRANCH 158 161
ENDBRANCH 108 158
BRANCH  19 166
ATOM    166  C   CYS d   1      73.149 108.736  52.457  0.00  0.00     0.164 C 
ATOM    167  O   CYS d   1      72.334 107.849  52.680  0.00  0.00    -0.648 OA
BRANCH 166 168
ATOM    168  O1  CYS d   1      74.316 108.730  53.095  0.00  0.00    -0.775 OA
ATOM    169 9H10 CYS d   1      74.832 109.477  52.815  0.00  0.00     0.167 HD
ENDBRANCH 166 168
ENDBRANCH  19 166
BRANCH 104 170
ATOM    170  CB  ASN d   1      76.936 110.343  42.326  0.00  0.00     0.036 C 
ATOM    171  H66 ASN d   1      77.284 111.372  42.500  0.00  0.00     0.051 H 
ATOM    172  H67 ASN d   1      75.839 110.335  42.249  0.00  0.00     0.051 H 
BRANCH 170 173
ATOM    173  CG  ASN d   1      77.519 109.848  41.019  0.00  0.00     0.217 C 
ATOM    174  ND2 ASN d   1      77.165 108.628  40.626  0.00  0.00    -0.370 N 
ATOM    175  H68 ASN d   1      77.523 108.255  39.770  0.00  0.00     0.159 HD
ATOM    176  H69 ASN d   1      76.541 108.084  41.187  0.00  0.00     0.159 HD
ATOM    177  OD1 ASN d   1      78.292 110.553  40.374  0.00  0.00    -0.274 OA
ENDBRANCH 170 173
ENDBRANCH 104 170
BRANCH  48 178
ATOM    178  CB  LEU d   1      75.562 105.483  43.261  0.00  0.00    -0.035 C 
ATOM    179  H55 LEU d   1      76.523 105.706  42.775  0.00  0.00     0.037 H 
ATOM    180  H56 LEU d   1      74.741 105.893  42.655  0.00  0.00     0.037 H 
BRANCH 178 181
ATOM    181  CG  LEU d   1      75.410 103.976  43.180  0.00  0.00    -0.059 C 
ATOM    182  H57 LEU d   1      74.341 103.723  43.127  0.00  0.00     0.038 H 
BRANCH 181 183
ATOM    183  CD1 LEU d   1      76.091 103.591  41.894  0.00  0.00    -0.073 C 
ATOM    184  H58 LEU d   1      76.026 102.502  41.757  0.00  0.00     0.028 H 
ATOM    185  H59 LEU d   1      77.148 103.893  41.934  0.00  0.00     0.028 H 
ATOM    186  H60 LEU d   1      75.597 104.097  41.052  0.00  0.00     0.028 H 
ENDBRANCH 181 183
BRANCH 181 187
ATOM    187  CD2 LEU d   1      76.015 103.221  44.360  0.00  0.00    -0.073 C 
ATOM    188  H61 LEU d   1      75.502 103.518  45.287  0.00  0.00     0.028 H 
ATOM    189  H62 LEU d   1      77.085 103.462  44.440  0.00  0.00     0.028 H 
ATOM    190  H63 LEU d   1      75.893 102.139  44.204  0.00  0.00     0.028 H 
ENDBRANCH 181 187
ENDBRANCH 178 181
ENDBRANCH  48 178
BRANCH   1 191
ATOM    191  N   CYS d   1      67.147 113.474  45.930  0.00  0.00    -0.346 N 
ATOM    192  C   GLY d   1      65.890 113.105  45.635  0.00  0.00     0.243 C 
ATOM    193  O   GLY d   1      65.593 112.073  45.000  0.00  0.00    -0.272 OA
ATOM    194  H6  CYS d   1      67.277 114.250  46.547  0.00  0.00     0.163 HD
BRANCH 192 195
ATOM    195  CA  GLY d   1      64.810 114.043  46.139  0.00  0.00     0.152 C 
ATOM    196  H4  GLY d   1      65.056 114.329  47.172  0.00  0.00     0.090 H 
ATOM    197  H5  GLY d   1      64.806 114.939  45.501  0.00  0.00     0.090 H 
BRANCH 195 198
ATOM    198  N   GLY d   1      63.438 113.457  46.130  0.00  0.00    -0.071 N 
ATOM    199  H1  GLY d   1      62.780 114.137  46.477  0.00  0.00     0.274 HD
ATOM    200  H2  GLY d   1      63.418 112.639  46.719  0.00  0.00     0.274 HD
ATOM    201  H3  GLY d   1      63.189 113.199  45.188  0.00  0.00     0.274 HD
ENDBRANCH 195 198
ENDBRANCH 192 195
ENDBRANCH   1 191
BRANCH  38 202
ATOM    202  CB  SER d   1      64.092 108.841  45.988  0.00  0.00     0.044 C 
ATOM    203  H16 SER d   1      63.354 108.099  45.650  0.00  0.00     0.077 H 
ATOM    204  H17 SER d   1      64.140 109.667  45.264  0.00  0.00     0.077 H 
BRANCH 202 205
ATOM    205  OG  SER d   1      63.716 109.339  47.245  0.00  0.00    -0.398 OA
ATOM    206  H18 SER d   1      62.862 109.751  47.179  0.00  0.00     0.209 HD
ENDBRANCH 202 205
ENDBRANCH  38 202
BRANCH  98 207
ATOM    207  CB  ALA d   1      71.541 107.104  46.369  0.00  0.00    -0.049 C 
ATOM    208  H50 ALA d   1      71.877 106.636  47.306  0.00  0.00     0.030 H 
ATOM    209  H51 ALA d   1      71.490 106.342  45.577  0.00  0.00     0.030 H 
ATOM    210  H52 ALA d   1      70.545 107.547  46.517  0.00  0.00     0.030 H 
ENDBRANCH  98 207
BRANCH  44 211
ATOM    211  CB  LEU d   1      67.427 109.302  41.990  0.00  0.00    -0.035 C 
ATOM    212  H21 LEU d   1      68.171 109.977  42.437  0.00  0.00     0.037 H 
ATOM    213  H22 LEU d   1      66.432 109.768  42.040  0.00  0.00     0.037 H 
BRANCH 211 214
ATOM    214  CG  LEU d   1      67.785 109.156  40.499  0.00  0.00    -0.059 C 
ATOM    215  H23 LEU d   1      68.767 108.662  40.453  0.00  0.00     0.038 H 
BRANCH 214 216
ATOM    216  CD1 LEU d   1      66.804 108.267  39.719  0.00  0.00    -0.073 C 
ATOM    217  H24 LEU d   1      67.120 108.208  38.667  0.00  0.00     0.028 H 
ATOM    218  H25 LEU d   1      65.794 108.699  39.775  0.00  0.00     0.028 H 
ATOM    219  H26 LEU d   1      66.796 107.258  40.157  0.00  0.00     0.028 H 
ENDBRANCH 214 216
BRANCH 214 220
ATOM    220  CD2 LEU d   1      67.933 110.523  39.844  0.00  0.00    -0.073 C 
ATOM    221  H27 LEU d   1      68.640 111.133  40.425  0.00  0.00     0.028 H 
ATOM    222  H28 LEU d   1      66.954 111.024  39.815  0.00  0.00     0.028 H 
ATOM    223  H29 LEU d   1      68.312 110.399  38.819  0.00  0.00     0.028 H 
ENDBRANCH 214 220
ENDBRANCH 211 214
ENDBRANCH  44 211
TORSDOF 28
