REMARK  7 active torsions:
REMARK  status: ('A' for Active; 'I' for Inactive)
REMARK    1  A    between atoms: C8_8  and  C4_9 
REMARK    2  A    between atoms: C1_10  and  C7_11 
REMARK    3  A    between atoms: C2_13  and  C6_15 
REMARK    4  A    between atoms: C14_17  and  C26_18 
REMARK    5  A    between atoms: C26_18  and  C27_19 
REMARK    6  A    between atoms: C13_20  and  O25_22 
REMARK    7  A    between atoms: C9_25  and  O24_26 
ROOT
ATOM      1  C4  CT5 d   1      17.463  -2.201  -6.740  0.00  0.00     0.029 A 
ATOM      2  C1  CT5 d   1      17.793  -1.365  -7.889  0.00  0.00     0.064 A 
ATOM      3  N5  CT5 d   1      19.135  -1.325  -7.892  0.00  0.00    -0.178 NA
ATOM      4  C2  CT5 d   1      18.765  -2.576  -6.126  0.00  0.00     0.076 A 
ATOM      5  N3  CT5 d   1      19.722  -2.059  -6.829  0.00  0.00    -0.276 N 
ATOM      6  H7  CT5 d   1      20.731  -2.162  -6.648  0.00  0.00     0.189 HD
ENDROOT
BRANCH   4   7
ATOM      7  C6  CT5 d   1      18.777  -3.426  -4.926  0.00  0.00     0.027 A 
ATOM      8  C10 CT5 d   1      17.894  -3.156  -3.904  0.00  0.00    -0.059 A 
ATOM      9  C14 CT5 d   1      17.913  -3.976  -2.805  0.00  0.00    -0.024 A 
ATOM     10  H8  CT5 d   1      17.205  -2.321  -3.966  0.00  0.00     0.086 H 
ATOM     11  C13 CT5 d   1      18.858  -5.086  -2.726  0.00  0.00     0.074 A 
ATOM     12  C11 CT5 d   1      19.738  -5.362  -3.766  0.00  0.00    -0.018 A 
ATOM     13  C9  CT5 d   1      19.743  -4.525  -4.868  0.00  0.00     0.081 A 
ATOM     14  H17 CT5 d   1      20.406  -6.214  -3.715  0.00  0.00     0.092 H 
BRANCH   9  15
ATOM     15  C26 CT5 d   1      16.971  -3.760  -1.648  0.00  0.00    -0.042 C 
ATOM     16  H9  CT5 d   1      17.469  -3.123  -0.902  0.00  0.00     0.039 H 
ATOM     17  H10 CT5 d   1      16.735  -4.736  -1.198  0.00  0.00     0.039 H 
BRANCH  15  18
ATOM     18  C27 CT5 d   1      15.676  -3.093  -2.071  0.00  0.00    -0.073 C 
ATOM     19  H11 CT5 d   1      15.028  -2.960  -1.192  0.00  0.00     0.028 H 
ATOM     20  H12 CT5 d   1      15.164  -3.724  -2.812  0.00  0.00     0.028 H 
ATOM     21  H13 CT5 d   1      15.897  -2.111  -2.516  0.00  0.00     0.028 H 
ENDBRANCH  15  18
ENDBRANCH   9  15
BRANCH  11  22
ATOM     22  O25 CT5 d   1      18.763  -5.850  -1.608  0.00  0.00    -0.360 OA
ATOM     23  H16 CT5 d   1      19.412  -6.543  -1.643  0.00  0.00     0.217 HD
ENDBRANCH  11  22
BRANCH  13  24
ATOM     24  O24 CT5 d   1      20.591  -4.693  -5.899  0.00  0.00    -0.360 OA
ATOM     25  H20 CT5 d   1      21.485  -4.630  -5.585  0.00  0.00     0.217 HD
ENDBRANCH  13  24
ENDBRANCH   4   7
BRANCH   1  26
ATOM     26  C8  CT5 d   1      16.106  -2.626  -6.272  0.00  0.00    -0.019 A 
ATOM     27  C15 CT5 d   1      15.832  -3.998  -6.208  0.00  0.00    -0.037 A 
ATOM     28  C12 CT5 d   1      14.587  -4.452  -5.763  0.00  0.00     0.102 A 
ATOM     29  H1  CT5 d   1      16.591  -4.713  -6.506  0.00  0.00     0.089 H 
ATOM     30  O17 CT5 d   1      14.301  -5.791  -5.677  0.00  0.00    -0.346 OA
ATOM     31  C16 CT5 d   1      13.552  -3.469  -5.403  0.00  0.00     0.102 A 
ATOM     32  C17 CT5 d   1      12.914  -6.160  -5.760  0.00  0.00     0.046 C 
ATOM     33  C18 CT5 d   1      12.153  -5.328  -4.722  0.00  0.00     0.046 C 
ATOM     34  H14 CT5 d   1      12.797  -7.232  -5.541  0.00  0.00     0.078 H 
ATOM     35  H15 CT5 d   1      12.528  -5.947  -6.768  0.00  0.00     0.078 H 
ATOM     36  O18 CT5 d   1      12.319  -3.924  -4.962  0.00  0.00    -0.346 OA
ATOM     37  H18 CT5 d   1      11.083  -5.577  -4.776  0.00  0.00     0.078 H 
ATOM     38  H19 CT5 d   1      12.535  -5.569  -3.719  0.00  0.00     0.078 H 
ATOM     39  C22 CT5 d   1      13.860  -2.115  -5.505  0.00  0.00    -0.047 A 
ATOM     40  C20 CT5 d   1      15.121  -1.683  -5.940  0.00  0.00    -0.069 A 
ATOM     41  H2  CT5 d   1      13.109  -1.379  -5.242  0.00  0.00     0.087 H 
ATOM     42  H3  CT5 d   1      15.335  -0.623  -6.020  0.00  0.00     0.085 H 
ENDBRANCH   1  26
BRANCH   2  43
ATOM     43  C7  CT5 d   1      16.898  -0.697  -8.883  0.00  0.00    -0.033 C 
ATOM     44  H4  CT5 d   1      17.508  -0.146  -9.614  0.00  0.00     0.035 H 
ATOM     45  H5  CT5 d   1      16.230   0.004  -8.362  0.00  0.00     0.035 H 
ATOM     46  H6  CT5 d   1      16.298  -1.457  -9.405  0.00  0.00     0.035 H 
ENDBRANCH   2  43
TORSDOF 7
