REMARK  7 active torsions:
REMARK  status: ('A' for Active; 'I' for Inactive)
REMARK    1  A    between atoms: C10_2  and  C11_3 
REMARK    2  A    between atoms: C4_18  and  N9_17 
REMARK    3  A    between atoms: N9_17  and  C8_24 
REMARK    4  A    between atoms: N9_17  and  CAA_26 
REMARK    5  A    between atoms: C1_21  and  C18_22 
REMARK    6  A    between atoms: C8_24  and  C23_23 
REMARK    7  A    between atoms: C23_23  and  O24_25 
ROOT
ATOM      1  C2  DFY d   1       5.827  -2.094  19.764  0.00  0.00     0.091 A 
ATOM      2  C10 DFY d   1       1.796  -4.085  19.924  0.00  0.00     0.100 A 
ATOM      3  N1  DFY d   1       4.593  -1.988  20.290  0.00  0.00    -0.217 NA
ATOM      4  C6  DFY d   1       3.672  -2.912  20.034  0.00  0.00     0.186 A 
ATOM      5  O6  DFY d   1       2.371  -2.963  20.459  0.00  0.00    -0.289 OA
ATOM      6  C5  DFY d   1       3.975  -4.033  19.216  0.00  0.00     0.077 A 
ATOM      7  C4  DFY d   1       5.304  -4.104  18.695  0.00  0.00     0.142 A 
ATOM      8  N3  DFY d   1       6.190  -3.115  18.992  0.00  0.00    -0.224 NA
ATOM      9  C1  DFY d   1       2.752  -4.764  19.152  0.00  0.00     0.027 A 
ATOM     10  H1  DFY d   1       6.553  -1.318  19.977  0.00  0.00     0.146 H 
ENDROOT
BRANCH   7  11
ATOM     11  N9  DFY d   1       5.814  -5.091  17.906  0.00  0.00    -0.367 N 
BRANCH  11  12
ATOM     12  C8  DFY d   1       7.306  -5.148  17.805  0.00  0.00     0.015 C 
ATOM     13  H14 DFY d   1       7.615  -6.182  17.591  0.00  0.00     0.067 H 
ATOM     14  H15 DFY d   1       7.746  -4.823  18.759  0.00  0.00     0.067 H 
BRANCH  12  15
ATOM     15  C23 DFY d   1       7.811  -4.213  16.661  0.00  0.00     0.032 C 
ATOM     16  H12 DFY d   1       6.995  -4.065  15.938  0.00  0.00     0.076 H 
ATOM     17  H13 DFY d   1       8.662  -4.695  16.159  0.00  0.00     0.076 H 
BRANCH  15  18
ATOM     18  O24 DFY d   1       8.231  -2.930  17.155  0.00  0.00    -0.399 OA
ATOM     19  H16 DFY d   1       7.500  -2.503  17.585  0.00  0.00     0.209 HD
ENDBRANCH  15  18
ENDBRANCH  12  15
ENDBRANCH  11  12
BRANCH  11  20
ATOM     20  CAA DFY d   1       4.933  -6.048  17.217  0.00  0.00    -0.017 C 
ATOM     21  H17 DFY d   1       3.883  -5.806  17.440  0.00  0.00     0.056 H 
ATOM     22  H18 DFY d   1       5.156  -7.068  17.564  0.00  0.00     0.056 H 
ATOM     23  H19 DFY d   1       5.101  -5.985  16.132  0.00  0.00     0.056 H 
ENDBRANCH  11  20
ENDBRANCH   7  11
BRANCH   9  24
ATOM     24  C18 DFY d   1       2.423  -5.992  18.548  0.00  0.00    -0.022 A 
ATOM     25  C19 DFY d   1       1.410  -6.077  17.575  0.00  0.00    -0.072 A 
ATOM     26  C20 DFY d   1       1.045  -7.307  17.023  0.00  0.00    -0.082 A 
ATOM     27  H7  DFY d   1       0.905  -5.175  17.249  0.00  0.00     0.084 H 
ATOM     28  C21 DFY d   1       1.666  -8.481  17.441  0.00  0.00    -0.083 A 
ATOM     29  H8  DFY d   1       0.273  -7.348  16.264  0.00  0.00     0.083 H 
ATOM     30  C22 DFY d   1       2.670  -8.408  18.423  0.00  0.00    -0.082 A 
ATOM     31  H9  DFY d   1       1.380  -9.436  17.016  0.00  0.00     0.083 H 
ATOM     32  C17 DFY d   1       3.035  -7.179  18.984  0.00  0.00    -0.072 A 
ATOM     33  H10 DFY d   1       3.167  -9.314  18.749  0.00  0.00     0.083 H 
ATOM     34  H11 DFY d   1       3.793  -7.143  19.758  0.00  0.00     0.084 H 
ENDBRANCH   9  24
BRANCH   2  35
ATOM     35  C11 DFY d   1       0.453  -4.435  20.224  0.00  0.00    -0.001 A 
ATOM     36  C12 DFY d   1       0.001  -5.776  20.225  0.00  0.00    -0.070 A 
ATOM     37  C13 DFY d   1      -1.320  -6.115  20.543  0.00  0.00    -0.082 A 
ATOM     38  H2  DFY d   1       0.699  -6.566  19.972  0.00  0.00     0.084 H 
ATOM     39  C14 DFY d   1      -2.205  -5.109  20.909  0.00  0.00    -0.083 A 
ATOM     40  H3  DFY d   1      -1.647  -7.148  20.504  0.00  0.00     0.083 H 
ATOM     41  C15 DFY d   1      -1.755  -3.789  20.937  0.00  0.00    -0.082 A 
ATOM     42  H4  DFY d   1      -3.230  -5.346  21.169  0.00  0.00     0.083 H 
ATOM     43  C16 DFY d   1      -0.447  -3.432  20.604  0.00  0.00    -0.070 A 
ATOM     44  H5  DFY d   1      -2.449  -3.009  21.229  0.00  0.00     0.083 H 
ATOM     45  H6  DFY d   1      -0.133  -2.395  20.639  0.00  0.00     0.084 H 
ENDBRANCH   2  35
TORSDOF 7
