REMARK  5 active torsions:
REMARK  status: ('A' for Active; 'I' for Inactive)
REMARK    1  A    between atoms: C10_2  and  C11_3 
REMARK    2  A    between atoms: C4_18  and  N9_17 
REMARK    3  A    between atoms: N9_17  and  C8_24 
REMARK    4  A    between atoms: C1_21  and  C18_22 
REMARK    5  A    between atoms: C8_24  and  C23_23 
ROOT
ATOM      1  C2  DFW d   1      14.774  -0.492   9.498  0.00  0.00     0.091 A 
ATOM      2  C10 DFW d   1      18.925  -2.331   9.224  0.00  0.00     0.100 A 
ATOM      3  N1  DFW d   1      15.970  -0.325   8.923  0.00  0.00    -0.217 NA
ATOM      4  C6  DFW d   1      16.975  -1.200   9.164  0.00  0.00     0.186 A 
ATOM      5  O6  DFW d   1      18.307  -1.197   8.745  0.00  0.00    -0.289 OA
ATOM      6  C5  DFW d   1      16.761  -2.320   9.948  0.00  0.00     0.077 A 
ATOM      7  C4  DFW d   1      15.463  -2.500  10.485  0.00  0.00     0.141 A 
ATOM      8  N3  DFW d   1      14.497  -1.581  10.230  0.00  0.00    -0.224 NA
ATOM      9  C1  DFW d   1      17.957  -3.043   9.977  0.00  0.00     0.027 A 
ATOM     10  H1  DFW d   1      14.013   0.269   9.370  0.00  0.00     0.146 H 
ENDROOT
BRANCH   2  11
ATOM     11  C11 DFW d   1      20.369  -2.618   8.871  0.00  0.00    -0.001 A 
ATOM     12  C12 DFW d   1      21.153  -1.558   8.376  0.00  0.00    -0.070 A 
ATOM     13  C13 DFW d   1      22.475  -1.761   8.007  0.00  0.00    -0.082 A 
ATOM     14  H2  DFW d   1      20.718  -0.570   8.282  0.00  0.00     0.084 H 
ATOM     15  C14 DFW d   1      23.047  -3.051   8.120  0.00  0.00    -0.083 A 
ATOM     16  H3  DFW d   1      23.068  -0.934   7.633  0.00  0.00     0.083 H 
ATOM     17  C15 DFW d   1      22.276  -4.131   8.586  0.00  0.00    -0.082 A 
ATOM     18  H4  DFW d   1      24.084  -3.207   7.846  0.00  0.00     0.083 H 
ATOM     19  C16 DFW d   1      20.937  -3.914   8.942  0.00  0.00    -0.070 A 
ATOM     20  H5  DFW d   1      22.712  -5.120   8.669  0.00  0.00     0.083 H 
ATOM     21  H6  DFW d   1      20.329  -4.748   9.275  0.00  0.00     0.084 H 
ENDBRANCH   2  11
BRANCH   9  22
ATOM     22  C18 DFW d   1      18.129  -4.359  10.713  0.00  0.00    -0.022 A 
ATOM     23  C19 DFW d   1      19.191  -4.563  11.597  0.00  0.00    -0.072 A 
ATOM     24  C20 DFW d   1      19.354  -5.798  12.263  0.00  0.00    -0.082 A 
ATOM     25  H7  DFW d   1      19.900  -3.762  11.774  0.00  0.00     0.084 H 
ATOM     26  C21 DFW d   1      18.431  -6.834  12.072  0.00  0.00    -0.083 A 
ATOM     27  H8  DFW d   1      20.199  -5.945  12.926  0.00  0.00     0.083 H 
ATOM     28  C22 DFW d   1      17.362  -6.646  11.173  0.00  0.00    -0.082 A 
ATOM     29  H9  DFW d   1      18.538  -7.769  12.609  0.00  0.00     0.083 H 
ATOM     30  C17 DFW d   1      17.212  -5.410  10.509  0.00  0.00    -0.072 A 
ATOM     31  H10 DFW d   1      16.657  -7.449  10.992  0.00  0.00     0.083 H 
ATOM     32  H12 DFW d   1      16.378  -5.266   9.831  0.00  0.00     0.084 H 
ENDBRANCH   9  22
BRANCH   7  33
ATOM     33  N9  DFW d   1      15.107  -3.583  11.252  0.00  0.00    -0.364 N 
ATOM     34  H11 DFW d   1      15.806  -4.327  11.392  0.00  0.00     0.161 HD
BRANCH  33  35
ATOM     35  C8  DFW d   1      13.776  -3.747  11.892  0.00  0.00     0.074 C 
ATOM     36  H13 DFW d   1      13.020  -3.981  11.128  0.00  0.00     0.080 H 
ATOM     37  H14 DFW d   1      13.495  -2.820  12.414  0.00  0.00     0.080 H 
BRANCH  35  38
ATOM     38  C23 DFW d   1      13.876  -4.890  12.887  0.00  0.00     0.191 C 
ATOM     39  O24 DFW d   1      12.846  -5.334  13.439  0.00  0.00    -0.647 OA
ATOM     40  O3  DFW d   1      14.948  -5.668  12.771  0.00  0.00    -0.647 OA
ENDBRANCH  35  38
ENDBRANCH  33  35
ENDBRANCH   7  33
TORSDOF 5
