REMARK  7 active torsions:
REMARK  status: ('A' for Active; 'I' for Inactive)
REMARK    1  A    between atoms: C15_6  and  C7_7 
REMARK    2  A    between atoms: C4_9  and  N10_10 
REMARK    3  A    between atoms: N10_10  and  C11_11 
REMARK    4  A    between atoms: C11_11  and  C12_12 
REMARK    5  A    between atoms: C12_12  and  C14_13 
REMARK    6  A    between atoms: C12_12  and  O13_14 
REMARK    7  A    between atoms: C8_20  and  C16_21 
ROOT
ATOM      1  C7  DF1 d   1       3.329  -4.581  19.161  0.00  0.00     0.020 C 
ATOM      2  C6  DF1 d   1       4.521  -3.842  19.132  0.00  0.00     0.069 A 
ATOM      3  C4  DF1 d   1       5.826  -4.104  18.742  0.00  0.00     0.140 A 
ATOM      4  N3  DF1 d   1       6.771  -3.162  18.938  0.00  0.00    -0.224 NA
ATOM      5  C2  DF1 d   1       6.459  -1.994  19.531  0.00  0.00     0.091 A 
ATOM      6  N1  DF1 d   1       5.208  -1.734  19.908  0.00  0.00    -0.223 NA
ATOM      7  C5  DF1 d   1       4.236  -2.630  19.729  0.00  0.00     0.144 A 
ATOM      8  N9  DF1 d   1       2.907  -2.602  20.053  0.00  0.00    -0.339 N 
ATOM      9  C8  DF1 d   1       2.310  -3.753  19.643  0.00  0.00     0.056 C 
ATOM     10  H14 DF1 d   1       7.235  -1.257  19.704  0.00  0.00     0.146 H 
ATOM     11  H15 DF1 d   1       2.431  -1.826  20.535  0.00  0.00     0.167 HD
ENDROOT
BRANCH   3  12
ATOM     12  N10 DF1 d   1       6.161  -5.300  18.163  0.00  0.00    -0.371 N 
ATOM     13  H6  DF1 d   1       6.051  -6.173  18.699  0.00  0.00     0.161 HD
BRANCH  12  14
ATOM     14  C11 DF1 d   1       6.683  -5.355  16.767  0.00  0.00     0.018 C 
ATOM     15  H7  DF1 d   1       6.041  -4.765  16.096  0.00  0.00     0.067 H 
ATOM     16  H8  DF1 d   1       6.722  -6.396  16.415  0.00  0.00     0.067 H 
BRANCH  14  17
ATOM     17  C12 DF1 d   1       8.111  -4.750  16.816  0.00  0.00     0.047 C 
ATOM     18  H9  DF1 d   1       8.509  -4.936  17.825  0.00  0.00     0.084 H 
BRANCH  17  19
ATOM     19  C14 DF1 d   1       9.049  -5.449  15.829  0.00  0.00    -0.051 C 
ATOM     20  H10 DF1 d   1      10.050  -4.996  15.890  0.00  0.00     0.030 H 
ATOM     21  H11 DF1 d   1       8.657  -5.335  14.807  0.00  0.00     0.030 H 
ATOM     22  H12 DF1 d   1       9.115  -6.518  16.080  0.00  0.00     0.030 H 
ENDBRANCH  17  19
BRANCH  17  23
ATOM     23  O13 DF1 d   1       8.084  -3.306  16.628  0.00  0.00    -0.394 OA
ATOM     24  H13 DF1 d   1       7.491  -2.917  17.260  0.00  0.00     0.210 HD
ENDBRANCH  17  23
ENDBRANCH  14  17
ENDBRANCH  12  14
ENDBRANCH   3  12
BRANCH   1  25
ATOM     25  C15 DF1 d   1       3.126  -5.834  18.554  0.00  0.00    -0.023 A 
ATOM     26  C17 DF1 d   1       3.891  -6.935  18.934  0.00  0.00    -0.072 A 
ATOM     27  C18 DF1 d   1       3.684  -8.180  18.324  0.00  0.00    -0.082 A 
ATOM     28  H1  DF1 d   1       4.648  -6.829  19.703  0.00  0.00     0.084 H 
ATOM     29  C19 DF1 d   1       2.703  -8.323  17.339  0.00  0.00    -0.083 A 
ATOM     30  H2  DF1 d   1       4.286  -9.033  18.617  0.00  0.00     0.083 H 
ATOM     31  C20 DF1 d   1       1.929  -7.224  16.965  0.00  0.00    -0.082 A 
ATOM     32  H3  DF1 d   1       2.544  -9.286  16.867  0.00  0.00     0.083 H 
ATOM     33  C21 DF1 d   1       2.143  -5.978  17.570  0.00  0.00    -0.072 A 
ATOM     34  H4  DF1 d   1       1.162  -7.334  16.207  0.00  0.00     0.083 H 
ATOM     35  H5  DF1 d   1       1.545  -5.124  17.274  0.00  0.00     0.084 H 
ENDBRANCH   1  25
BRANCH   9  36
ATOM     36  C16 DF1 d   1       0.966  -4.082  19.880  0.00  0.00    -0.009 C 
ATOM     37  C22 DF1 d   1       0.452  -5.344  19.532  0.00  0.00    -0.071 C 
ATOM     38  C23 DF1 d   1      -0.886  -5.648  19.817  0.00  0.00    -0.082 C 
ATOM     39  H16 DF1 d   1       1.087  -6.077  19.047  0.00  0.00     0.084 H 
ATOM     40  C24 DF1 d   1      -1.666  -4.751  20.554  0.00  0.00    -0.083 C 
ATOM     41  H17 DF1 d   1      -1.317  -6.579  19.466  0.00  0.00     0.083 H 
ATOM     42  C25 DF1 d   1      -1.118  -3.536  20.973  0.00  0.00    -0.082 C 
ATOM     43  H18 DF1 d   1      -2.693  -4.998  20.799  0.00  0.00     0.083 H 
ATOM     44  C26 DF1 d   1       0.198  -3.218  20.643  0.00  0.00    -0.071 C 
ATOM     45  H19 DF1 d   1      -1.715  -2.842  21.553  0.00  0.00     0.083 H 
ATOM     46  H20 DF1 d   1       0.626  -2.283  20.988  0.00  0.00     0.084 H 
ENDBRANCH   9  36
TORSDOF 7
