REMARK  8 active torsions:
REMARK  status: ('A' for Active; 'I' for Inactive)
REMARK    1  A    between atoms: C10_2  and  C11_3 
REMARK    2  A    between atoms: C26_14  and  O27_17 
REMARK    3  A    between atoms: C23_25  and  C26_14 
REMARK    4  A    between atoms: N9_18  and  C4_19 
REMARK    5  A    between atoms: C8_26  and  N9_18 
REMARK    6  A    between atoms: C1_23  and  C18_24 
REMARK    7  A    between atoms: C23_25  and  C8_26 
REMARK    8  A    between atoms: C23_25  and  O24_27 
ROOT
ATOM      1  C2  DF2 d   1       6.008  -2.244  19.494  0.00  0.00     0.091 A 
ATOM      2  C10 DF2 d   1       2.017  -4.258  19.564  0.00  0.00     0.056 A 
ATOM      3  N1  DF2 d   1       4.764  -2.110  19.920  0.00  0.00    -0.223 NA
ATOM      4  C6  DF2 d   1       3.848  -3.058  19.686  0.00  0.00     0.144 A 
ATOM      5  C5  DF2 d   1       4.191  -4.227  19.005  0.00  0.00     0.069 A 
ATOM      6  C4  DF2 d   1       5.528  -4.336  18.605  0.00  0.00     0.140 A 
ATOM      7  N3  DF2 d   1       6.400  -3.352  18.869  0.00  0.00    -0.224 NA
ATOM      8  N90 DF2 d   1       2.540  -3.106  19.975  0.00  0.00    -0.339 N 
ATOM      9  C1  DF2 d   1       3.019  -4.996  18.938  0.00  0.00     0.020 A 
ATOM     10  H1  DF2 d   1       6.718  -1.441  19.656  0.00  0.00     0.146 H 
ATOM     11  H15 DF2 d   1       2.014  -2.357  20.448  0.00  0.00     0.167 HD
ENDROOT
BRANCH   6  12
ATOM     12  N9  DF2 d   1       6.029  -5.385  17.991  0.00  0.00    -0.371 N 
ATOM     13  H14 DF2 d   1       5.431  -6.155  17.658  0.00  0.00     0.161 HD
BRANCH  12  14
ATOM     14  C8  DF2 d   1       7.467  -5.401  17.808  0.00  0.00     0.020 C 
ATOM     15  H18 DF2 d   1       7.823  -6.434  17.682  0.00  0.00     0.068 H 
ATOM     16  H19 DF2 d   1       7.966  -4.944  18.675  0.00  0.00     0.068 H 
BRANCH  14  17
ATOM     17  C23 DF2 d   1       7.750  -4.582  16.538  0.00  0.00     0.071 C 
ATOM     18  H17 DF2 d   1       6.805  -4.411  16.002  0.00  0.00     0.088 H 
BRANCH  17  19
ATOM     19  C26 DF2 d   1       8.648  -5.460  15.685  0.00  0.00     0.042 C 
ATOM     20  H11 DF2 d   1       9.036  -4.888  14.829  0.00  0.00     0.077 H 
ATOM     21  H12 DF2 d   1       9.489  -5.838  16.285  0.00  0.00     0.077 H 
BRANCH  19  22
ATOM     22  O27 DF2 d   1       7.840  -6.548  15.226  0.00  0.00    -0.398 OA
ATOM     23  H13 DF2 d   1       7.114  -6.209  14.716  0.00  0.00     0.209 HD
ENDBRANCH  19  22
ENDBRANCH  17  19
BRANCH  17  24
ATOM     24  O24 DF2 d   1       8.335  -3.264  16.836  0.00  0.00    -0.392 OA
ATOM     25  H20 DF2 d   1       8.491  -2.797  16.023  0.00  0.00     0.210 HD
ENDBRANCH  17  24
ENDBRANCH  14  17
ENDBRANCH  12  14
ENDBRANCH   6  12
BRANCH   9  26
ATOM     26  C18 DF2 d   1       2.905  -6.305  18.383  0.00  0.00    -0.023 A 
ATOM     27  C19 DF2 d   1       2.413  -6.585  17.124  0.00  0.00    -0.072 A 
ATOM     28  C20 DF2 d   1       2.389  -7.945  16.775  0.00  0.00    -0.082 A 
ATOM     29  H7  DF2 d   1       2.069  -5.808  16.451  0.00  0.00     0.084 H 
ATOM     30  C21 DF2 d   1       2.826  -8.949  17.661  0.00  0.00    -0.083 A 
ATOM     31  H8  DF2 d   1       2.023  -8.230  15.795  0.00  0.00     0.083 H 
ATOM     32  C22 DF2 d   1       3.339  -8.759  18.919  0.00  0.00    -0.082 A 
ATOM     33  H9  DF2 d   1       2.749  -9.973  17.314  0.00  0.00     0.083 H 
ATOM     34  C17 DF2 d   1       3.350  -7.380  19.167  0.00  0.00    -0.072 A 
ATOM     35  H10 DF2 d   1       3.675  -9.535  19.598  0.00  0.00     0.083 H 
ATOM     36  H16 DF2 d   1       3.773  -7.096  20.124  0.00  0.00     0.084 H 
ENDBRANCH   9  26
BRANCH   2  37
ATOM     37  C11 DF2 d   1       0.675  -4.577  19.762  0.00  0.00    -0.009 A 
ATOM     38  C12 DF2 d   1       0.031  -5.633  19.118  0.00  0.00    -0.071 A 
ATOM     39  C13 DF2 d   1      -1.325  -5.903  19.363  0.00  0.00    -0.082 A 
ATOM     40  H2  DF2 d   1       0.583  -6.252  18.421  0.00  0.00     0.084 H 
ATOM     41  C14 DF2 d   1      -2.048  -5.090  20.250  0.00  0.00    -0.083 A 
ATOM     42  H3  DF2 d   1      -1.812  -6.736  18.869  0.00  0.00     0.083 H 
ATOM     43  C15 DF2 d   1      -1.414  -4.025  20.872  0.00  0.00    -0.082 A 
ATOM     44  H4  DF2 d   1      -3.094  -5.293  20.447  0.00  0.00     0.083 H 
ATOM     45  C16 DF2 d   1      -0.061  -3.770  20.631  0.00  0.00    -0.071 A 
ATOM     46  H5  DF2 d   1      -1.971  -3.387  21.549  0.00  0.00     0.083 H 
ATOM     47  H6  DF2 d   1       0.423  -2.935  21.125  0.00  0.00     0.084 H 
ENDBRANCH   2  37
TORSDOF 8
