REMARK  17 active torsions:
REMARK  status: ('A' for Active; 'I' for Inactive)
REMARK    1  A    between atoms: CI2_13  and  CS1_1 
REMARK    2  A    between atoms: CS4_4  and  OS7_7 
REMARK    3  A    between atoms: OS7_7  and  SS7_8 
REMARK    4  A    between atoms: SS7_8  and  NS0_11 
REMARK    5  A    between atoms: NI1_12  and  CP1_21 
REMARK    6  A    between atoms: O29_34  and  CI6_17 
REMARK    7  A    between atoms: CP1_21  and  CP2_22 
REMARK    8  A    between atoms: CP2_22  and  CP3_23 
REMARK    9  A    between atoms: CP3_23  and  CP4_24 
REMARK   10  A    between atoms: CP4_24  and  CP5_25 
REMARK   11  A    between atoms: CP5_25  and  CP6_26 
REMARK   12  A    between atoms: CP6_26  and  CP7_27 
REMARK   13  A    between atoms: CP7_27  and  CP8_28 
REMARK   14  A    between atoms: CP8_28  and  CP9_29 
REMARK   15  A    between atoms: CP9_29  and  CP0_30 
REMARK   16  A    between atoms: S27_32  and  O29_34 
REMARK   17  A    between atoms: S27_32  and  N20_35 
ROOT
ATOM      1  NI1 SIE d   1      12.838 -11.998  33.380  0.00  0.00    -0.345 N 
ATOM      2  CI2 SIE d   1      13.664 -10.873  33.309  0.00  0.00     0.046 A 
ATOM      3  CI3 SIE d   1      12.996  -9.740  32.991  0.00  0.00    -0.044 A 
ATOM      4  CI4 SIE d   1      10.500  -9.373  32.540  0.00  0.00    -0.068 A 
ATOM      5  CI5 SIE d   1       9.278 -10.014  32.482  0.00  0.00    -0.048 A 
ATOM      6  CI6 SIE d   1       9.147 -11.408  32.711  0.00  0.00     0.093 A 
ATOM      7  CI7 SIE d   1      10.270 -12.224  33.026  0.00  0.00    -0.023 A 
ATOM      8  CI8 SIE d   1      11.538 -11.557  33.088  0.00  0.00     0.048 A 
ATOM      9  CI9 SIE d   1      11.632 -10.131  32.857  0.00  0.00    -0.007 A 
ATOM     10  H7  SIE d   1      13.412  -8.742  32.864  0.00  0.00     0.088 H 
ATOM     11  H8  SIE d   1      10.580  -8.310  32.345  0.00  0.00     0.085 H 
ATOM     12  H9  SIE d   1       8.391  -9.434  32.254  0.00  0.00     0.087 H 
ATOM     13  H10 SIE d   1      10.172 -13.288  33.209  0.00  0.00     0.091 H 
ENDROOT
BRANCH   1  14
ATOM     14  CP1 SIE d   1      13.200 -13.409  33.775  0.00  0.00     0.000 C 
ATOM     15  H11 SIE d   1      12.283 -14.016  33.785  0.00  0.00     0.064 H 
ATOM     16  H12 SIE d   1      13.637 -13.389  34.784  0.00  0.00     0.064 H 
BRANCH  14  17
ATOM     17  CP2 SIE d   1      14.198 -14.056  32.829  0.00  0.00    -0.050 C 
ATOM     18  H13 SIE d   1      15.010 -13.346  32.612  0.00  0.00     0.035 H 
ATOM     19  H14 SIE d   1      13.690 -14.329  31.892  0.00  0.00     0.035 H 
BRANCH  17  20
ATOM     20  CP3 SIE d   1      14.775 -15.299  33.468  0.00  0.00    -0.064 C 
ATOM     21  H15 SIE d   1      14.471 -16.174  32.875  0.00  0.00     0.033 H 
ATOM     22  H16 SIE d   1      14.374 -15.390  34.488  0.00  0.00     0.033 H 
BRANCH  20  23
ATOM     23  CP4 SIE d   1      16.297 -15.264  33.542  0.00  0.00    -0.065 C 
ATOM     24  H17 SIE d   1      16.601 -14.544  34.316  0.00  0.00     0.033 H 
ATOM     25  H18 SIE d   1      16.695 -14.945  32.567  0.00  0.00     0.033 H 
BRANCH  23  26
ATOM     26  CP5 SIE d   1      16.878 -16.645  33.890  0.00  0.00    -0.065 C 
ATOM     27  H19 SIE d   1      17.954 -16.531  34.087  0.00  0.00     0.033 H 
ATOM     28  H20 SIE d   1      16.731 -17.312  33.028  0.00  0.00     0.033 H 
BRANCH  26  29
ATOM     29  CP6 SIE d   1      16.221 -17.291  35.126  0.00  0.00    -0.065 C 
ATOM     30  H21 SIE d   1      15.156 -17.018  35.152  0.00  0.00     0.033 H 
ATOM     31  H22 SIE d   1      16.717 -16.918  36.034  0.00  0.00     0.033 H 
BRANCH  29  32
ATOM     32  CP7 SIE d   1      16.346 -18.818  35.078  0.00  0.00    -0.065 C 
ATOM     33  H23 SIE d   1      15.671 -19.259  35.826  0.00  0.00     0.033 H 
ATOM     34  H24 SIE d   1      17.384 -19.103  35.307  0.00  0.00     0.033 H 
BRANCH  32  35
ATOM     35  CP8 SIE d   1      15.974 -19.349  33.690  0.00  0.00    -0.065 C 
ATOM     36  H25 SIE d   1      16.785 -19.998  33.329  0.00  0.00     0.033 H 
ATOM     37  H26 SIE d   1      15.853 -18.497  33.004  0.00  0.00     0.033 H 
BRANCH  35  38
ATOM     38  CP9 SIE d   1      14.686 -20.144  33.715  0.00  0.00    -0.069 C 
ATOM     39  H27 SIE d   1      14.009 -19.703  34.462  0.00  0.00     0.032 H 
ATOM     40  H28 SIE d   1      14.914 -21.183  33.994  0.00  0.00     0.032 H 
BRANCH  38  41
ATOM     41  CP0 SIE d   1      13.997 -20.137  32.360  0.00  0.00    -0.077 C 
ATOM     42  H29 SIE d   1      13.068 -20.723  32.418  0.00  0.00     0.027 H 
ATOM     43  H30 SIE d   1      14.664 -20.581  31.607  0.00  0.00     0.027 H 
ATOM     44  H31 SIE d   1      13.760 -19.102  32.075  0.00  0.00     0.027 H 
ENDBRANCH  38  41
ENDBRANCH  35  38
ENDBRANCH  32  35
ENDBRANCH  29  32
ENDBRANCH  26  29
ENDBRANCH  23  26
ENDBRANCH  20  23
ENDBRANCH  17  20
ENDBRANCH  14  17
ENDBRANCH   1  14
BRANCH   2  45
ATOM     45  CS1 SIE d   1      15.352 -10.803  33.646  0.00  0.00    -0.009 A 
ATOM     46  CS2 SIE d   1      16.140 -11.935  33.978  0.00  0.00    -0.068 A 
ATOM     47  CS3 SIE d   1      17.570 -11.828  34.205  0.00  0.00    -0.049 A 
ATOM     48  H1  SIE d   1      15.662 -12.904  34.064  0.00  0.00     0.085 H 
ATOM     49  CS4 SIE d   1      18.284 -10.534  34.105  0.00  0.00     0.091 A 
ATOM     50  H2  SIE d   1      18.131 -12.721  34.455  0.00  0.00     0.087 H 
ATOM     51  CS5 SIE d   1      17.422  -9.302  33.761  0.00  0.00    -0.049 A 
ATOM     52  CS6 SIE d   1      15.992  -9.487  33.540  0.00  0.00    -0.068 A 
ATOM     53  H3  SIE d   1      17.870  -8.318  33.685  0.00  0.00     0.087 H 
ATOM     54  H4  SIE d   1      15.383  -8.626  33.290  0.00  0.00     0.085 H 
BRANCH  49  55
ATOM     55  OS7 SIE d   1      19.909 -10.391  34.348  0.00  0.00    -0.217 OA
BRANCH  55  56
ATOM     56  SS7 SIE d   1      20.499  -9.153  34.628  0.00  0.00     0.360 S 
ATOM     57  OS8 SIE d   1      20.198  -8.087  33.695  0.00  0.00    -0.176 OA
ATOM     58  OS9 SIE d   1      20.083  -8.848  35.929  0.00  0.00    -0.176 OA
BRANCH  56  59
ATOM     59  NS0 SIE d   1      22.003  -9.347  34.682  0.00  0.00    -0.305 N 
ATOM     60  H5  SIE d   1      22.601  -8.568  34.872  0.00  0.00     0.171 HD
ATOM     61  H6  SIE d   1      22.396 -10.253  34.528  0.00  0.00     0.171 HD
ENDBRANCH  56  59
ENDBRANCH  55  56
ENDBRANCH  49  55
ENDBRANCH   2  45
BRANCH   6  62
ATOM     62  O29 SIE d   1       7.672 -12.125  32.616  0.00  0.00    -0.217 OA
BRANCH  62  63
ATOM     63  S27 SIE d   1       6.621 -12.035  33.592  0.00  0.00     0.360 S 
ATOM     64  O27 SIE d   1       7.200 -11.761  34.830  0.00  0.00    -0.176 OA
ATOM     65  O28 SIE d   1       5.630 -11.115  33.092  0.00  0.00    -0.176 OA
BRANCH  63  66
ATOM     66  N20 SIE d   1       6.008 -13.399  33.681  0.00  0.00    -0.305 N 
ATOM     67  H32 SIE d   1       5.247 -13.565  34.309  0.00  0.00     0.171 HD
ATOM     68  H33 SIE d   1       6.359 -14.143  33.113  0.00  0.00     0.171 HD
ENDBRANCH  63  66
ENDBRANCH  62  63
ENDBRANCH   6  62
TORSDOF 17
