REMARK  6 active torsions:
REMARK  status: ('A' for Active; 'I' for Inactive)
REMARK       I    between atoms: C10_2  and  N9_3 
REMARK    1  A    between atoms: C10_2  and  C12_12 
REMARK    2  A    between atoms: N9_3  and  C3_4 
REMARK    3  A    between atoms: C1_8  and  C6_9 
REMARK    4  A    between atoms: C6_9  and  C8_10 
REMARK    5  A    between atoms: C6_9  and  C7_11 
REMARK    6  A    between atoms: C12_12  and  C13_13 
ROOT
ATOM      1  O11 U73 d   1      10.880  45.713  25.963  0.00  0.00    -0.273 OA
ATOM      2  C10 U73 d   1      10.089  46.361  25.281  0.00  0.00     0.227 C 
ATOM      3  N9  U73 d   1      10.341  46.684  24.019  0.00  0.00    -0.305 N 
ATOM      4  H1  U73 d   1       9.611  47.135  23.505  0.00  0.00     0.171 HD
ENDROOT
BRANCH   3   5
ATOM      5  C3  U73 d   1      11.636  46.427  23.299  0.00  0.00     0.173 A 
ATOM      6  N4  U73 d   1      11.853  46.738  21.973  0.00  0.00    -0.235 NA
ATOM      7  C5  U73 d   1      13.042  46.341  21.695  0.00  0.00     0.018 A 
ATOM      8  C1  U73 d   1      13.723  45.673  22.640  0.00  0.00     0.007 A 
ATOM      9  H2  U73 d   1      13.486  46.540  20.721  0.00  0.00     0.116 H 
ATOM     10  S2  U73 d   1      12.887  45.492  24.088  0.00  0.00    -0.055 SA
BRANCH   8  11
ATOM     11  C6  U73 d   1      15.104  45.097  22.395  0.00  0.00    -0.028 C 
ATOM     12  H3  U73 d   1      15.550  45.668  21.568  0.00  0.00     0.047 H 
BRANCH  11  13
ATOM     13  C8  U73 d   1      14.965  43.633  21.927  0.00  0.00    -0.069 C 
ATOM     14  H4  U73 d   1      15.964  43.209  21.747  0.00  0.00     0.028 H 
ATOM     15  H5  U73 d   1      14.380  43.600  20.996  0.00  0.00     0.028 H 
ATOM     16  H6  U73 d   1      14.452  43.047  22.704  0.00  0.00     0.028 H 
ENDBRANCH  11  13
BRANCH  11  17
ATOM     17  C7  U73 d   1      16.056  45.231  23.578  0.00  0.00    -0.069 C 
ATOM     18  H7  U73 d   1      16.124  46.288  23.876  0.00  0.00     0.028 H 
ATOM     19  H8  U73 d   1      17.053  44.867  23.289  0.00  0.00     0.028 H 
ATOM     20  H9  U73 d   1      15.678  44.635  24.422  0.00  0.00     0.028 H 
ENDBRANCH  11  17
ENDBRANCH   8  11
ENDBRANCH   3   5
BRANCH   2  21
ATOM     21  C12 U73 d   1       8.724  46.722  25.823  0.00  0.00     0.035 C 
ATOM     22  H10 U73 d   1       8.322  45.843  26.349  0.00  0.00     0.054 H 
ATOM     23  H11 U73 d   1       8.073  46.970  24.972  0.00  0.00     0.054 H 
BRANCH  21  24
ATOM     24  C13 U73 d   1       8.710  47.876  26.770  0.00  0.00    -0.032 A 
ATOM     25  C14 U73 d   1       8.915  47.679  28.124  0.00  0.00    -0.074 A 
ATOM     26  C15 U73 d   1       8.916  48.790  28.967  0.00  0.00    -0.066 A 
ATOM     27  H12 U73 d   1       9.072  46.683  28.521  0.00  0.00     0.084 H 
ATOM     28  C16 U73 d   1       8.715  50.033  28.428  0.00  0.00     0.002 A 
ATOM     29  H13 U73 d   1       9.073  48.672  30.033  0.00  0.00     0.085 H 
ATOM     30  N17 U73 d   1       8.500  50.183  27.116  0.00  0.00    -0.273 NA
ATOM     31  H14 U73 d   1       8.730  50.905  29.072  0.00  0.00     0.114 H 
ATOM     32  C18 U73 d   1       8.491  49.142  26.283  0.00  0.00     0.008 A 
ATOM     33  H15 U73 d   1       8.312  49.294  25.225  0.00  0.00     0.115 H 
ENDBRANCH  21  24
ENDBRANCH   2  21
TORSDOF 6
