REMARK  7 active torsions:
REMARK  status: ('A' for Active; 'I' for Inactive)
REMARK    1  A    between atoms: C3_4  and  C4_5 
REMARK    2  A    between atoms: C4_5  and  C5_6 
REMARK    3  A    between atoms: C4_5  and  C6_7 
REMARK    4  A    between atoms: N90_14  and  C8_9 
REMARK    5  A    between atoms: S16_19  and  N11_11 
REMARK    6  A    between atoms: C14_13  and  S16_19 
REMARK    7  A    between atoms: C18_17  and  N90_14 
ROOT
ATOM      1  N90 U32 d   1       2.845   6.529  30.330  0.00  0.00    -0.335 N 
ATOM      2  H12 U32 d   1       3.252   6.065  31.154  0.00  0.00     0.168 HD
ENDROOT
BRANCH   1   3
ATOM      3  C8  U32 d   1       1.615   5.885  29.815  0.00  0.00     0.171 A 
ATOM      4  S7  U32 d   1       0.397   6.560  28.687  0.00  0.00    -0.055 SA
ATOM      5  C3  U32 d   1      -0.305   5.028  28.661  0.00  0.00     0.007 A 
ATOM      6  C2  U32 d   1       0.321   4.103  29.410  0.00  0.00     0.018 A 
ATOM      7  N9  U32 d   1       1.373   4.475  30.018  0.00  0.00    -0.236 NA
ATOM      8  H1  U32 d   1      -0.055   3.084  29.491  0.00  0.00     0.116 H 
BRANCH   5   9
ATOM      9  C4  U32 d   1      -1.611   4.670  27.947  0.00  0.00    -0.028 C 
ATOM     10  H2  U32 d   1      -2.007   3.789  28.474  0.00  0.00     0.047 H 
BRANCH   9  11
ATOM     11  C5  U32 d   1      -2.618   5.797  28.137  0.00  0.00    -0.069 C 
ATOM     12  H3  U32 d   1      -3.557   5.540  27.624  0.00  0.00     0.028 H 
ATOM     13  H4  U32 d   1      -2.211   6.727  27.714  0.00  0.00     0.028 H 
ATOM     14  H5  U32 d   1      -2.813   5.937  29.210  0.00  0.00     0.028 H 
ENDBRANCH   9  11
BRANCH   9  15
ATOM     15  C6  U32 d   1      -1.532   4.267  26.485  0.00  0.00    -0.069 C 
ATOM     16  H6  U32 d   1      -0.801   3.453  26.368  0.00  0.00     0.028 H 
ATOM     17  H7  U32 d   1      -1.217   5.132  25.883  0.00  0.00     0.028 H 
ATOM     18  H8  U32 d   1      -2.520   3.924  26.145  0.00  0.00     0.028 H 
ENDBRANCH   9  15
ENDBRANCH   5   9
ENDBRANCH   1   3
BRANCH   1  19
ATOM     19  C18 U32 d   1       3.542   7.639  29.903  0.00  0.00     0.034 A 
ATOM     20  C17 U32 d   1       4.712   7.969  30.622  0.00  0.00    -0.056 A 
ATOM     21  C16 U32 d   1       5.484   9.094  30.314  0.00  0.00    -0.058 A 
ATOM     22  H14 U32 d   1       5.022   7.329  31.440  0.00  0.00     0.087 H 
ATOM     23  C14 U32 d   1       5.131   9.907  29.237  0.00  0.00     0.079 A 
ATOM     24  H13 U32 d   1       6.356   9.334  30.912  0.00  0.00     0.086 H 
ATOM     25  C13 U32 d   1       3.978   9.589  28.517  0.00  0.00    -0.058 A 
ATOM     26  C19 U32 d   1       3.191   8.464  28.833  0.00  0.00    -0.056 A 
ATOM     27  H11 U32 d   1       3.680  10.226  27.692  0.00  0.00     0.086 H 
ATOM     28  H15 U32 d   1       2.310   8.238  28.243  0.00  0.00     0.087 H 
BRANCH  23  29
ATOM     29  S16 U32 d   1       6.036  11.202  28.857  0.00  0.00     0.256 S 
ATOM     30  O1  U32 d   1       6.510  11.908  30.162  0.00  0.00    -0.201 OA
ATOM     31  O2  U32 d   1       7.307  10.634  28.142  0.00  0.00    -0.201 OA
BRANCH  29  32
ATOM     32  N11 U32 d   1       5.221  12.184  27.927  0.00  0.00    -0.324 N 
ATOM     33  H9  U32 d   1       4.385  12.616  28.266  0.00  0.00     0.169 HD
ATOM     34  H10 U32 d   1       5.541  12.374  26.999  0.00  0.00     0.169 HD
ENDBRANCH  29  32
ENDBRANCH  23  29
ENDBRANCH   1  19
TORSDOF 7
