REMARK  7 active torsions:
REMARK  status: ('A' for Active; 'I' for Inactive)
REMARK       I    between atoms: N1_1  and  C1_2 
REMARK    1  A    between atoms: C1_2  and  C4_5 
REMARK    2  A    between atoms: C2_3  and  C6_8 
REMARK    3  A    between atoms: C4_5  and  C8_10 
REMARK    4  A    between atoms: C4_5  and  C9_11 
REMARK    5  A    between atoms: C4_5  and  O2_12 
REMARK    6  A    between atoms: C7_9  and  C10_14 
REMARK       I    between atoms: N2_13  and  C11_18 
REMARK    7  A    between atoms: C11_18  and  C12_19 
ROOT
ATOM      1  C12 TF1 d   1      55.372  63.397  80.336  0.00  0.00     0.032 A 
ATOM      2  C13 TF1 d   1      56.336  63.899  81.296  0.00  0.00    -0.066 A 
ATOM      3  C14 TF1 d   1      54.101  62.906  80.745  0.00  0.00    -0.066 A 
ATOM      4  C15 TF1 d   1      55.998  63.909  82.687  0.00  0.00    -0.062 A 
ATOM      5  C16 TF1 d   1      53.761  62.915  82.134  0.00  0.00    -0.062 A 
ATOM      6  C17 TF1 d   1      54.709  63.414  83.088  0.00  0.00     0.044 A 
ATOM      7  C18 TF1 d   1      54.357  63.393  84.472  0.00  0.00     0.099 C 
ATOM      8  N3  TF1 d   1      54.062  63.367  85.592  0.00  0.00    -0.191 NA
ATOM      9  H17 TF1 d   1      57.302  64.263  80.964  0.00  0.00     0.085 H 
ATOM     10  H18 TF1 d   1      53.398  62.529  80.011  0.00  0.00     0.085 H 
ATOM     11  H19 TF1 d   1      56.700  64.282  83.424  0.00  0.00     0.085 H 
ATOM     12  H20 TF1 d   1      52.795  62.548  82.463  0.00  0.00     0.085 H 
ENDROOT
BRANCH   1  13
ATOM     13  C11 TF1 d   1      55.679  63.433  78.896  0.00  0.00     0.254 C 
ATOM     14  N2  TF1 d   1      56.563  62.526  78.304  0.00  0.00    -0.340 N 
ATOM     15  C5  TF1 d   1      56.831  62.647  76.842  0.00  0.00     0.017 C 
ATOM     16  C7  TF1 d   1      57.282  61.443  79.041  0.00  0.00     0.027 C 
ATOM     17  C2  TF1 d   1      56.393  61.342  76.139  0.00  0.00     0.027 C 
ATOM     18  H4  TF1 d   1      56.263  63.495  76.432  0.00  0.00     0.067 H 
ATOM     19  H5  TF1 d   1      57.906  62.812  76.677  0.00  0.00     0.067 H 
ATOM     20  N1  TF1 d   1      57.059  60.193  76.826  0.00  0.00    -0.341 N 
ATOM     21  H1  TF1 d   1      56.736  61.384  75.095  0.00  0.00     0.074 H 
ATOM     22  C1  TF1 d   1      57.674  59.296  75.919  0.00  0.00     0.263 C 
ATOM     23  C3  TF1 d   1      56.948  60.120  78.328  0.00  0.00     0.017 C 
ATOM     24  O1  TF1 d   1      57.633  59.510  74.701  0.00  0.00    -0.270 OA
ATOM     25  H2  TF1 d   1      57.641  59.346  78.690  0.00  0.00     0.067 H 
ATOM     26  H3  TF1 d   1      55.917  59.838  78.586  0.00  0.00     0.067 H 
ATOM     27  H9  TF1 d   1      56.900  61.391  80.071  0.00  0.00     0.074 H 
ATOM     28  O3  TF1 d   1      55.145  64.286  78.196  0.00  0.00    -0.267 OA
BRANCH  17  29
ATOM     29  C6  TF1 d   1      54.859  61.118  76.129  0.00  0.00    -0.056 C 
ATOM     30  H6  TF1 d   1      54.368  61.963  75.624  0.00  0.00     0.030 H 
ATOM     31  H7  TF1 d   1      54.492  61.046  77.163  0.00  0.00     0.030 H 
ATOM     32  H8  TF1 d   1      54.628  60.186  75.593  0.00  0.00     0.030 H 
ENDBRANCH  17  29
BRANCH  22  33
ATOM     33  C4  TF1 d   1      58.419  57.997  76.457  0.00  0.00     0.233 C 
BRANCH  33  34
ATOM     34  C8  TF1 d   1      57.448  56.839  76.971  0.00  0.00     0.427 C 
ATOM     35  F1  TF1 d   1      56.727  56.351  75.969  0.00  0.00    -0.167 F 
ATOM     36  F2  TF1 d   1      58.133  55.815  77.443  0.00  0.00    -0.167 F 
ATOM     37  F3  TF1 d   1      56.591  57.229  77.900  0.00  0.00    -0.167 F 
ENDBRANCH  33  34
BRANCH  33  38
ATOM     38  C9  TF1 d   1      59.169  57.421  75.214  0.00  0.00    -0.031 C 
ATOM     39  H10 TF1 d   1      59.857  58.182  74.816  0.00  0.00     0.032 H 
ATOM     40  H11 TF1 d   1      58.438  57.146  74.439  0.00  0.00     0.032 H 
ATOM     41  H12 TF1 d   1      59.741  56.530  75.511  0.00  0.00     0.032 H 
ENDBRANCH  33  38
BRANCH  33  42
ATOM     42  O2  TF1 d   1      59.374  58.294  77.342  0.00  0.00    -0.373 OA
ATOM     43  H13 TF1 d   1      59.901  57.522  77.508  0.00  0.00     0.211 HD
ENDBRANCH  33  42
ENDBRANCH  22  33
BRANCH  16  44
ATOM     44  C10 TF1 d   1      58.803  61.750  79.112  0.00  0.00    -0.056 C 
ATOM     45  H14 TF1 d   1      58.960  62.706  79.633  0.00  0.00     0.030 H 
ATOM     46  H15 TF1 d   1      59.212  61.816  78.093  0.00  0.00     0.030 H 
ATOM     47  H16 TF1 d   1      59.314  60.945  79.661  0.00  0.00     0.030 H 
ENDBRANCH  16  44
ENDBRANCH   1  13
TORSDOF 7
