REMARK  3 active torsions:
REMARK  status: ('A' for Active; 'I' for Inactive)
REMARK    1  A    between atoms: C3_3  and  C6_6 
REMARK    2  A    between atoms: C3_3  and  C12_12 
REMARK    3  A    between atoms: C12_12  and  N13_13 
ROOT
ATOM      1  C1  007 d   1      -5.990  21.236   4.037  0.00  0.00    -0.052 C 
ATOM      2  C2  007 d   1      -6.032  22.760   4.034  0.00  0.00    -0.064 C 
ATOM      3  C3  007 d   1      -7.293  20.728   4.694  0.00  0.00     0.010 C 
ATOM      4  C4  007 d   1      -7.493  23.163   4.187  0.00  0.00    -0.064 C 
ATOM      5  C5  007 d   1      -8.291  21.874   4.411  0.00  0.00    -0.052 C 
ATOM      6  H1  007 d   1      -5.120  20.887   4.613  0.00  0.00     0.034 H 
ATOM      7  H2  007 d   1      -5.921  20.862   3.005  0.00  0.00     0.034 H 
ATOM      8  H3  007 d   1      -5.630  23.148   3.086  0.00  0.00     0.033 H 
ATOM      9  H4  007 d   1      -5.441  23.156   4.872  0.00  0.00     0.033 H 
ATOM     10  H5  007 d   1      -7.843  23.670   3.276  0.00  0.00     0.033 H 
ATOM     11  H6  007 d   1      -7.611  23.835   5.050  0.00  0.00     0.033 H 
ATOM     12  H7  007 d   1      -8.967  21.999   5.270  0.00  0.00     0.034 H 
ATOM     13  H8  007 d   1      -8.880  21.640   3.512  0.00  0.00     0.034 H 
ENDROOT
BRANCH   3  14
ATOM     14  C6  007 d   1      -7.835  19.370   4.077  0.00  0.00    -0.048 A 
ATOM     15  C7  007 d   1      -6.920  18.410   3.538  0.00  0.00    -0.076 A 
ATOM     16  C9  007 d   1      -7.384  17.200   2.989  0.00  0.00    -0.082 A 
ATOM     17  H9  007 d   1      -5.856  18.618   3.553  0.00  0.00     0.084 H 
ATOM     18  C11 007 d   1      -8.768  16.915   2.960  0.00  0.00    -0.083 A 
ATOM     19  H11 007 d   1      -6.677  16.484   2.587  0.00  0.00     0.083 H 
ATOM     20  C10 007 d   1      -9.688  17.837   3.481  0.00  0.00    -0.082 A 
ATOM     21  H13 007 d   1      -9.119  15.982   2.534  0.00  0.00     0.083 H 
ATOM     22  C8  007 d   1      -9.229  19.052   4.035  0.00  0.00    -0.076 A 
ATOM     23  H12 007 d   1     -10.749  17.617   3.458  0.00  0.00     0.083 H 
ATOM     24  H10 007 d   1      -9.947  19.758   4.436  0.00  0.00     0.084 H 
ENDBRANCH   3  14
BRANCH   3  25
ATOM     25  C12 007 d   1      -7.028  20.571   6.227  0.00  0.00     0.090 C 
ATOM     26  H14 007 d   1      -7.776  21.171   6.766  0.00  0.00     0.076 H 
ATOM     27  H15 007 d   1      -6.022  20.962   6.441  0.00  0.00     0.076 H 
BRANCH  25  28
ATOM     28  N13 007 d   1      -7.099  19.189   6.734  0.00  0.00    -0.078 N 
ATOM     29  H16 007 d   1      -6.916  19.185   7.725  0.00  0.00     0.274 HD
ATOM     30  H17 007 d   1      -6.411  18.622   6.263  0.00  0.00     0.274 HD
ATOM     31  H18 007 d   1      -8.018  18.814   6.561  0.00  0.00     0.274 HD
ENDBRANCH  25  28
ENDBRANCH   3  25
TORSDOF 3
