REMARK  8 active torsions:
REMARK  status: ('A' for Active; 'I' for Inactive)
REMARK    1  A    between atoms: C12_2  and  C11_3 
REMARK       I    between atoms: C12_2  and  N13_14 
REMARK    2  A    between atoms: C11_3  and  C10_4 
REMARK    3  A    between atoms: C10_4  and  N18_5 
REMARK    4  A    between atoms: C10_4  and  C9_6 
REMARK    5  A    between atoms: C9_6  and  C3_7 
REMARK    6  A    between atoms: C14_15  and  C15_19 
REMARK    7  A    between atoms: C15_19  and  N17_20 
REMARK       I    between atoms: N17_20  and  C22_21 
REMARK    8  A    between atoms: C22_21  and  C25_23 
ROOT
ATOM      1  O16 FPB d   1      47.082  49.714  34.289  0.00  0.00    -0.273 OA
ATOM      2  C12 FPB d   1      46.560  50.711  33.831  0.00  0.00     0.222 C 
ATOM      3  N13 FPB d   1      46.009  50.713  32.561  0.00  0.00    -0.346 N 
ATOM      4  C14 FPB d   1      46.004  49.594  31.612  0.00  0.00     0.030 C 
ATOM      5  C21 FPB d   1      44.740  49.867  30.800  0.00  0.00    -0.043 C 
ATOM      6  C20 FPB d   1      44.750  51.384  30.622  0.00  0.00    -0.048 C 
ATOM      7  C19 FPB d   1      45.362  51.887  31.937  0.00  0.00    -0.002 C 
ATOM      8  H13 FPB d   1      45.963  48.614  32.109  0.00  0.00     0.075 H 
ATOM      9  H14 FPB d   1      43.843  49.541  31.348  0.00  0.00     0.036 H 
ATOM     10  H15 FPB d   1      44.781  49.357  29.826  0.00  0.00     0.036 H 
ATOM     11  H16 FPB d   1      43.730  51.772  30.488  0.00  0.00     0.035 H 
ATOM     12  H17 FPB d   1      45.370  51.676  29.761  0.00  0.00     0.035 H 
ATOM     13  H18 FPB d   1      46.106  52.672  31.736  0.00  0.00     0.064 H 
ATOM     14  H19 FPB d   1      44.577  52.286  32.596  0.00  0.00     0.064 H 
ENDROOT
BRANCH   2  15
ATOM     15  C11 FPB d   1      46.494  51.972  34.673  0.00  0.00     0.036 C 
ATOM     16  H1  FPB d   1      45.498  52.429  34.579  0.00  0.00     0.050 H 
ATOM     17  H2  FPB d   1      47.258  52.686  34.332  0.00  0.00     0.050 H 
BRANCH  15  18
ATOM     18  C10 FPB d   1      46.751  51.601  36.122  0.00  0.00     0.112 C 
ATOM     19  H3  FPB d   1      46.189  50.701  36.413  0.00  0.00     0.085 H 
BRANCH  18  20
ATOM     20  N18 FPB d   1      46.376  52.742  36.954  0.00  0.00    -0.074 N 
ATOM     21  H4  FPB d   1      46.538  52.519  37.923  0.00  0.00     0.274 HD
ATOM     22  H5  FPB d   1      45.400  52.952  36.816  0.00  0.00     0.274 HD
ATOM     23  H6  FPB d   1      46.931  53.543  36.696  0.00  0.00     0.274 HD
ENDBRANCH  18  20
BRANCH  18  24
ATOM     24  C9  FPB d   1      48.249  51.379  36.244  0.00  0.00    -0.011 C 
ATOM     25  H7  FPB d   1      48.776  52.342  36.174  0.00  0.00     0.043 H 
ATOM     26  H8  FPB d   1      48.594  50.713  35.439  0.00  0.00     0.043 H 
BRANCH  24  27
ATOM     27  C3  FPB d   1      48.521  50.743  37.587  0.00  0.00    -0.018 A 
ATOM     28  C5  FPB d   1      49.178  51.449  38.585  0.00  0.00     0.122 A 
ATOM     29  F8  FPB d   1      49.585  52.673  38.358  0.00  0.00    -0.206 F 
ATOM     30  C7  FPB d   1      49.428  50.871  39.819  0.00  0.00    -0.045 A 
ATOM     31  C6  FPB d   1      49.002  49.581  40.065  0.00  0.00    -0.080 A 
ATOM     32  H9  FPB d   1      49.954  51.428  40.586  0.00  0.00     0.088 H 
ATOM     33  C4  FPB d   1      48.341  48.884  39.074  0.00  0.00    -0.082 A 
ATOM     34  H10 FPB d   1      49.185  49.119  41.029  0.00  0.00     0.083 H 
ATOM     35  C2  FPB d   1      48.095  49.457  37.839  0.00  0.00    -0.074 A 
ATOM     36  H11 FPB d   1      48.009  47.870  39.267  0.00  0.00     0.083 H 
ATOM     37  H12 FPB d   1      47.570  48.897  37.074  0.00  0.00     0.084 H 
ENDBRANCH  24  27
ENDBRANCH  18  24
ENDBRANCH  15  18
ENDBRANCH   2  15
BRANCH   4  38
ATOM     38  C15 FPB d   1      47.293  49.723  30.759  0.00  0.00     0.014 C 
ATOM     39  H20 FPB d   1      47.380  50.748  30.370  0.00  0.00     0.067 H 
ATOM     40  H21 FPB d   1      47.254  49.014  29.919  0.00  0.00     0.067 H 
BRANCH  38  41
ATOM     41  N17 FPB d   1      48.460  49.414  31.620  0.00  0.00    -0.355 N 
ATOM     42  C22 FPB d   1      49.346  50.378  32.123  0.00  0.00     0.251 C 
ATOM     43  O1  FPB d   1      49.178  51.557  31.849  0.00  0.00    -0.268 OA
ATOM     44  H22 FPB d   1      48.626  48.457  31.857  0.00  0.00     0.162 HD
BRANCH  42  45
ATOM     45  C25 FPB d   1      50.483  49.987  33.010  0.00  0.00     0.032 A 
ATOM     46  C27 FPB d   1      51.106  48.738  32.884  0.00  0.00    -0.068 A 
ATOM     47  C28 FPB d   1      52.157  48.409  33.745  0.00  0.00    -0.082 A 
ATOM     48  H23 FPB d   1      50.777  48.035  32.127  0.00  0.00     0.085 H 
ATOM     49  C26 FPB d   1      52.594  49.299  34.734  0.00  0.00    -0.083 A 
ATOM     50  H24 FPB d   1      52.644  47.446  33.645  0.00  0.00     0.083 H 
ATOM     51  C24 FPB d   1      51.978  50.535  34.865  0.00  0.00    -0.082 A 
ATOM     52  H25 FPB d   1      53.409  49.024  35.394  0.00  0.00     0.083 H 
ATOM     53  C23 FPB d   1      50.930  50.868  34.008  0.00  0.00    -0.068 A 
ATOM     54  H26 FPB d   1      52.308  51.234  35.625  0.00  0.00     0.083 H 
ATOM     55  H27 FPB d   1      50.447  51.833  34.115  0.00  0.00     0.085 H 
ENDBRANCH  42  45
ENDBRANCH  38  41
ENDBRANCH   4  38
TORSDOF 8
