REMARK  6 active torsions:
REMARK  status: ('A' for Active; 'I' for Inactive)
REMARK    1  A    between atoms: C6_7  and  C8_8 
REMARK    2  A    between atoms: C8_8  and  C9_9 
REMARK    3  A    between atoms: C9_9  and  N10_10 
REMARK    4  A    between atoms: C9_9  and  C11_11 
REMARK    5  A    between atoms: C11_11  and  C12_12 
REMARK       I    between atoms: C12_12  and  N14_14 
REMARK    6  A    between atoms: C15_23  and  C24_24 
REMARK       I    between atoms: C24_24  and  N26_26 
ROOT
ATOM      1  C12 008 d   1      -6.954  23.004   6.560  0.00  0.00     0.222 C 
ATOM      2  O13 008 d   1      -7.881  23.049   5.764  0.00  0.00    -0.273 OA
ATOM      3  N14 008 d   1      -6.307  24.103   6.974  0.00  0.00    -0.334 N 
ATOM      4  C19 008 d   1      -5.206  24.109   7.940  0.00  0.00     0.023 C 
ATOM      5  C18 008 d   1      -5.552  25.059   9.060  0.00  0.00    -0.034 A 
ATOM      6  C20 008 d   1      -5.421  24.707  10.403  0.00  0.00    -0.075 A 
ATOM      7  C21 008 d   1      -5.758  25.640  11.387  0.00  0.00    -0.082 A 
ATOM      8  C22 008 d   1      -6.225  26.905  11.020  0.00  0.00    -0.082 A 
ATOM      9  C17 008 d   1      -6.016  26.311   8.697  0.00  0.00    -0.048 A 
ATOM     10  C23 008 d   1      -6.350  27.250   9.672  0.00  0.00    -0.076 A 
ATOM     11  C16 008 d   1      -6.135  26.625   7.221  0.00  0.00    -0.013 C 
ATOM     12  C15 008 d   1      -6.677  25.428   6.417  0.00  0.00     0.095 C 
ATOM     13  H13 008 d   1      -4.281  24.441   7.446  0.00  0.00     0.071 H 
ATOM     14  H14 008 d   1      -5.063  23.096   8.345  0.00  0.00     0.071 H 
ATOM     15  H15 008 d   1      -5.062  23.722  10.680  0.00  0.00     0.084 H 
ATOM     16  H16 008 d   1      -5.657  25.383  12.435  0.00  0.00     0.083 H 
ATOM     17  H17 008 d   1      -6.492  27.623  11.787  0.00  0.00     0.083 H 
ATOM     18  H18 008 d   1      -6.702  28.235   9.388  0.00  0.00     0.084 H 
ATOM     19  H19 008 d   1      -5.141  26.892   6.834  0.00  0.00     0.043 H 
ATOM     20  H20 008 d   1      -6.819  27.477   7.093  0.00  0.00     0.043 H 
ATOM     21  H21 008 d   1      -7.775  25.489   6.428  0.00  0.00     0.088 H 
ENDROOT
BRANCH   1  22
ATOM     22  C11 008 d   1      -6.438  21.670   7.081  0.00  0.00     0.036 C 
ATOM     23  H11 008 d   1      -5.366  21.601   6.845  0.00  0.00     0.050 H 
ATOM     24  H12 008 d   1      -6.576  21.651   8.172  0.00  0.00     0.050 H 
BRANCH  22  25
ATOM     25  C9  008 d   1      -7.136  20.444   6.491  0.00  0.00     0.112 C 
ATOM     26  H7  008 d   1      -8.225  20.581   6.571  0.00  0.00     0.085 H 
BRANCH  25  27
ATOM     27  C8  008 d   1      -6.767  20.227   5.019  0.00  0.00    -0.011 C 
ATOM     28  H5  008 d   1      -6.933  21.161   4.463  0.00  0.00     0.043 H 
ATOM     29  H6  008 d   1      -5.707  19.943   4.950  0.00  0.00     0.043 H 
BRANCH  27  30
ATOM     30  C6  008 d   1      -7.618  19.129   4.414  0.00  0.00    -0.018 A 
ATOM     31  C1  008 d   1      -7.039  17.928   4.013  0.00  0.00     0.122 A 
ATOM     32  F7  008 d   1      -5.722  17.724   4.163  0.00  0.00    -0.206 F 
ATOM     33  C2  008 d   1      -7.822  16.917   3.458  0.00  0.00    -0.045 A 
ATOM     34  C3  008 d   1      -9.193  17.108   3.295  0.00  0.00    -0.080 A 
ATOM     35  H1  008 d   1      -7.365  15.983   3.153  0.00  0.00     0.088 H 
ATOM     36  C4  008 d   1      -9.775  18.310   3.691  0.00  0.00    -0.082 A 
ATOM     37  H2  008 d   1      -9.804  16.324   2.862  0.00  0.00     0.083 H 
ATOM     38  C5  008 d   1      -8.991  19.319   4.250  0.00  0.00    -0.074 A 
ATOM     39  H3  008 d   1     -10.841  18.462   3.564  0.00  0.00     0.083 H 
ATOM     40  H4  008 d   1      -9.449  20.252   4.558  0.00  0.00     0.084 H 
ENDBRANCH  27  30
ENDBRANCH  25  27
BRANCH  25  41
ATOM     41  N10 008 d   1      -6.737  19.273   7.243  0.00  0.00    -0.074 N 
ATOM     42  H8  008 d   1      -6.973  19.401   8.214  0.00  0.00     0.274 HD
ATOM     43  H9  008 d   1      -5.742  19.140   7.154  0.00  0.00     0.274 HD
ATOM     44  H10 008 d   1      -7.218  18.463   6.884  0.00  0.00     0.274 HD
ENDBRANCH  25  41
ENDBRANCH  22  25
ENDBRANCH   1  22
BRANCH  12  45
ATOM     45  C24 008 d   1      -6.210  25.566   4.993  0.00  0.00     0.238 C 
ATOM     46  O25 008 d   1      -6.992  25.995   4.164  0.00  0.00    -0.271 OA
ATOM     47  N26 008 d   1      -4.967  25.216   4.662  0.00  0.00    -0.368 N 
ATOM     48  H22 008 d   1      -4.657  25.308   3.716  0.00  0.00     0.159 HD
ATOM     49  H23 008 d   1      -4.345  24.862   5.360  0.00  0.00     0.159 HD
ENDBRANCH  12  45
TORSDOF 6
