REMARK  7 active torsions:
REMARK  status: ('A' for Active; 'I' for Inactive)
REMARK    1  A    between atoms: C1_1  and  O1_8 
REMARK    2  A    between atoms: C2_2  and  O2_9 
REMARK    3  A    between atoms: C3_3  and  O3_10 
REMARK    4  A    between atoms: C4_4  and  O4_11 
REMARK    5  A    between atoms: C5_5  and  C6_6 
REMARK    6  A    between atoms: C6_6  and  O6_13 
REMARK    7  A    between atoms: O1_8  and  C7_7 
ROOT
ATOM      1  C1  NON d   1       4.912  10.598  -3.159  0.00  0.00     0.158 C 
ATOM      2  C2  NON d   1       6.188   9.834  -2.931  0.00  0.00     0.110 C 
ATOM      3  C3  NON d   1       5.852   8.486  -2.289  0.00  0.00     0.092 C 
ATOM      4  C4  NON d   1       4.947   8.686  -1.061  0.00  0.00     0.090 C 
ATOM      5  C5  NON d   1       3.683   9.430  -1.533  0.00  0.00     0.089 C 
ATOM      6  O5  NON d   1       4.121  10.725  -2.021  0.00  0.00    -0.349 OA
ATOM      7  H1  NON d   1       5.202  11.625  -3.427  0.00  0.00     0.133 H 
ATOM      8  H2  NON d   1       6.696   9.683  -3.895  0.00  0.00     0.094 H 
ATOM      9  H3  NON d   1       5.314   7.872  -3.027  0.00  0.00     0.091 H 
ATOM     10  H4  NON d   1       5.458   9.292  -0.299  0.00  0.00     0.091 H 
ATOM     11  H5  NON d   1       3.198   8.846  -2.329  0.00  0.00     0.090 H 
ENDROOT
BRANCH   1  12
ATOM     12  O1  NON d   1       4.284  10.075  -4.260  0.00  0.00    -0.363 OA
BRANCH  12  13
ATOM     13  C7  NON d   1       3.148  10.825  -4.708  0.00  0.00     0.007 C 
ATOM     14  H8  NON d   1       2.710  10.335  -5.590  0.00  0.00     0.066 H 
ATOM     15  H9  NON d   1       3.463  11.845  -4.974  0.00  0.00     0.066 H 
ATOM     16  H10 NON d   1       2.399  10.871  -3.904  0.00  0.00     0.066 H 
ENDBRANCH  12  13
ENDBRANCH   1  12
BRANCH   2  17
ATOM     17  O2  NON d   1       7.063  10.505  -2.026  0.00  0.00    -0.388 OA
ATOM     18  H11 NON d   1       7.300  11.352  -2.385  0.00  0.00     0.210 HD
ENDBRANCH   2  17
BRANCH   3  19
ATOM     19  O3  NON d   1       7.045   7.796  -1.903  0.00  0.00    -0.390 OA
ATOM     20  H12 NON d   1       7.600   7.675  -2.664  0.00  0.00     0.210 HD
ENDBRANCH   3  19
BRANCH   5  21
ATOM     21  C6  NON d   1       2.665   9.752  -0.446  0.00  0.00     0.043 C 
ATOM     22  H6  NON d   1       3.041  10.558   0.201  0.00  0.00     0.078 H 
ATOM     23  H7  NON d   1       2.461   8.858   0.162  0.00  0.00     0.078 H 
BRANCH  21  24
ATOM     24  O6  NON d   1       1.455  10.180  -1.135  0.00  0.00    -0.398 OA
ATOM     25  H14 NON d   1       0.786  10.393  -0.495  0.00  0.00     0.209 HD
ENDBRANCH  21  24
ENDBRANCH   5  21
BRANCH   4  26
ATOM     26  O4  NON d   1       4.684   7.389  -0.533  0.00  0.00    -0.390 OA
ATOM     27  H13 NON d   1       4.104   7.465   0.215  0.00  0.00     0.210 HD
ENDBRANCH   4  26
TORSDOF 7
