REMARK  14 active torsions:
REMARK  status: ('A' for Active; 'I' for Inactive)
REMARK    1  A    between atoms: C1_1  and  C2_4 
REMARK    2  A    between atoms: C2_4  and  O2_5 
REMARK    3  A    between atoms: O2_5  and  CB_23 
REMARK    4  A    between atoms: C4_7  and  O4_8 
REMARK    5  A    between atoms: C5_9  and  N5_10 
REMARK       I    between atoms: N5_10  and  C10_11 
REMARK    6  A    between atoms: C10_11  and  C11_13 
REMARK    7  A    between atoms: C11_13  and  C12_14 
REMARK    8  A    between atoms: C6_15  and  C7_17 
REMARK    9  A    between atoms: C7_17  and  O7_18 
REMARK   10  A    between atoms: C7_17  and  C8_19 
REMARK   11  A    between atoms: C8_19  and  O8_20 
REMARK   12  A    between atoms: C8_19  and  C9_21 
REMARK   13  A    between atoms: C9_21  and  O9_22 
REMARK   14  A    between atoms: CB_23  and  CG_24 
ROOT
ATOM      1  C2  PH5 d   1      19.320  37.353  32.926  0.00  0.00     0.259 C 
ATOM      2  C3  PH5 d   1      19.958  36.047  33.407  0.00  0.00     0.024 C 
ATOM      3  C4  PH5 d   1      20.177  35.048  32.265  0.00  0.00     0.063 C 
ATOM      4  C5  PH5 d   1      20.892  35.691  31.067  0.00  0.00     0.064 C 
ATOM      5  C6  PH5 d   1      20.105  36.941  30.654  0.00  0.00     0.091 C 
ATOM      6  O6  PH5 d   1      20.002  37.848  31.775  0.00  0.00    -0.336 OA
ATOM      7  H1  PH5 d   1      19.298  35.587  34.157  0.00  0.00     0.045 H 
ATOM      8  H2  PH5 d   1      20.931  36.277  33.866  0.00  0.00     0.045 H 
ATOM      9  H3  PH5 d   1      19.191  34.695  31.927  0.00  0.00     0.086 H 
ATOM     10  H5  PH5 d   1      21.919  35.974  31.339  0.00  0.00     0.080 H 
ATOM     11  H12 PH5 d   1      19.094  36.623  30.360  0.00  0.00     0.090 H 
ENDROOT
BRANCH   1  12
ATOM     12  C1  PH5 d   1      17.859  37.113  32.530  0.00  0.00     0.239 C 
ATOM     13  O1A PH5 d   1      17.184  36.322  33.201  0.00  0.00    -0.644 OA
ATOM     14  O1B PH5 d   1      17.378  37.771  31.578  0.00  0.00    -0.644 OA
ENDBRANCH   1  12
BRANCH   1  15
ATOM     15  O2  PH5 d   1      19.351  38.281  33.973  0.00  0.00    -0.342 OA
BRANCH  15  16
ATOM     16  CB  PH5 d   1      19.161  39.618  33.593  0.00  0.00     0.047 C 
ATOM     17  H20 PH5 d   1      18.083  39.794  33.463  0.00  0.00     0.082 H 
ATOM     18  H21 PH5 d   1      19.678  39.785  32.636  0.00  0.00     0.082 H 
BRANCH  16  19
ATOM     19  CG  PH5 d   1      19.684  40.600  34.592  0.00  0.00    -0.035 A 
ATOM     20  CD1 PH5 d   1      18.878  41.038  35.644  0.00  0.00    -0.075 A 
ATOM     21  CE1 PH5 d   1      19.351  41.949  36.573  0.00  0.00    -0.082 A 
ATOM     22  H22 PH5 d   1      17.866  40.659  35.735  0.00  0.00     0.084 H 
ATOM     23  CZ  PH5 d   1      20.656  42.435  36.458  0.00  0.00    -0.083 A 
ATOM     24  H24 PH5 d   1      18.714  42.283  37.384  0.00  0.00     0.083 H 
ATOM     25  CE2 PH5 d   1      21.466  41.996  35.408  0.00  0.00    -0.082 A 
ATOM     26  H26 PH5 d   1      21.038  43.148  37.179  0.00  0.00     0.083 H 
ATOM     27  CD2 PH5 d   1      20.974  41.083  34.487  0.00  0.00    -0.075 A 
ATOM     28  H25 PH5 d   1      22.479  42.369  35.313  0.00  0.00     0.083 H 
ATOM     29  H23 PH5 d   1      21.609  40.745  33.676  0.00  0.00     0.084 H 
ENDBRANCH  16  19
ENDBRANCH  15  16
ENDBRANCH   1  15
BRANCH   3  30
ATOM     30  O4  PH5 d   1      20.926  33.927  32.723  0.00  0.00    -0.393 OA
ATOM     31  H4  PH5 d   1      21.770  34.221  33.044  0.00  0.00     0.210 HD
ENDBRANCH   3  30
BRANCH   5  32
ATOM     32  C7  PH5 d   1      20.738  37.690  29.463  0.00  0.00     0.089 C 
ATOM     33  H13 PH5 d   1      20.709  37.044  28.573  0.00  0.00     0.091 H 
BRANCH  32  34
ATOM     34  O7  PH5 d   1      22.082  38.023  29.761  0.00  0.00    -0.390 OA
ATOM     35  H14 PH5 d   1      22.574  37.228  29.929  0.00  0.00     0.210 HD
ENDBRANCH  32  34
BRANCH  32  36
ATOM     36  C8  PH5 d   1      19.962  38.989  29.178  0.00  0.00     0.083 C 
ATOM     37  H15 PH5 d   1      20.228  39.738  29.939  0.00  0.00     0.090 H 
BRANCH  36  38
ATOM     38  O8  PH5 d   1      18.567  38.740  29.243  0.00  0.00    -0.391 OA
ATOM     39  H16 PH5 d   1      18.343  38.424  30.110  0.00  0.00     0.210 HD
ENDBRANCH  36  38
BRANCH  36  40
ATOM     40  C9  PH5 d   1      20.334  39.534  27.792  0.00  0.00     0.043 C 
ATOM     41  H17 PH5 d   1      19.942  38.857  27.019  0.00  0.00     0.078 H 
ATOM     42  H18 PH5 d   1      21.429  39.591  27.707  0.00  0.00     0.078 H 
BRANCH  40  43
ATOM     43  O9  PH5 d   1      19.782  40.829  27.603  0.00  0.00    -0.398 OA
ATOM     44  H19 PH5 d   1      18.836  40.782  27.673  0.00  0.00     0.209 HD
ENDBRANCH  40  43
ENDBRANCH  36  40
ENDBRANCH  32  36
ENDBRANCH   5  32
BRANCH   4  45
ATOM     45  N5  PH5 d   1      20.919  34.701  29.999  0.00  0.00    -0.351 N 
ATOM     46  C10 PH5 d   1      22.015  34.488  29.277  0.00  0.00     0.217 C 
ATOM     47  O10 PH5 d   1      23.056  35.124  29.407  0.00  0.00    -0.274 OA
ATOM     48  H6  PH5 d   1      20.095  34.169  29.804  0.00  0.00     0.163 HD
BRANCH  46  49
ATOM     49  C11 PH5 d   1      21.915  33.398  28.248  0.00  0.00     0.006 C 
ATOM     50  H7  PH5 d   1      22.368  33.737  27.305  0.00  0.00     0.046 H 
ATOM     51  H8  PH5 d   1      20.858  33.147  28.077  0.00  0.00     0.046 H 
BRANCH  49  52
ATOM     52  C12 PH5 d   1      22.649  32.183  28.754  0.00  0.00    -0.068 C 
ATOM     53  H9  PH5 d   1      22.582  31.377  28.008  0.00  0.00     0.028 H 
ATOM     54  H10 PH5 d   1      22.195  31.847  29.698  0.00  0.00     0.028 H 
ATOM     55  H11 PH5 d   1      23.705  32.438  28.925  0.00  0.00     0.028 H 
ENDBRANCH  49  52
ENDBRANCH  46  49
ENDBRANCH   4  45
TORSDOF 14
