REMARK  8 active torsions:
REMARK  status: ('A' for Active; 'I' for Inactive)
REMARK    1  A    between atoms: C13_13  and  C12_12 
REMARK    2  A    between atoms: N14_14  and  C13_13 
REMARK       I    between atoms: C15_15  and  N14_14 
REMARK    3  A    between atoms: C16_16  and  C15_15 
REMARK    4  A    between atoms: N18_18  and  C16_16 
REMARK    5  A    between atoms: C22_22  and  N23_23 
REMARK    6  A    between atoms: N23_23  and  C24_24 
REMARK    7  A    between atoms: C24_24  and  C25_25 
REMARK    8  A    between atoms: C25_25  and  C27_27 
ROOT
ATOM      1  O1  5CB d   1      12.211 -13.561  12.593  0.00  0.00    -0.264 OA
ATOM      2 CL3  5CB d   1       8.496 -13.097  16.031  0.00  0.00    -0.063 Cl
ATOM      3  C17 5CB d   1       9.319 -13.869  14.716  0.00  0.00     0.126 A 
ATOM      4  N18 5CB d   1      10.530 -13.327  14.171  0.00  0.00    -0.291 N 
ATOM      5  C19 5CB d   1       8.790 -15.017  14.208  0.00  0.00     0.042 A 
ATOM      6  C20 5CB d   1      11.177 -13.997  13.082  0.00  0.00     0.295 A 
ATOM      7  N21 5CB d   1       9.464 -15.729  13.064  0.00  0.00    -0.235 NA
ATOM      8  C22 5CB d   1      10.585 -15.260  12.533  0.00  0.00     0.192 A 
ATOM      9  H10 5CB d   1       7.873 -15.423  14.632  0.00  0.00     0.119 H 
ENDROOT
BRANCH   4  10
ATOM     10  C16 5CB d   1      11.141 -12.067  14.698  0.00  0.00     0.077 C 
ATOM     11  H8  5CB d   1      11.246 -11.369  13.854  0.00  0.00     0.079 H 
ATOM     12  H9  5CB d   1      10.446 -11.644  15.439  0.00  0.00     0.079 H 
BRANCH  10  13
ATOM     13  C15 5CB d   1      12.508 -12.195  15.366  0.00  0.00     0.236 C 
ATOM     14  N14 5CB d   1      13.562 -11.383  14.928  0.00  0.00    -0.355 N 
ATOM     15  H7  5CB d   1      13.357 -10.752  14.180  0.00  0.00     0.162 HD
ATOM     16  O32 5CB d   1      12.667 -12.997  16.266  0.00  0.00    -0.272 OA
BRANCH  14  17
ATOM     17  C13 5CB d   1      14.945 -11.358  15.451  0.00  0.00     0.020 C 
ATOM     18  H5  5CB d   1      15.214 -10.312  15.662  0.00  0.00     0.071 H 
ATOM     19  H6  5CB d   1      14.970 -11.939  16.385  0.00  0.00     0.071 H 
BRANCH  17  20
ATOM     20  C12 5CB d   1      15.989 -11.937  14.501  0.00  0.00    -0.022 A 
ATOM     21  C9  5CB d   1      16.481 -11.307  13.346  0.00  0.00    -0.009 A 
ATOM     22  C7  5CB d   1      17.445 -12.095  12.687  0.00  0.00     0.015 A 
ATOM     23  C8  5CB d   1      16.130 -10.039  12.815  0.00  0.00    -0.050 A 
ATOM     24  C5  5CB d   1      18.088 -11.672  11.501  0.00  0.00    -0.064 A 
ATOM     25  S10 5CB d   1      17.639 -13.455  13.498  0.00  0.00    -0.101 SA
ATOM     26  C4  5CB d   1      17.738 -10.405  10.966  0.00  0.00    -0.061 A 
ATOM     27  H2  5CB d   1      18.827 -12.298  11.014  0.00  0.00     0.085 H 
ATOM     28  C6  5CB d   1      16.762  -9.593  11.621  0.00  0.00     0.035 A 
ATOM     29  H1  5CB d   1      18.213 -10.052  10.057  0.00  0.00     0.086 H 
ATOM     30 CL2  5CB d   1      16.350  -8.057  10.951  0.00  0.00    -0.084 Cl
ATOM     31  C11 5CB d   1      16.587 -13.179  14.679  0.00  0.00    -0.036 A 
ATOM     32  H4  5CB d   1      16.373 -13.864  15.498  0.00  0.00     0.096 H 
ATOM     33  H3  5CB d   1      15.392  -9.420  13.311  0.00  0.00     0.087 H 
ENDBRANCH  17  20
ENDBRANCH  14  17
ENDBRANCH  10  13
ENDBRANCH   4  10
BRANCH   8  34
ATOM     34  N23 5CB d   1      11.208 -15.920  11.471  0.00  0.00    -0.370 N 
ATOM     35  H11 5CB d   1      12.226 -15.781  11.391  0.00  0.00     0.161 HD
BRANCH  34  36
ATOM     36  C24 5CB d   1      10.594 -16.793  10.446  0.00  0.00    -0.001 C 
ATOM     37  H12 5CB d   1       9.818 -17.415  10.917  0.00  0.00     0.064 H 
ATOM     38  H13 5CB d   1      11.369 -17.441  10.011  0.00  0.00     0.064 H 
BRANCH  36  39
ATOM     39  C25 5CB d   1       9.954 -15.943   9.326  0.00  0.00    -0.010 C 
ATOM     40  H14 5CB d   1       9.876 -16.580   8.433  0.00  0.00     0.044 H 
ATOM     41  H15 5CB d   1      10.634 -15.104   9.120  0.00  0.00     0.044 H 
BRANCH  39  42
ATOM     42  C27 5CB d   1       8.565 -15.353   9.592  0.00  0.00     0.035 A 
ATOM     43  C26 5CB d   1       7.459 -16.136   9.978  0.00  0.00    -0.059 A 
ATOM     44  C28 5CB d   1       6.214 -15.511  10.200  0.00  0.00    -0.080 A 
ATOM     45  H16 5CB d   1       7.564 -17.208  10.103  0.00  0.00     0.086 H 
ATOM     46  C30 5CB d   1       6.048 -14.117  10.043  0.00  0.00    -0.066 A 
ATOM     47  H17 5CB d   1       5.364 -16.115  10.498  0.00  0.00     0.083 H 
ATOM     48  C31 5CB d   1       7.144 -13.335   9.659  0.00  0.00     0.002 A 
ATOM     49  H18 5CB d   1       5.082 -13.658  10.218  0.00  0.00     0.085 H 
ATOM     50  N29 5CB d   1       8.388 -13.962   9.439  0.00  0.00    -0.266 NA
ATOM     51  H19 5CB d   1       7.038 -12.264   9.533  0.00  0.00     0.114 H 
ENDBRANCH  39  42
ENDBRANCH  36  39
ENDBRANCH  34  36
ENDBRANCH   8  34
TORSDOF 8
