REMARK  4 active torsions:
REMARK  status: ('A' for Active; 'I' for Inactive)
REMARK    1  A    between atoms: C13_5  and  C18_10 
REMARK    2  A    between atoms: C17_9  and  O17_19 
REMARK    3  A    between atoms: C2_11  and  O2_21 
REMARK    4  A    between atoms: C3_12  and  O3_20 
ROOT
ATOM      1  C1  ECS d   1       2.570  -4.365   5.953  0.00  0.00    -0.041 A 
ATOM      2  C10 ECS d   1       2.162  -3.084   6.538  0.00  0.00    -0.044 A 
ATOM      3  C11 ECS d   1       0.266  -2.763   4.760  0.00  0.00    -0.057 C 
ATOM      4  C12 ECS d   1      -0.656  -1.786   3.971  0.00  0.00    -0.055 C 
ATOM      5  C13 ECS d   1      -1.510  -0.916   4.934  0.00  0.00    -0.014 C 
ATOM      6  C14 ECS d   1      -0.511  -0.155   5.937  0.00  0.00    -0.041 C 
ATOM      7  C15 ECS d   1      -1.477   0.821   6.611  0.00  0.00    -0.058 C 
ATOM      8  C16 ECS d   1      -2.224   1.436   5.371  0.00  0.00    -0.040 C 
ATOM      9  C17 ECS d   1      -2.224   0.308   4.283  0.00  0.00     0.043 C 
ATOM     10  C2  ECS d   1       3.394  -5.288   6.678  0.00  0.00     0.099 A 
ATOM     11  C3  ECS d   1       3.846  -4.959   8.004  0.00  0.00     0.099 A 
ATOM     12  C4  ECS d   1       3.473  -3.712   8.622  0.00  0.00    -0.042 A 
ATOM     13  C5  ECS d   1       2.638  -2.756   7.916  0.00  0.00    -0.049 A 
ATOM     14  C6  ECS d   1       2.249  -1.420   8.607  0.00  0.00    -0.040 C 
ATOM     15  C7  ECS d   1       1.341  -0.447   7.766  0.00  0.00    -0.057 C 
ATOM     16  C8  ECS d   1       0.386  -1.173   6.782  0.00  0.00    -0.042 C 
ATOM     17  C9  ECS d   1       1.257  -2.057   5.762  0.00  0.00    -0.024 C 
ATOM     18  H1  ECS d   1       2.242  -4.620   4.952  0.00  0.00     0.088 H 
ATOM     19  H2  ECS d   1       0.861  -3.336   4.034  0.00  0.00     0.034 H 
ATOM     20  H3  ECS d   1      -0.372  -3.450   5.335  0.00  0.00     0.034 H 
ATOM     21  H4  ECS d   1      -1.328  -2.370   3.325  0.00  0.00     0.034 H 
ATOM     22  H5  ECS d   1      -0.032  -1.126   3.350  0.00  0.00     0.034 H 
ATOM     23  H6  ECS d   1       0.204   0.444   5.354  0.00  0.00     0.042 H 
ATOM     24  H7  ECS d   1      -0.936   1.594   7.177  0.00  0.00     0.033 H 
ATOM     25  H8  ECS d   1      -2.175   0.297   7.280  0.00  0.00     0.033 H 
ATOM     26  H9  ECS d   1      -1.691   2.325   5.003  0.00  0.00     0.036 H 
ATOM     27  H10 ECS d   1      -3.255   1.711   5.640  0.00  0.00     0.036 H 
ATOM     28  H11 ECS d   1      -1.632   0.631   3.414  0.00  0.00     0.084 H 
ATOM     29  H15 ECS d   1       3.819  -3.485   9.624  0.00  0.00     0.088 H 
ATOM     30  H16 ECS d   1       3.178  -0.885   8.853  0.00  0.00     0.040 H 
ATOM     31  H17 ECS d   1       1.711  -1.665   9.534  0.00  0.00     0.040 H 
ATOM     32  H18 ECS d   1       1.994   0.221   7.186  0.00  0.00     0.034 H 
ATOM     33  H19 ECS d   1       0.733   0.149   8.463  0.00  0.00     0.034 H 
ATOM     34  H20 ECS d   1      -0.279  -1.832   7.360  0.00  0.00     0.041 H 
ATOM     35  H21 ECS d   1       1.917  -1.390   5.188  0.00  0.00     0.048 H 
ENDROOT
BRANCH   5  36
ATOM     36  C18 ECS d   1      -2.617  -1.827   5.641  0.00  0.00    -0.066 C 
ATOM     37  H12 ECS d   1      -2.132  -2.697   6.107  0.00  0.00     0.028 H 
ATOM     38  H13 ECS d   1      -3.344  -2.170   4.890  0.00  0.00     0.028 H 
ATOM     39  H14 ECS d   1      -3.137  -1.240   6.412  0.00  0.00     0.028 H 
ENDBRANCH   5  36
BRANCH   9  40
ATOM     40  O17 ECS d   1      -3.588   0.082   3.829  0.00  0.00    -0.395 OA
ATOM     41  H22 ECS d   1      -4.126  -0.184   4.566  0.00  0.00     0.210 HD
ENDBRANCH   9  40
BRANCH  10  42
ATOM     42  O2  ECS d   1       3.747  -6.478   6.094  0.00  0.00    -0.358 OA
ATOM     43  H24 ECS d   1       3.364  -6.529   5.226  0.00  0.00     0.217 HD
ENDBRANCH  10  42
BRANCH  11  44
ATOM     44  O3  ECS d   1       4.634  -5.849   8.682  0.00  0.00    -0.358 OA
ATOM     45  H23 ECS d   1       4.786  -6.614   8.139  0.00  0.00     0.217 HD
ENDBRANCH  11  44
TORSDOF 4
