REMARK  9 active torsions:
REMARK  status: ('A' for Active; 'I' for Inactive)
REMARK    1  A    between atoms: C13_13  and  C12_12 
REMARK    2  A    between atoms: N14_14  and  C13_13 
REMARK    3  A    between atoms: C15_15  and  N14_14 
REMARK    4  A    between atoms: C16_16  and  C15_15 
REMARK    5  A    between atoms: N18_18  and  C16_16 
REMARK    6  A    between atoms: C22_22  and  N23_23 
REMARK    7  A    between atoms: N23_23  and  C24_24 
REMARK    8  A    between atoms: C24_24  and  C25_25 
REMARK    9  A    between atoms: C25_25  and  C27_27 
ROOT
ATOM      1  O1  C2D d   1      12.172 -13.121  13.027  0.00  0.00    -0.264 OA
ATOM      2 CL3  C2D d   1       8.138 -12.637  15.979  0.00  0.00    -0.063 Cl
ATOM      3  C17 C2D d   1       9.020 -13.419  14.713  0.00  0.00     0.126 A 
ATOM      4  N18 C2D d   1      10.315 -12.920  14.347  0.00  0.00    -0.299 N 
ATOM      5  C19 C2D d   1       8.490 -14.480  14.063  0.00  0.00     0.042 A 
ATOM      6  C20 C2D d   1      11.060 -13.540  13.328  0.00  0.00     0.294 A 
ATOM      7  N21 C2D d   1       9.266 -15.155  12.964  0.00  0.00    -0.235 NA
ATOM      8  C22 C2D d   1      10.470 -14.721  12.617  0.00  0.00     0.192 A 
ATOM      9  H13 C2D d   1       7.501 -14.846  14.335  0.00  0.00     0.119 H 
ENDROOT
BRANCH   4  10
ATOM     10  C16 C2D d   1      10.932 -11.761  15.044  0.00  0.00     0.026 C 
ATOM     11  H11 C2D d   1      11.479 -11.146  14.315  0.00  0.00     0.067 H 
ATOM     12  H12 C2D d   1      10.143 -11.157  15.516  0.00  0.00     0.067 H 
BRANCH  10  13
ATOM     13  C15 C2D d   1      11.917 -12.265  16.135  0.00  0.00     0.097 C 
ATOM     14  H9  C2D d   1      11.418 -12.134  17.107  0.00  0.00     0.078 H 
ATOM     15  H10 C2D d   1      12.085 -13.336  15.950  0.00  0.00     0.078 H 
BRANCH  13  16
ATOM     16  N14 C2D d   1      13.267 -11.618  16.240  0.00  0.00    -0.070 N 
ATOM     17  H7  C2D d   1      13.163 -10.859  16.895  0.00  0.00     0.277 HD
ATOM     18  H8  C2D d   1      13.882 -12.315  16.629  0.00  0.00     0.277 HD
BRANCH  16  19
ATOM     19  C13 C2D d   1      13.972 -11.057  15.070  0.00  0.00     0.106 C 
ATOM     20  H5  C2D d   1      13.250 -10.975  14.244  0.00  0.00     0.083 H 
ATOM     21  H6  C2D d   1      14.336 -10.055  15.340  0.00  0.00     0.083 H 
BRANCH  19  22
ATOM     22  C12 C2D d   1      15.154 -11.870  14.581  0.00  0.00    -0.015 A 
ATOM     23  C9  C2D d   1      15.953 -11.411  13.556  0.00  0.00    -0.009 A 
ATOM     24  C7  C2D d   1      16.991 -12.303  13.235  0.00  0.00     0.015 A 
ATOM     25  C8  C2D d   1      15.781 -10.180  12.868  0.00  0.00    -0.050 A 
ATOM     26  C5  C2D d   1      17.906 -11.974  12.189  0.00  0.00    -0.064 A 
ATOM     27  S10 C2D d   1      16.895 -13.627  14.204  0.00  0.00    -0.101 SA
ATOM     28  C4  C2D d   1      17.740 -10.733  11.480  0.00  0.00    -0.061 A 
ATOM     29  H2  C2D d   1      18.714 -12.650  11.933  0.00  0.00     0.085 H 
ATOM     30  C6  C2D d   1      16.674  -9.836  11.828  0.00  0.00     0.035 A 
ATOM     31  H1  C2D d   1      18.423 -10.474  10.679  0.00  0.00     0.086 H 
ATOM     32 CL2  C2D d   1      16.423  -8.334  11.004  0.00  0.00    -0.084 Cl
ATOM     33  C11 C2D d   1      15.610 -13.112  15.026  0.00  0.00    -0.036 A 
ATOM     34  H4  C2D d   1      15.148 -13.671  15.839  0.00  0.00     0.096 H 
ATOM     35  H3  C2D d   1      14.972  -9.511  13.138  0.00  0.00     0.087 H 
ENDBRANCH  19  22
ENDBRANCH  16  19
ENDBRANCH  13  16
ENDBRANCH  10  13
ENDBRANCH   4  10
BRANCH   8  36
ATOM     36  N23 C2D d   1      11.194 -15.327  11.605  0.00  0.00    -0.370 N 
ATOM     37  H14 C2D d   1      12.112 -14.899  11.415  0.00  0.00     0.161 HD
BRANCH  36  38
ATOM     38  C24 C2D d   1      10.861 -16.497  10.746  0.00  0.00    -0.001 C 
ATOM     39  H15 C2D d   1      10.214 -17.182  11.314  0.00  0.00     0.064 H 
ATOM     40  H16 C2D d   1      11.793 -17.014  10.473  0.00  0.00     0.064 H 
BRANCH  38  41
ATOM     41  C25 C2D d   1      10.125 -16.074   9.449  0.00  0.00    -0.010 C 
ATOM     42  H17 C2D d   1       9.953 -16.965   8.828  0.00  0.00     0.044 H 
ATOM     43  H18 C2D d   1      10.753 -15.359   8.898  0.00  0.00     0.044 H 
BRANCH  41  44
ATOM     44  C27 C2D d   1       8.797 -15.426   9.758  0.00  0.00     0.035 A 
ATOM     45  C26 C2D d   1       7.709 -16.151  10.264  0.00  0.00    -0.059 A 
ATOM     46  C28 C2D d   1       6.504 -15.472  10.552  0.00  0.00    -0.080 A 
ATOM     47  H19 C2D d   1       7.791 -17.219  10.432  0.00  0.00     0.086 H 
ATOM     48  C30 C2D d   1       6.375 -14.091  10.341  0.00  0.00    -0.066 A 
ATOM     49  H20 C2D d   1       5.661 -16.030  10.944  0.00  0.00     0.083 H 
ATOM     50  C31 C2D d   1       7.462 -13.367   9.837  0.00  0.00     0.002 A 
ATOM     51  H21 C2D d   1       5.441 -13.589  10.566  0.00  0.00     0.085 H 
ATOM     52  N29 C2D d   1       8.657 -14.042   9.563  0.00  0.00    -0.266 NA
ATOM     53  H22 C2D d   1       7.379 -12.300   9.662  0.00  0.00     0.114 H 
ENDBRANCH  41  44
ENDBRANCH  38  41
ENDBRANCH  36  38
ENDBRANCH   8  36
TORSDOF 9
