REMARK  11 active torsions:
REMARK  status: ('A' for Active; 'I' for Inactive)
REMARK    1  A    between atoms: C3_3  and  C11_7 
REMARK    2  A    between atoms: C11_7  and  C12_8 
REMARK    3  A    between atoms: C12_8  and  N15_11 
REMARK    4  A    between atoms: N15_11  and  C18_12 
REMARK    5  A    between atoms: N20_14  and  C24_18 
REMARK    6  A    between atoms: C24_18  and  C25_19 
REMARK    7  A    between atoms: C25_19  and  N28_20 
REMARK    8  A    between atoms: N28_20  and  C29_21 
REMARK    9  A    between atoms: C29_21  and  C30_22 
REMARK   10  A    between atoms: C37_27  and  C2_25 
REMARK   11  A    between atoms: C35_26  and  N6_29 
ROOT
ATOM      1  C18 C1D d   1      10.596 -14.914  12.674  0.00  0.00     0.193 A 
ATOM      2  C19 C1D d   1      11.216 -13.676  13.256  0.00  0.00     0.294 A 
ATOM      3  N20 C1D d   1      10.582 -13.014  14.354  0.00  0.00    -0.299 N 
ATOM      4  C21 C1D d   1       9.354 -13.553  14.869  0.00  0.00     0.126 A 
ATOM      5  C22 C1D d   1       8.808 -14.671  14.330  0.00  0.00     0.042 A 
ATOM      6  N23 C1D d   1       9.472 -15.366  13.185  0.00  0.00    -0.235 NA
ATOM      7  O42 C1D d   1      12.255 -13.253  12.787  0.00  0.00    -0.264 OA
ATOM      8 CL43 C1D d   1       8.521 -12.813  16.189  0.00  0.00    -0.063 Cl
ATOM      9  H8  C1D d   1       7.878 -15.066  14.735  0.00  0.00     0.119 H 
ENDROOT
BRANCH   3  10
ATOM     10  C24 C1D d   1      11.206 -11.775  14.937  0.00  0.00     0.026 C 
ATOM     11  H9  C1D d   1      10.455 -11.279  15.570  0.00  0.00     0.067 H 
ATOM     12  H10 C1D d   1      11.484 -11.109  14.107  0.00  0.00     0.067 H 
BRANCH  10  13
ATOM     13  C25 C1D d   1      12.477 -12.028  15.801  0.00  0.00     0.097 C 
ATOM     14  H11 C1D d   1      12.186 -12.645  16.664  0.00  0.00     0.078 H 
ATOM     15  H12 C1D d   1      12.849 -11.055  16.154  0.00  0.00     0.078 H 
BRANCH  13  16
ATOM     16  N28 C1D d   1      13.589 -12.719  15.093  0.00  0.00    -0.070 N 
ATOM     17  H13 C1D d   1      13.356 -12.850  14.121  0.00  0.00     0.277 HD
ATOM     18  H14 C1D d   1      13.771 -13.614  15.519  0.00  0.00     0.277 HD
BRANCH  16  19
ATOM     19  C29 C1D d   1      14.769 -11.843  15.222  0.00  0.00     0.107 C 
ATOM     20  H15 C1D d   1      15.380 -12.237  16.047  0.00  0.00     0.083 H 
ATOM     21  H16 C1D d   1      14.404 -10.839  15.483  0.00  0.00     0.083 H 
BRANCH  19  22
ATOM     22  C30 C1D d   1      15.693 -11.691  14.001  0.00  0.00    -0.008 A 
ATOM     23  C33 C1D d   1      15.826 -10.384  13.500  0.00  0.00    -0.070 A 
ATOM     24  C34 C1D d   1      16.633 -10.088  12.389  0.00  0.00    -0.038 A 
ATOM     25  H17 C1D d   1      15.288  -9.579  13.987  0.00  0.00     0.084 H 
ATOM     26  C35 C1D d   1      17.330 -11.122  11.754  0.00  0.00     0.121 A 
ATOM     27  H18 C1D d   1      16.715  -9.069  12.027  0.00  0.00     0.089 H 
ATOM     28  N29 C1D d   1      17.210 -12.433  12.241  0.00  0.00    -0.236 NA
ATOM     29  C37 C1D d   1      16.406 -12.742  13.354  0.00  0.00     0.041 A 
BRANCH  26  30
ATOM     30  N6  C1D d   1      18.142 -10.836  10.633  0.00  0.00    -0.384 N 
ATOM     31  H22 C1D d   1      18.657 -11.594  10.163  0.00  0.00     0.157 HD
ATOM     32  H23 C1D d   1      18.219  -9.869  10.286  0.00  0.00     0.157 HD
ENDBRANCH  26  30
BRANCH  29  33
ATOM     33  C2  C1D d   1      16.349 -14.187  13.794  0.00  0.00    -0.035 C 
ATOM     34  H19 C1D d   1      16.984 -14.796  13.134  0.00  0.00     0.035 H 
ATOM     35  H20 C1D d   1      15.311 -14.547  13.738  0.00  0.00     0.035 H 
ATOM     36  H21 C1D d   1      16.710 -14.270  14.830  0.00  0.00     0.035 H 
ENDBRANCH  29  33
ENDBRANCH  19  22
ENDBRANCH  16  19
ENDBRANCH  13  16
ENDBRANCH  10  13
ENDBRANCH   3  10
BRANCH   1  37
ATOM     37  N15 C1D d   1      11.196 -15.577  11.604  0.00  0.00    -0.364 N 
ATOM     38  H7  C1D d   1      12.111 -15.215  11.301  0.00  0.00     0.161 HD
BRANCH  37  39
ATOM     39  C12 C1D d   1      10.669 -16.746  10.849  0.00  0.00     0.061 C 
ATOM     40  H5  C1D d   1      11.502 -17.422  10.606  0.00  0.00     0.073 H 
ATOM     41  H6  C1D d   1       9.937 -17.277  11.475  0.00  0.00     0.073 H 
BRANCH  39  42
ATOM     42  C11 C1D d   1       9.986 -16.303   9.544  0.00  0.00     0.303 C 
ATOM     43  F13 C1D d   1       9.692 -17.409   8.824  0.00  0.00    -0.197 F 
ATOM     44  F14 C1D d   1      10.878 -15.566   8.843  0.00  0.00    -0.197 F 
BRANCH  42  45
ATOM     45  C3  C1D d   1       8.703 -15.506   9.800  0.00  0.00     0.107 A 
ATOM     46  N2  C1D d   1       7.668 -16.043  10.597  0.00  0.00    -0.259 NA
ATOM     47  C1  C1D d   1       6.478 -15.324  10.854  0.00  0.00     0.003 A 
ATOM     48  C6  C1D d   1       6.316 -14.043  10.305  0.00  0.00    -0.066 A 
ATOM     49  H1  C1D d   1       5.698 -15.758  11.469  0.00  0.00     0.114 H 
ATOM     50  C5  C1D d   1       7.344 -13.499   9.506  0.00  0.00    -0.080 A 
ATOM     51  H4  C1D d   1       5.411 -13.477  10.493  0.00  0.00     0.085 H 
ATOM     52  C4  C1D d   1       8.533 -14.216   9.249  0.00  0.00    -0.053 A 
ATOM     53  H3  C1D d   1       7.218 -12.510   9.081  0.00  0.00     0.083 H 
ATOM     54  H2  C1D d   1       9.311 -13.779   8.633  0.00  0.00     0.086 H 
ENDBRANCH  42  45
ENDBRANCH  39  42
ENDBRANCH  37  39
ENDBRANCH   1  37
TORSDOF 11
