REMARK  7 active torsions:
REMARK  status: ('A' for Active; 'I' for Inactive)
REMARK    1  A    between atoms: C17_2  and  C18_3 
REMARK    2  A    between atoms: C17_2  and  C14_4 
REMARK    3  A    between atoms: C11_9  and  N3_10 
REMARK       I    between atoms: N3_10  and  C10_11 
REMARK    4  A    between atoms: C10_11  and  C8_13 
REMARK    5  A    between atoms: C7_17  and  C5_18 
REMARK    6  A    between atoms: C2_22  and  O2_23 
REMARK    7  A    between atoms: C4_25  and  O4_26 
ROOT
ATOM      1  C8  2D7 d   1       3.070   3.781  11.168  0.00  0.00     0.080 A 
ATOM      2  C9  2D7 d   1       2.115   4.605  11.726  0.00  0.00     0.039 A 
ATOM      3  N1  2D7 d   1       2.782   5.463  12.507  0.00  0.00    -0.186 NA
ATOM      4  N2  2D7 d   1       4.079   5.251  12.516  0.00  0.00    -0.277 N 
ATOM      5  C7  2D7 d   1       4.316   4.191  11.770  0.00  0.00     0.080 A 
ATOM      6  H9  2D7 d   1       1.039   4.566  11.564  0.00  0.00     0.119 H 
ATOM      7  H10 2D7 d   1       4.783   5.812  13.016  0.00  0.00     0.189 HD
ENDROOT
BRANCH   1   8
ATOM      8  C10 2D7 d   1       2.853   2.561  10.312  0.00  0.00     0.260 C 
ATOM      9  N3  2D7 d   1       3.756   2.228   9.385  0.00  0.00    -0.323 N 
ATOM     10  H8  2D7 d   1       4.447   2.933   9.222  0.00  0.00     0.169 HD
ATOM     11  O5  2D7 d   1       1.870   1.837  10.549  0.00  0.00    -0.267 OA
BRANCH   9  12
ATOM     12  C11 2D7 d   1       3.915   1.124   8.627  0.00  0.00     0.035 A 
ATOM     13  C16 2D7 d   1       3.257  -0.087   8.901  0.00  0.00    -0.056 A 
ATOM     14  C15 2D7 d   1       3.528  -1.237   8.169  0.00  0.00    -0.067 A 
ATOM     15  H5  2D7 d   1       2.524  -0.125   9.699  0.00  0.00     0.086 H 
ATOM     16  C14 2D7 d   1       4.517  -1.236   7.185  0.00  0.00     0.009 A 
ATOM     17  H4  2D7 d   1       2.966  -2.143   8.364  0.00  0.00     0.085 H 
ATOM     18  C13 2D7 d   1       5.227  -0.049   6.960  0.00  0.00    -0.067 A 
ATOM     19  C12 2D7 d   1       4.946   1.098   7.698  0.00  0.00    -0.056 A 
ATOM     20  H6  2D7 d   1       6.003  -0.023   6.204  0.00  0.00     0.085 H 
ATOM     21  H7  2D7 d   1       5.545   1.988   7.544  0.00  0.00     0.086 H 
BRANCH  16  22
ATOM     22  C17 2D7 d   1       4.782  -2.471   6.387  0.00  0.00     0.155 C 
ATOM     23  O6  2D7 d   1       5.656  -2.488   5.544  0.00  0.00    -0.293 OA
BRANCH  22  24
ATOM     24  C18 2D7 d   1       3.962  -3.699   6.691  0.00  0.00    -0.017 C 
ATOM     25  H1  2D7 d   1       3.232  -3.466   7.480  0.00  0.00     0.038 H 
ATOM     26  H2  2D7 d   1       4.625  -4.508   7.032  0.00  0.00     0.038 H 
ATOM     27  H3  2D7 d   1       3.430  -4.019   5.783  0.00  0.00     0.038 H 
ENDBRANCH  22  24
ENDBRANCH  16  22
ENDBRANCH   9  12
ENDBRANCH   1   8
BRANCH   5  28
ATOM     28  C5  2D7 d   1       5.709   3.664  11.561  0.00  0.00     0.028 A 
ATOM     29  C6  2D7 d   1       5.913   2.305  11.354  0.00  0.00    -0.044 A 
ATOM     30  C1  2D7 d   1       7.166   1.810  11.108  0.00  0.00     0.068 A 
ATOM     31  H11 2D7 d   1       5.068   1.627  11.388  0.00  0.00     0.087 H 
ATOM     32 CL1  2D7 d   1       7.411   0.081  10.886  0.00  0.00    -0.081 Cl
ATOM     33  C2  2D7 d   1       8.272   2.627  11.089  0.00  0.00     0.090 A 
ATOM     34  C3  2D7 d   1       8.115   3.970  11.327  0.00  0.00    -0.017 A 
ATOM     35  C4  2D7 d   1       6.842   4.504  11.573  0.00  0.00     0.081 A 
ATOM     36  H13 2D7 d   1       8.981   4.622  11.325  0.00  0.00     0.092 H 
BRANCH  33  37
ATOM     37  O2  2D7 d   1       9.454   2.089  10.823  0.00  0.00    -0.359 OA
ATOM     38  H12 2D7 d   1      10.120   2.766  10.844  0.00  0.00     0.217 HD
ENDBRANCH  33  37
BRANCH  35  39
ATOM     39  O4  2D7 d   1       6.770   5.818  11.809  0.00  0.00    -0.360 OA
ATOM     40  H14 2D7 d   1       7.289   6.030  12.576  0.00  0.00     0.217 HD
ENDBRANCH  35  39
ENDBRANCH   5  28
TORSDOF 7
