REMARK  8 active torsions:
REMARK  status: ('A' for Active; 'I' for Inactive)
REMARK    1  A    between atoms: C2_3  and  O2_7 
REMARK    2  A    between atoms: C4_5  and  O4_6 
REMARK    3  A    between atoms: C5_9  and  C7_10 
REMARK    4  A    between atoms: C8_14  and  C10_15 
REMARK       I    between atoms: C10_15  and  N3_17 
REMARK    5  A    between atoms: N3_17  and  C17_18 
REMARK    6  A    between atoms: C17_18  and  C11_19 
REMARK    7  A    between atoms: C14_24  and  S1_25 
REMARK    8  A    between atoms: S1_25  and  N4_28 
ROOT
ATOM      1  C10 2DD d   1       3.297   3.675   9.545  0.00  0.00     0.255 C 
ATOM      2  O5  2DD d   1       2.192   3.306   9.123  0.00  0.00    -0.268 OA
ATOM      3  N3  2DD d   1       4.379   3.511   8.771  0.00  0.00    -0.353 N 
ATOM      4  H7  2DD d   1       5.286   3.699   9.147  0.00  0.00     0.163 HD
ENDROOT
BRANCH   1   5
ATOM      5  C8  2DD d   1       3.394   4.307  10.927  0.00  0.00     0.080 A 
ATOM      6  C7  2DD d   1       4.476   4.329  11.812  0.00  0.00     0.080 A 
ATOM      7  N2  2DD d   1       4.099   5.028  12.901  0.00  0.00    -0.277 N 
ATOM      8  N1  2DD d   1       2.857   5.425  12.754  0.00  0.00    -0.186 NA
ATOM      9  H5  2DD d   1       4.693   5.220  13.720  0.00  0.00     0.189 HD
ATOM     10  C9  2DD d   1       2.388   5.012  11.562  0.00  0.00     0.039 A 
ATOM     11  H6  2DD d   1       1.391   5.200  11.167  0.00  0.00     0.119 H 
BRANCH   6  12
ATOM     12  C5  2DD d   1       5.815   3.698  11.595  0.00  0.00     0.028 A 
ATOM     13  C4  2DD d   1       6.985   4.436  11.766  0.00  0.00     0.081 A 
ATOM     14  C3  2DD d   1       8.222   3.849  11.489  0.00  0.00    -0.017 A 
ATOM     15  C2  2DD d   1       8.286   2.496  11.163  0.00  0.00     0.090 A 
ATOM     16  H1  2DD d   1       9.128   4.443  11.527  0.00  0.00     0.092 H 
ATOM     17  C1  2DD d   1       7.111   1.758  11.033  0.00  0.00     0.068 A 
ATOM     18 CL1  2DD d   1       7.187   0.050  10.609  0.00  0.00    -0.081 Cl
ATOM     19  C6  2DD d   1       5.881   2.350  11.277  0.00  0.00    -0.044 A 
ATOM     20  H4  2DD d   1       4.973   1.760  11.219  0.00  0.00     0.087 H 
BRANCH  13  21
ATOM     21  O4  2DD d   1       6.923   5.737  12.068  0.00  0.00    -0.360 OA
ATOM     22  H2  2DD d   1       7.441   5.905  12.847  0.00  0.00     0.217 HD
ENDBRANCH  13  21
BRANCH  15  23
ATOM     23  O2  2DD d   1       9.459   1.927  10.874  0.00  0.00    -0.359 OA
ATOM     24  H3  2DD d   1       9.843   2.361  10.121  0.00  0.00     0.217 HD
ENDBRANCH  15  23
ENDBRANCH   6  12
ENDBRANCH   1   5
BRANCH   3  25
ATOM     25  C17 2DD d   1       4.263   3.092   7.480  0.00  0.00     0.019 C 
ATOM     26  H8  2DD d   1       5.075   3.550   6.897  0.00  0.00     0.071 H 
ATOM     27  H9  2DD d   1       3.293   3.438   7.093  0.00  0.00     0.071 H 
BRANCH  25  28
ATOM     28  C11 2DD d   1       4.337   1.579   7.291  0.00  0.00    -0.040 A 
ATOM     29  C12 2DD d   1       4.171   0.689   8.351  0.00  0.00    -0.074 A 
ATOM     30  C13 2DD d   1       4.225  -0.693   8.118  0.00  0.00    -0.060 A 
ATOM     31  H10 2DD d   1       4.000   1.064   9.354  0.00  0.00     0.084 H 
ATOM     32  C14 2DD d   1       4.392  -1.181   6.819  0.00  0.00     0.079 A 
ATOM     33  H11 2DD d   1       4.137  -1.385   8.948  0.00  0.00     0.085 H 
ATOM     34  C15 2DD d   1       4.541  -0.290   5.765  0.00  0.00    -0.060 A 
ATOM     35  C16 2DD d   1       4.490   1.079   5.999  0.00  0.00    -0.074 A 
ATOM     36  H13 2DD d   1       4.697  -0.662   4.759  0.00  0.00     0.085 H 
ATOM     37  H12 2DD d   1       4.570   1.767   5.165  0.00  0.00     0.084 H 
BRANCH  32  38
ATOM     38  S1  2DD d   1       4.450  -2.914   6.514  0.00  0.00     0.256 S 
ATOM     39  O6  2DD d   1       5.602  -3.232   5.731  0.00  0.00    -0.201 OA
ATOM     40  O7  2DD d   1       3.271  -3.304   5.771  0.00  0.00    -0.201 OA
BRANCH  38  41
ATOM     41  N4  2DD d   1       4.450  -3.696   7.891  0.00  0.00    -0.324 N 
ATOM     42  H14 2DD d   1       4.480  -4.696   7.898  0.00  0.00     0.169 HD
ATOM     43  H15 2DD d   1       4.420  -3.190   8.753  0.00  0.00     0.169 HD
ENDBRANCH  38  41
ENDBRANCH  32  38
ENDBRANCH  25  28
ENDBRANCH   3  25
TORSDOF 8
