REMARK  19 active torsions:
REMARK  status: ('A' for Active; 'I' for Inactive)
REMARK    1  A    between atoms: N_1  and  CA_2 
REMARK    2  A    between atoms: CA_2  and  C_3 
REMARK       I    between atoms: C_3  and  N_5 
REMARK    3  A    between atoms: N_5  and  CA_6 
REMARK    4  A    between atoms: CA_18  and  CB_21 
REMARK    5  A    between atoms: CB_21  and  OG_22 
REMARK    6  A    between atoms: CA_24  and  CB_27 
REMARK    7  A    between atoms: CB_27  and  CG_28 
REMARK    8  A    between atoms: CA_39  and  CB_42 
REMARK    9  A    between atoms: CB_42  and  CG_43 
REMARK   10  A    between atoms: CG_43  and  CD_44 
REMARK   11  A    between atoms: CD_44  and  NE_45 
REMARK       I    between atoms: NE_45  and  CZ_46 
REMARK       I    between atoms: CZ_46  and  NH1_47 
REMARK       I    between atoms: CZ_46  and  NH2_48 
REMARK   12  A    between atoms: CA_56  and  CB_59 
REMARK   13  A    between atoms: CA_61  and  CB_64 
REMARK   14  A    between atoms: CB_64  and  CG_65 
REMARK   15  A    between atoms: CA_75  and  CB_78 
REMARK   16  A    between atoms: CB_78  and  CG_79 
REMARK   17  A    between atoms: CG_79  and  CD_80 
REMARK   18  A    between atoms: CD_80  and  NE_81 
REMARK       I    between atoms: NE_81  and  CZ_82 
REMARK       I    between atoms: CZ_82  and  NH1_83 
REMARK   19  A    between atoms: CA_86  and  C_87 
REMARK       I    between atoms: C_87  and  N1_91 
ROOT
ATOM      1  CA  CYS d   1      31.268  49.936  85.874  0.00  0.00     0.098 C 
ATOM      2  C   CYS d   1      31.183  50.665  84.539  0.00  0.00     0.242 C 
ATOM      3  O   CYS d   1      30.857  50.073  83.517  0.00  0.00    -0.271 OA
ATOM      4  CB  CYS d   1      30.115  50.384  86.756  0.00  0.00     0.013 C 
ATOM      5  SG  CYS d   1      28.526  50.439  85.946  0.00  0.00    -0.095 SA
ATOM      6  N   CYS d   1      31.479  51.961  84.564  0.00  0.00    -0.345 N 
ATOM      7  CA  CYS d   1      31.300  52.822  83.392  0.00  0.00     0.098 C 
ATOM      8  C   CYS d   1      32.268  52.506  82.230  0.00  0.00     0.242 C 
ATOM      9  O   CYS d   1      32.070  53.020  81.125  0.00  0.00    -0.271 OA
ATOM     10  CB  CYS d   1      31.367  54.290  83.826  0.00  0.00     0.013 C 
ATOM     11  SG  CYS d   1      30.188  54.594  85.236  0.00  0.00    -0.095 SA
ATOM     12  N   CYS d   1      27.633  47.013  82.026  0.00  0.00    -0.345 N 
ATOM     13  CA  CYS d   1      27.258  47.852  83.174  0.00  0.00     0.098 C 
ATOM     14  C   CYS d   1      27.021  49.316  82.794  0.00  0.00     0.241 C 
ATOM     15  O   CYS d   1      26.123  49.953  83.336  0.00  0.00    -0.271 OA
ATOM     16  CB  CYS d   1      28.367  47.801  84.235  0.00  0.00     0.013 C 
ATOM     17  SG  CYS d   1      27.904  48.478  85.920  0.00  0.00    -0.095 SA
ATOM     18  H7  CYS d   1      31.182  48.856  85.684  0.00  0.00     0.088 H 
ATOM     19  H8  CYS d   1      30.343  51.393  87.130  0.00  0.00     0.053 H 
ATOM     20  H9  CYS d   1      30.042  49.687  87.604  0.00  0.00     0.053 H 
ATOM     21  H10 CYS d   1      31.835  52.361  85.409  0.00  0.00     0.163 HD
ATOM     22  H11 CYS d   1      30.285  52.639  83.010  0.00  0.00     0.088 H 
ATOM     23  H12 CYS d   1      31.093  54.933  82.977  0.00  0.00     0.053 H 
ATOM     24  H13 CYS d   1      32.391  54.527  84.150  0.00  0.00     0.053 H 
ATOM     25  H43 CYS d   1      28.530  47.163  81.610  0.00  0.00     0.163 HD
ATOM     26  H44 CYS d   1      26.329  47.450  83.604  0.00  0.00     0.088 H 
ATOM     27  H45 CYS d   1      29.222  48.382  83.860  0.00  0.00     0.053 H 
ATOM     28  H46 CYS d   1      28.666  46.750  84.363  0.00  0.00     0.053 H 
ATOM     29  N   SER d   1      33.266  51.647  82.473  0.00  0.00    -0.344 N 
ATOM     30  CA  SER d   1      34.124  51.083  81.423  0.00  0.00     0.109 C 
ATOM     31  C   SER d   1      33.635  49.737  80.857  0.00  0.00     0.243 C 
ATOM     32  O   SER d   1      34.053  49.321  79.773  0.00  0.00    -0.271 OA
ATOM     33  H14 SER d   1      33.436  51.375  83.420  0.00  0.00     0.163 HD
ATOM     34  H15 SER d   1      34.147  51.806  80.594  0.00  0.00     0.090 H 
ATOM     35  N   ASP d   1      32.761  49.063  81.598  0.00  0.00    -0.345 N 
ATOM     36  CA  ASP d   1      32.280  47.732  81.258  0.00  0.00     0.099 C 
ATOM     37  C   ASP d   1      31.001  47.824  80.443  0.00  0.00     0.243 C 
ATOM     38  O   ASP d   1      30.020  48.367  80.907  0.00  0.00    -0.271 OA
ATOM     39  H19 ASP d   1      32.416  49.493  82.432  0.00  0.00     0.163 HD
ATOM     40  H20 ASP d   1      33.047  47.213  80.664  0.00  0.00     0.088 H 
ATOM     41  N   PRO d   1      31.003  47.264  79.217  0.00  0.00    -0.337 N 
ATOM     42  CA  PRO d   1      29.836  47.366  78.344  0.00  0.00     0.091 C 
ATOM     43  C   PRO d   1      28.547  46.729  78.868  0.00  0.00     0.241 C 
ATOM     44  O   PRO d   1      27.466  47.101  78.427  0.00  0.00    -0.271 OA
ATOM     45  CB  PRO d   1      30.286  46.685  77.043  0.00  0.00    -0.036 C 
ATOM     46  CG  PRO d   1      31.532  46.034  77.322  0.00  0.00    -0.048 C 
ATOM     47  CD  PRO d   1      32.111  46.544  78.584  0.00  0.00    -0.001 C 
ATOM     48  H23 PRO d   1      29.627  48.429  78.156  0.00  0.00     0.087 H 
ATOM     49  H24 PRO d   1      30.421  47.436  76.250  0.00  0.00     0.036 H 
ATOM     50  H25 PRO d   1      29.536  45.946  76.724  0.00  0.00     0.036 H 
ATOM     51  H26 PRO d   1      32.234  46.227  76.498  0.00  0.00     0.035 H 
ATOM     52  H27 PRO d   1      31.362  44.951  77.413  0.00  0.00     0.035 H 
ATOM     53  H28 PRO d   1      32.453  45.715  79.221  0.00  0.00     0.064 H 
ATOM     54  H29 PRO d   1      32.953  47.222  78.382  0.00  0.00     0.064 H 
ATOM     55  N   ARG d   1      28.662  45.764  79.769  0.00  0.00    -0.346 N 
ATOM     56  CA  ARG d   1      27.493  45.148  80.428  0.00  0.00     0.089 C 
ATOM     57  C   ARG d   1      26.854  46.067  81.506  0.00  0.00     0.241 C 
ATOM     58  O   ARG d   1      25.714  45.882  81.876  0.00  0.00    -0.271 OA
ATOM     59  N   ARG d   1      24.121  51.937  83.131  0.00  0.00    -0.346 N 
ATOM     60  CA  ARG d   1      23.629  52.377  84.435  0.00  0.00     0.089 C 
ATOM     61  C   ARG d   1      24.198  53.737  84.870  0.00  0.00     0.241 C 
ATOM     62  O   ARG d   1      23.706  54.317  85.830  0.00  0.00    -0.271 OA
ATOM     63  H30 ARG d   1      29.576  45.440  80.012  0.00  0.00     0.163 HD
ATOM     64  H31 ARG d   1      26.734  44.940  79.659  0.00  0.00     0.087 H 
ATOM     65  H62 ARG d   1      24.891  51.300  83.102  0.00  0.00     0.163 HD
ATOM     66  H63 ARG d   1      22.536  52.476  84.366  0.00  0.00     0.087 H 
ATOM     67  N   ALA d   1      27.828  49.835  81.862  0.00  0.00    -0.346 N 
ATOM     68  CA  ALA d   1      27.940  51.274  81.609  0.00  0.00     0.086 C 
ATOM     69  C   ALA d   1      26.613  51.995  81.400  0.00  0.00     0.240 C 
ATOM     70  O   ALA d   1      26.498  53.159  81.724  0.00  0.00    -0.271 OA
ATOM     71  H47 ALA d   1      28.382  49.211  81.311  0.00  0.00     0.163 HD
ATOM     72  H48 ALA d   1      28.404  51.718  82.502  0.00  0.00     0.086 H 
ATOM     73  N   TRP d   1      25.619  51.303  80.868  0.00  0.00    -0.346 N 
ATOM     74  CA  TRP d   1      24.282  51.871  80.686  0.00  0.00     0.093 C 
ATOM     75  C   TRP d   1      23.592  52.345  81.982  0.00  0.00     0.241 C 
ATOM     76  O   TRP d   1      22.586  53.053  81.921  0.00  0.00    -0.271 OA
ATOM     77  H52 TRP d   1      25.787  50.360  80.580  0.00  0.00     0.163 HD
ATOM     78  H53 TRP d   1      24.386  52.746  80.028  0.00  0.00     0.088 H 
ATOM     79  N   CY3 d   1      25.201  54.299  84.194  0.00  0.00    -0.345 N 
ATOM     80  CA  CY3 d   1      25.971  55.449  84.614  0.00  0.00     0.098 C 
ATOM     81  CB  CY3 d   1      27.361  55.322  84.016  0.00  0.00     0.013 C 
ATOM     82  SG  CY3 d   1      28.307  53.987  84.801  0.00  0.00    -0.095 SA
ATOM     83  H75 CY3 d   1      25.443  53.887  83.316  0.00  0.00     0.163 HD
ATOM     84  H76 CY3 d   1      26.049  55.448  85.711  0.00  0.00     0.088 H 
ATOM     85  H77 CY3 d   1      27.898  56.271  84.157  0.00  0.00     0.053 H 
ATOM     86  H78 CY3 d   1      27.269  55.109  82.941  0.00  0.00     0.053 H 
ENDROOT
BRANCH  56  87
ATOM     87  CB  ARG d   1      27.924  43.815  81.081  0.00  0.00    -0.036 C 
ATOM     88  H32 ARG d   1      27.055  43.396  81.609  0.00  0.00     0.036 H 
ATOM     89  H33 ARG d   1      28.723  44.032  81.805  0.00  0.00     0.036 H 
BRANCH  87  90
ATOM     90  CG  ARG d   1      28.443  42.754  80.101  0.00  0.00    -0.048 C 
ATOM     91  H34 ARG d   1      29.107  43.242  79.372  0.00  0.00     0.035 H 
ATOM     92  H35 ARG d   1      27.585  42.310  79.575  0.00  0.00     0.035 H 
BRANCH  90  93
ATOM     93  CD  ARG d   1      29.212  41.649  80.796  0.00  0.00     0.009 C 
ATOM     94  H36 ARG d   1      29.515  40.908  80.042  0.00  0.00     0.064 H 
ATOM     95  H37 ARG d   1      28.548  41.173  81.533  0.00  0.00     0.064 H 
BRANCH  93  96
ATOM     96  NE  ARG d   1      30.416  42.123  81.492  0.00  0.00    -0.227 N 
ATOM     97  CZ  ARG d   1      31.334  41.328  82.028  0.00  0.00     0.665 C 
ATOM     98  NH1 ARG d   1      31.247  40.020  81.888  0.00  0.00    -0.235 N 
ATOM     99  NH2 ARG d   1      32.382  41.833  82.645  0.00  0.00    -0.235 N 
ATOM    100  H39 ARG d   1      31.963  39.409  82.306  0.00  0.00     0.174 HD
ATOM    101  H40 ARG d   1      30.463  39.609  81.360  0.00  0.00     0.174 HD
ATOM    102  H41 ARG d   1      32.468  42.852  82.764  0.00  0.00     0.174 HD
ATOM    103  H42 ARG d   1      33.116  41.209  83.008  0.00  0.00     0.174 HD
ATOM    104  H38 ARG d   1      30.557  43.140  81.569  0.00  0.00     0.177 HD
ENDBRANCH  93  96
ENDBRANCH  90  93
ENDBRANCH  87  90
ENDBRANCH  56  87
BRANCH  36 105
ATOM    105  CB  ASP d   1      32.017  46.942  82.542  0.00  0.00     0.043 C 
ATOM    106  H21 ASP d   1      31.123  47.356  83.031  0.00  0.00     0.052 H 
ATOM    107  H22 ASP d   1      32.885  47.056  83.208  0.00  0.00     0.052 H 
BRANCH 105 108
ATOM    108  CG  ASP d   1      31.789  45.458  82.291  0.00  0.00     0.175 C 
ATOM    109  OD1 ASP d   1      32.364  44.656  83.025  0.00  0.00    -0.648 OA
ATOM    110  OD2 ASP d   1      31.039  45.090  81.383  0.00  0.00    -0.648 OA
ENDBRANCH 105 108
ENDBRANCH  36 105
BRANCH  68 111
ATOM    111  CB  ALA d   1      28.879  51.531  80.420  0.00  0.00    -0.049 C 
ATOM    112  H49 ALA d   1      28.955  52.614  80.240  0.00  0.00     0.030 H 
ATOM    113  H50 ALA d   1      28.478  51.037  79.523  0.00  0.00     0.030 H 
ATOM    114  H51 ALA d   1      29.876  51.126  80.646  0.00  0.00     0.030 H 
ENDBRANCH  68 111
BRANCH   1 115
ATOM    115  N   CYS d   1      32.506  50.179  86.581  0.00  0.00    -0.346 N 
ATOM    116  C   GLY d   1      33.709  50.070  86.032  0.00  0.00     0.243 C 
ATOM    117  O   GLY d   1      33.915  49.825  84.840  0.00  0.00    -0.272 OA
ATOM    118  H6  CYS d   1      32.452  50.446  87.543  0.00  0.00     0.163 HD
BRANCH 116 119
ATOM    119  CA  GLY d   1      34.854  50.279  86.985  0.00  0.00     0.152 C 
ATOM    120  H4  GLY d   1      34.620  51.132  87.639  0.00  0.00     0.090 H 
ATOM    121  H5  GLY d   1      34.978  49.372  87.595  0.00  0.00     0.090 H 
BRANCH 119 122
ATOM    122  N   GLY d   1      36.130  50.556  86.274  0.00  0.00    -0.071 N 
ATOM    123  H1  GLY d   1      36.868  50.689  86.948  0.00  0.00     0.274 HD
ATOM    124  H2  GLY d   1      36.030  51.390  85.716  0.00  0.00     0.274 HD
ATOM    125  H3  GLY d   1      36.358  49.777  85.676  0.00  0.00     0.274 HD
ENDBRANCH 119 122
ENDBRANCH 116 119
ENDBRANCH   1 115
BRANCH  30 126
ATOM    126  CB  SER d   1      35.548  50.898  81.946  0.00  0.00     0.044 C 
ATOM    127  H16 SER d   1      36.189  50.545  81.125  0.00  0.00     0.077 H 
ATOM    128  H17 SER d   1      35.540  50.150  82.752  0.00  0.00     0.077 H 
BRANCH 126 129
ATOM    129  OG  SER d   1      36.070  52.120  82.451  0.00  0.00    -0.398 OA
ATOM    130  H18 SER d   1      36.082  52.769  81.757  0.00  0.00     0.209 HD
ENDBRANCH 126 129
ENDBRANCH  30 126
BRANCH  74 131
ATOM    131  CB  TRP d   1      23.385  50.856  80.001  0.00  0.00    -0.012 C 
ATOM    132  H54 TRP d   1      23.867  50.544  79.063  0.00  0.00     0.044 H 
ATOM    133  H55 TRP d   1      22.423  51.339  79.776  0.00  0.00     0.044 H 
BRANCH 131 134
ATOM    134  CG  TRP d   1      23.120  49.639  80.820  0.00  0.00    -0.028 A 
ATOM    135  CD1 TRP d   1      23.908  48.522  80.919  0.00  0.00    -0.015 A 
ATOM    136  NE1 TRP d   1      23.333  47.612  81.778  0.00  0.00    -0.365 N 
ATOM    137  H56 TRP d   1      24.851  48.375  80.395  0.00  0.00     0.112 H 
ATOM    138  CE2 TRP d   1      22.147  48.119  82.243  0.00  0.00     0.042 A 
ATOM    139  H57 TRP d   1      23.731  46.696  82.031  0.00  0.00     0.165 HD
ATOM    140  CD2 TRP d   1      21.980  49.400  81.667  0.00  0.00    -0.002 A 
ATOM    141  CZ2 TRP d   1      21.209  47.562  83.118  0.00  0.00    -0.056 A 
ATOM    142  CE3 TRP d   1      20.840  50.142  81.996  0.00  0.00    -0.070 A 
ATOM    143  CZ3 TRP d   1      19.903  49.581  82.873  0.00  0.00    -0.082 A 
ATOM    144  H58 TRP d   1      20.685  51.131  81.580  0.00  0.00     0.084 H 
ATOM    145  CH2 TRP d   1      20.097  48.308  83.419  0.00  0.00    -0.081 A 
ATOM    146  H60 TRP d   1      19.013  50.143  83.133  0.00  0.00     0.083 H 
ATOM    147  H61 TRP d   1      19.353  47.902  84.095  0.00  0.00     0.083 H 
ATOM    148  H59 TRP d   1      21.355  46.576  83.543  0.00  0.00     0.086 H 
ENDBRANCH 131 134
ENDBRANCH  74 131
BRANCH  60 149
ATOM    149  CB  ARG d   1      23.954  51.322  85.493  0.00  0.00    -0.036 C 
ATOM    150  H64 ARG d   1      23.660  51.710  86.479  0.00  0.00     0.036 H 
ATOM    151  H65 ARG d   1      25.038  51.133  85.481  0.00  0.00     0.036 H 
BRANCH 149 152
ATOM    152  CG  ARG d   1      23.232  50.015  85.252  0.00  0.00    -0.048 C 
ATOM    153  H66 ARG d   1      23.509  49.631  84.259  0.00  0.00     0.035 H 
ATOM    154  H67 ARG d   1      22.147  50.194  85.287  0.00  0.00     0.035 H 
BRANCH 152 155
ATOM    155  CD  ARG d   1      23.598  48.976  86.306  0.00  0.00     0.009 C 
ATOM    156  H68 ARG d   1      23.301  49.349  87.297  0.00  0.00     0.064 H 
ATOM    157  H69 ARG d   1      24.686  48.812  86.287  0.00  0.00     0.064 H 
BRANCH 155 158
ATOM    158  NE  ARG d   1      22.919  47.706  86.050  0.00  0.00    -0.227 N 
ATOM    159  CZ  ARG d   1      21.696  47.392  86.491  0.00  0.00     0.665 C 
ATOM    160  NH1 ARG d   1      21.004  48.240  87.246  0.00  0.00    -0.235 N 
ATOM    161  NH2 ARG d   1      21.170  46.203  86.188  0.00  0.00    -0.235 N 
ATOM    162  H71 ARG d   1      20.063  47.984  87.578  0.00  0.00     0.174 HD
ATOM    163  H72 ARG d   1      21.409  49.153  87.499  0.00  0.00     0.174 HD
ATOM    164  H73 ARG d   1      21.699  45.540  85.604  0.00  0.00     0.174 HD
ATOM    165  H74 ARG d   1      20.235  45.949  86.538  0.00  0.00     0.174 HD
ATOM    166  H70 ARG d   1      23.419  47.002  85.489  0.00  0.00     0.177 HD
ENDBRANCH 155 158
ENDBRANCH 152 155
ENDBRANCH 149 152
ENDBRANCH  60 149
BRANCH  80 167
ATOM    167  C   CY3 d   1      25.311  56.735  84.183  0.00  0.00     0.239 C 
ATOM    168  O   CY3 d   1      24.551  56.745  83.223  0.00  0.00    -0.271 OA
ATOM    169  N1  CY3 d   1      25.571  57.863  84.874  0.00  0.00    -0.368 N 
ATOM    170  H79 CY3 d   1      25.143  58.725  84.603  0.00  0.00     0.159 HD
ATOM    171  H80 CY3 d   1      26.192  57.838  85.657  0.00  0.00     0.159 HD
ENDBRANCH  80 167
TORSDOF 19
