REMARK  6 active torsions:
REMARK  status: ('A' for Active; 'I' for Inactive)
REMARK    1  A    between atoms: C2_8  and  S1_9 
REMARK    2  A    between atoms: S1_9  and  N5_12 
REMARK    3  A    between atoms: N5_12  and  C14_13 
REMARK    4  A    between atoms: C11_17  and  O25_18 
REMARK    5  A    between atoms: C3_19  and  C4_20 
REMARK    6  A    between atoms: C13_29  and  O26_30 
ROOT
ATOM      1  C14 AB4 d   1      29.248   6.791  51.204  0.00  0.00     0.043 A 
ATOM      2  C12 AB4 d   1      29.222   7.851  50.289  0.00  0.00    -0.043 A 
ATOM      3  C21 AB4 d   1      28.764   6.967  52.515  0.00  0.00    -0.054 A 
ATOM      4  C18 AB4 d   1      28.267   8.230  52.901  0.00  0.00    -0.048 A 
ATOM      5  C11 AB4 d   1      28.258   9.311  51.976  0.00  0.00     0.077 A 
ATOM      6  C3  AB4 d   1      28.723   9.126  50.655  0.00  0.00     0.013 A 
ATOM      7  H5  AB4 d   1      29.590   7.693  49.282  0.00  0.00     0.088 H 
ATOM      8  H6  AB4 d   1      28.773   6.143  53.219  0.00  0.00     0.087 H 
ATOM      9  H7  AB4 d   1      27.890   8.377  53.907  0.00  0.00     0.087 H 
ENDROOT
BRANCH   6  10
ATOM     10  C4  AB4 d   1      28.747  10.181  49.685  0.00  0.00     0.021 A 
ATOM     11  C6  AB4 d   1      29.962  10.729  49.179  0.00  0.00    -0.012 A 
ATOM     12  C27 AB4 d   1      31.226  10.262  49.575  0.00  0.00    -0.071 A 
ATOM     13  C15 AB4 d   1      29.944  11.786  48.228  0.00  0.00    -0.025 A 
ATOM     14  C29 AB4 d   1      32.433  10.815  49.120  0.00  0.00    -0.082 A 
ATOM     15  H9  AB4 d   1      31.272   9.430  50.269  0.00  0.00     0.084 H 
ATOM     16  C30 AB4 d   1      32.399  11.841  48.158  0.00  0.00    -0.082 A 
ATOM     17  H10 AB4 d   1      33.380  10.456  49.505  0.00  0.00     0.083 H 
ATOM     18  C28 AB4 d   1      31.146  12.346  47.720  0.00  0.00    -0.072 A 
ATOM     19  H11 AB4 d   1      33.321  12.243  47.755  0.00  0.00     0.083 H 
ATOM     20  H12 AB4 d   1      31.107  13.156  47.001  0.00  0.00     0.084 H 
ATOM     21  C17 AB4 d   1      28.711  12.260  47.759  0.00  0.00    -0.070 A 
ATOM     22  C16 AB4 d   1      27.509  11.717  48.254  0.00  0.00    -0.049 A 
ATOM     23  H13 AB4 d   1      28.682  13.046  47.014  0.00  0.00     0.085 H 
ATOM     24  C13 AB4 d   1      27.533  10.709  49.206  0.00  0.00     0.077 A 
ATOM     25  H14 AB4 d   1      26.559  12.090  47.888  0.00  0.00     0.087 H 
BRANCH  24  26
ATOM     26  O26 AB4 d   1      26.340  10.256  49.644  0.00  0.00    -0.360 OA
ATOM     27  H15 AB4 d   1      25.857  10.972  50.039  0.00  0.00     0.217 HD
ENDBRANCH  24  26
ENDBRANCH   6  10
BRANCH   5  28
ATOM     28  O25 AB4 d   1      27.765  10.535  52.371  0.00  0.00    -0.360 OA
ATOM     29  H8  AB4 d   1      26.856  10.440  52.631  0.00  0.00     0.217 HD
ENDBRANCH   5  28
BRANCH   1  30
ATOM     30  N5  AB4 d   1      29.730   5.621  50.791  0.00  0.00    -0.281 N 
ATOM     31  H4  AB4 d   1      29.093   4.966  50.385  0.00  0.00     0.179 HD
BRANCH  30  32
ATOM     32  S1  AB4 d   1      31.323   5.188  50.910  0.00  0.00     0.265 S 
ATOM     33  O8  AB4 d   1      31.920   5.492  52.209  0.00  0.00    -0.200 OA
ATOM     34  O9  AB4 d   1      31.460   3.732  50.555  0.00  0.00    -0.200 OA
BRANCH  32  35
ATOM     35  C2  AB4 d   1      32.310   6.114  49.732  0.00  0.00     0.103 A 
ATOM     36  C10 AB4 d   1      32.062   6.063  48.349  0.00  0.00     0.057 A 
ATOM     37 CL22 AB4 d   1      30.779   5.130  47.629  0.00  0.00    -0.083 Cl
ATOM     38  C19 AB4 d   1      32.864   6.768  47.455  0.00  0.00    -0.059 A 
ATOM     39  C23 AB4 d   1      33.922   7.518  47.941  0.00  0.00    -0.060 A 
ATOM     40  H1  AB4 d   1      32.662   6.730  46.391  0.00  0.00     0.086 H 
ATOM     41  C20 AB4 d   1      34.215   7.564  49.304  0.00  0.00     0.035 A 
ATOM     42  H2  AB4 d   1      34.536   8.081  47.247  0.00  0.00     0.086 H 
ATOM     43 CL24 AB4 d   1      35.562   8.558  49.815  0.00  0.00    -0.084 Cl
ATOM     44  C7  AB4 d   1      33.402   6.858  50.198  0.00  0.00    -0.038 A 
ATOM     45  H3  AB4 d   1      33.619   6.887  51.260  0.00  0.00     0.088 H 
ENDBRANCH  32  35
ENDBRANCH  30  32
ENDBRANCH   1  30
TORSDOF 6
