REMARK WARNING: 32 MAX_TORS EXCEEDED!!!
REMARK  39 active torsions:
REMARK  status: ('A' for Active; 'I' for Inactive)
REMARK    1  A    between atoms: CA_2  and  C_3 
REMARK       I    between atoms: C_3  and  N_8 
REMARK    2  A    between atoms: N_8  and  CA_9 
REMARK    3  A    between atoms: CA_9  and  C_10 
REMARK    4  A    between atoms: CA_9  and  CB_12 
REMARK       I    between atoms: C_10  and  N_13 
REMARK    5  A    between atoms: N_13  and  CA_14 
REMARK    6  A    between atoms: CA_14  and  C_15 
REMARK    7  A    between atoms: CA_14  and  CB_17 
REMARK       I    between atoms: C_15  and  N_24 
REMARK    8  A    between atoms: CB_17  and  CG_18 
REMARK    9  A    between atoms: CG_18  and  CD_19 
REMARK   10  A    between atoms: CD_19  and  NE_20 
REMARK       I    between atoms: NE_20  and  CZ_21 
REMARK       I    between atoms: CZ_21  and  NH1_22 
REMARK       I    between atoms: CZ_21  and  NH2_23 
REMARK   11  A    between atoms: CA_25  and  C_26 
REMARK       I    between atoms: C_26  and  N_31 
REMARK   12  A    between atoms: CA_32  and  C_33 
REMARK       I    between atoms: C_33  and  N_38 
REMARK   13  A    between atoms: N_38  and  CA_39 
REMARK   14  A    between atoms: CA_39  and  C_40 
REMARK   15  A    between atoms: CA_39  and  CB_42 
REMARK       I    between atoms: C_40  and  N_47 
REMARK   16  A    between atoms: CB_42  and  CG_43 
REMARK   17  A    between atoms: CG_43  and  CD_44 
REMARK   18  A    between atoms: CD_44  and  CE_45 
REMARK   19  A    between atoms: CE_45  and  NZ_46 
REMARK   20  A    between atoms: CA_48  and  C_49 
REMARK       I    between atoms: C_49  and  N_54 
REMARK   21  A    between atoms: N_54  and  CA_55 
REMARK   22  A    between atoms: CA_55  and  C_56 
REMARK   23  A    between atoms: CA_55  and  CB_58 
REMARK       I    between atoms: C_56  and  N_65 
REMARK   24  A    between atoms: CB_58  and  CG_59 
REMARK   25  A    between atoms: CG_59  and  CD_60 
REMARK   26  A    between atoms: CD_60  and  NE_61 
REMARK       I    between atoms: NE_61  and  CZ_62 
REMARK       I    between atoms: CZ_62  and  NH1_63 
REMARK       I    between atoms: CZ_62  and  NH2_64 
REMARK   27  A    between atoms: CA_66  and  C_67 
REMARK       I    between atoms: C_67  and  N_72 
REMARK   28  A    between atoms: N_72  and  CA_73 
REMARK   29  A    between atoms: CA_73  and  C_74 
REMARK   30  A    between atoms: CA_73  and  CB_76 
REMARK       I    between atoms: C_74  and  N_83 
REMARK   31  A    between atoms: CB_76  and  CG_77 
REMARK   32  A    between atoms: CG_77  and  CD_78 
REMARK   33  A    between atoms: CD_78  and  NE_79 
REMARK       I    between atoms: NE_79  and  CZ_80 
REMARK       I    between atoms: CZ_80  and  NH1_81 
REMARK       I    between atoms: CZ_80  and  NH2_82 
REMARK   34  A    between atoms: N_83  and  CA_84 
REMARK   35  A    between atoms: CA_84  and  C_85 
REMARK   36  A    between atoms: CA_84  and  CB_87 
REMARK   37  A    between atoms: CB_87  and  CG_88 
REMARK   38  A    between atoms: CG_88  and  CD_89 
REMARK   39  A    between atoms: CD_89  and  NE_90 
REMARK       I    between atoms: NE_90  and  CZ_91 
REMARK       I    between atoms: CZ_91  and  NH1_92 
ROOT
ATOM      1  N   PRO d   1       8.936  16.533  35.938  0.00  0.00    -0.337 N 
ATOM      2  CA  PRO d   1       8.669  17.637  35.024  0.00  0.00     0.091 C 
ATOM      3  CB  PRO d   1       8.261  16.927  33.733  0.00  0.00    -0.036 C 
ATOM      4  CG  PRO d   1       8.766  15.512  33.903  0.00  0.00    -0.048 C 
ATOM      5  CD  PRO d   1       8.530  15.251  35.348  0.00  0.00    -0.001 C 
ATOM      6  H55 PRO d   1       9.553  18.274  34.870  0.00  0.00     0.087 H 
ATOM      7  H56 PRO d   1       8.731  17.405  32.861  0.00  0.00     0.036 H 
ATOM      8  H57 PRO d   1       7.168  16.938  33.612  0.00  0.00     0.036 H 
ATOM      9  H58 PRO d   1       9.836  15.441  33.657  0.00  0.00     0.035 H 
ATOM     10  H59 PRO d   1       8.197  14.810  33.275  0.00  0.00     0.035 H 
ATOM     11  H60 PRO d   1       7.471  15.031  35.550  0.00  0.00     0.064 H 
ATOM     12  H61 PRO d   1       9.153  14.422  35.715  0.00  0.00     0.064 H 
ATOM     13  C   LYS d   1       9.610  16.819  37.048  0.00  0.00     0.243 C 
ATOM     14  O   LYS d   1      10.025  17.948  37.275  0.00  0.00    -0.271 OA
ENDROOT
BRANCH  13  15
ATOM     15  CA  LYS d   1       9.879  15.677  37.999  0.00  0.00     0.089 C 
ATOM     16  H43 LYS d   1       9.782  14.730  37.448  0.00  0.00     0.087 H 
BRANCH  15  17
ATOM     17  N   LYS d   1      11.220  15.772  38.531  0.00  0.00    -0.346 N 
ATOM     18  C   PRO d   1      12.150  14.898  38.181  0.00  0.00     0.241 C 
ATOM     19  O   PRO d   1      11.925  13.970  37.413  0.00  0.00    -0.271 OA
ATOM     20  H42 LYS d   1      11.447  16.506  39.171  0.00  0.00     0.163 HD
BRANCH  18  21
ATOM     21  CA  PRO d   1      13.530  15.084  38.804  0.00  0.00     0.091 C 
ATOM     22  N   PRO d   1      14.304  13.848  38.676  0.00  0.00    -0.337 N 
ATOM     23  C   PRO d   1      13.982  12.755  39.391  0.00  0.00     0.243 C 
ATOM     24  CD  PRO d   1      15.452  14.043  37.775  0.00  0.00    -0.001 C 
ATOM     25  O   PRO d   1      13.044  12.747  40.193  0.00  0.00    -0.271 OA
ATOM     26  CG  PRO d   1      15.056  15.283  37.015  0.00  0.00    -0.048 C 
ATOM     27  H40 PRO d   1      15.578  13.185  37.099  0.00  0.00     0.064 H 
ATOM     28  H41 PRO d   1      16.381  14.203  38.342  0.00  0.00     0.064 H 
ATOM     29  CB  PRO d   1      14.387  16.106  38.063  0.00  0.00    -0.036 C 
ATOM     30  H38 PRO d   1      15.939  15.799  36.608  0.00  0.00     0.035 H 
ATOM     31  H39 PRO d   1      14.362  15.042  36.196  0.00  0.00     0.035 H 
ATOM     32  H36 PRO d   1      15.126  16.566  38.736  0.00  0.00     0.036 H 
ATOM     33  H37 PRO d   1      13.764  16.892  37.611  0.00  0.00     0.036 H 
ATOM     34  H35 PRO d   1      13.414  15.372  39.859  0.00  0.00     0.087 H 
BRANCH  23  35
ATOM     35  CA  PRO d   1      14.838  11.510  39.186  0.00  0.00     0.092 C 
ATOM     36  N   PRO d   1      15.121  10.838  40.456  0.00  0.00    -0.337 N 
ATOM     37  C   ARG d   1      15.754  11.516  41.421  0.00  0.00     0.243 C 
ATOM     38  CD  PRO d   1      14.672   9.436  40.424  0.00  0.00    -0.001 C 
ATOM     39  O   ARG d   1      16.113  12.681  41.263  0.00  0.00    -0.271 OA
ATOM     40  CG  PRO d   1      14.625   9.158  38.938  0.00  0.00    -0.048 C 
ATOM     41  H33 PRO d   1      13.679   9.323  40.884  0.00  0.00     0.064 H 
ATOM     42  H34 PRO d   1      15.389   8.774  40.932  0.00  0.00     0.064 H 
ATOM     43  CB  PRO d   1      14.100  10.439  38.380  0.00  0.00    -0.036 C 
ATOM     44  H31 PRO d   1      15.628   8.935  38.544  0.00  0.00     0.035 H 
ATOM     45  H32 PRO d   1      13.948   8.320  38.713  0.00  0.00     0.035 H 
ATOM     46  H29 PRO d   1      14.331  10.525  37.308  0.00  0.00     0.036 H 
ATOM     47  H30 PRO d   1      13.013  10.516  38.528  0.00  0.00     0.036 H 
ATOM     48  H28 PRO d   1      15.773  11.798  38.682  0.00  0.00     0.087 H 
BRANCH  37  49
ATOM     49  CA  ARG d   1      16.038  10.788  42.732  0.00  0.00     0.089 C 
ATOM     50  H16 ARG d   1      16.466   9.800  42.507  0.00  0.00     0.087 H 
BRANCH  49  51
ATOM     51  N   ARG d   1      17.006  11.561  43.500  0.00  0.00    -0.346 N 
ATOM     52  C   ALA d   1      18.273  11.606  43.101  0.00  0.00     0.240 C 
ATOM     53  O   ALA d   1      18.675  10.995  42.116  0.00  0.00    -0.271 OA
ATOM     54  H15 ARG d   1      16.719  12.054  44.321  0.00  0.00     0.163 HD
BRANCH  52  55
ATOM     55  CA  ALA d   1      19.247  12.436  43.921  0.00  0.00     0.086 C 
ATOM     56  H11 ALA d   1      18.999  12.358  44.990  0.00  0.00     0.086 H 
BRANCH  55  57
ATOM     57  N   ALA d   1      20.579  11.901  43.677  0.00  0.00    -0.346 N 
ATOM     58  C   PRO d   1      21.022  10.833  44.333  0.00  0.00     0.249 C 
ATOM     59  O   PRO d   1      20.360  10.249  45.193  0.00  0.00    -0.271 OA
ATOM     60  H10 ALA d   1      21.171  12.345  43.004  0.00  0.00     0.163 HD
BRANCH  58  61
ATOM     61  CA  PRO d   1      22.425  10.362  43.990  0.00  0.00     0.178 C 
ATOM     62  N   PRO d   1      23.387  10.916  44.975  0.00  0.00    -0.062 N 
ATOM     63  CD  PRO d   1      23.934   9.827  45.805  0.00  0.00     0.083 C 
ATOM     64  H1  PRO d   1      22.915  11.582  45.566  0.00  0.00     0.278 HD
ATOM     65  H2  PRO d   1      24.140  11.375  44.486  0.00  0.00     0.278 HD
ATOM     66  CG  PRO d   1      22.931   8.682  45.555  0.00  0.00    -0.040 C 
ATOM     67  H8  PRO d   1      23.957  10.110  46.868  0.00  0.00     0.075 H 
ATOM     68  H9  PRO d   1      24.946   9.547  45.478  0.00  0.00     0.075 H 
ATOM     69  CB  PRO d   1      22.520   8.849  44.089  0.00  0.00    -0.028 C 
ATOM     70  H6  PRO d   1      23.408   7.704  45.717  0.00  0.00     0.035 H 
ATOM     71  H7  PRO d   1      22.058   8.778  46.217  0.00  0.00     0.035 H 
ATOM     72  H4  PRO d   1      23.283   8.446  43.407  0.00  0.00     0.036 H 
ATOM     73  H5  PRO d   1      21.552   8.368  43.883  0.00  0.00     0.036 H 
ATOM     74  H3  PRO d   1      22.686  10.691  42.974  0.00  0.00     0.099 H 
ENDBRANCH  58  61
ENDBRANCH  55  57
BRANCH  55  75
ATOM     75  CB  ALA d   1      19.191  13.893  43.495  0.00  0.00    -0.049 C 
ATOM     76  H12 ALA d   1      18.183  14.291  43.682  0.00  0.00     0.030 H 
ATOM     77  H13 ALA d   1      19.423  13.971  42.423  0.00  0.00     0.030 H 
ATOM     78  H14 ALA d   1      19.927  14.472  44.072  0.00  0.00     0.030 H 
ENDBRANCH  55  75
ENDBRANCH  52  55
ENDBRANCH  49  51
BRANCH  49  79
ATOM     79  CB  ARG d   1      14.750  10.591  43.529  0.00  0.00    -0.036 C 
ATOM     80  H17 ARG d   1      15.029  10.271  44.544  0.00  0.00     0.036 H 
ATOM     81  H18 ARG d   1      14.171   9.794  43.039  0.00  0.00     0.036 H 
BRANCH  79  82
ATOM     82  CG  ARG d   1      13.854  11.795  43.658  0.00  0.00    -0.048 C 
ATOM     83  H19 ARG d   1      13.223  11.883  42.761  0.00  0.00     0.035 H 
ATOM     84  H20 ARG d   1      14.468  12.701  43.764  0.00  0.00     0.035 H 
BRANCH  82  85
ATOM     85  CD  ARG d   1      12.969  11.629  44.892  0.00  0.00     0.009 C 
ATOM     86  H21 ARG d   1      12.414  10.682  44.818  0.00  0.00     0.064 H 
ATOM     87  H22 ARG d   1      12.259  12.467  44.947  0.00  0.00     0.064 H 
BRANCH  85  88
ATOM     88  NE  ARG d   1      13.794  11.613  46.097  0.00  0.00    -0.227 N 
ATOM     89  CZ  ARG d   1      13.352  11.365  47.324  0.00  0.00     0.665 C 
ATOM     90  NH1 ARG d   1      12.073  11.101  47.533  0.00  0.00    -0.235 N 
ATOM     91  NH2 ARG d   1      14.192  11.391  48.346  0.00  0.00    -0.235 N 
ATOM     92  H24 ARG d   1      11.736  10.909  48.487  0.00  0.00     0.174 HD
ATOM     93  H25 ARG d   1      11.414  11.087  46.742  0.00  0.00     0.174 HD
ATOM     94  H26 ARG d   1      15.189  11.596  48.188  0.00  0.00     0.174 HD
ATOM     95  H27 ARG d   1      13.849  11.206  49.299  0.00  0.00     0.174 HD
ATOM     96  H23 ARG d   1      14.799  11.810  45.986  0.00  0.00     0.177 HD
ENDBRANCH  85  88
ENDBRANCH  82  85
ENDBRANCH  79  82
ENDBRANCH  49  79
ENDBRANCH  37  49
ENDBRANCH  23  35
ENDBRANCH  18  21
ENDBRANCH  15  17
BRANCH  15  97
ATOM     97  CB  LYS d   1       8.872  15.685  39.144  0.00  0.00    -0.038 C 
ATOM     98  H44 LYS d   1       7.885  15.959  38.742  0.00  0.00     0.036 H 
ATOM     99  H45 LYS d   1       9.188  16.435  39.884  0.00  0.00     0.036 H 
BRANCH  97 100
ATOM    100  CG  LYS d   1       8.758  14.346  39.832  0.00  0.00    -0.061 C 
ATOM    101  H46 LYS d   1       8.742  14.500  40.921  0.00  0.00     0.033 H 
ATOM    102  H47 LYS d   1       9.626  13.726  39.562  0.00  0.00     0.033 H 
BRANCH 100 103
ATOM    103  CD  LYS d   1       7.474  13.627  39.407  0.00  0.00    -0.043 C 
ATOM    104  H48 LYS d   1       7.306  13.802  38.334  0.00  0.00     0.035 H 
ATOM    105  H49 LYS d   1       6.630  14.035  39.982  0.00  0.00     0.035 H 
BRANCH 103 106
ATOM    106  CE  LYS d   1       7.561  12.123  39.656  0.00  0.00     0.080 C 
ATOM    107  H50 LYS d   1       8.064  11.651  38.799  0.00  0.00     0.075 H 
ATOM    108  H51 LYS d   1       6.542  11.720  39.751  0.00  0.00     0.075 H 
BRANCH 106 109
ATOM    109  NZ  LYS d   1       8.325  11.799  40.902  0.00  0.00    -0.079 N 
ATOM    110  H52 LYS d   1       8.357  10.799  41.026  0.00  0.00     0.274 HD
ATOM    111  H53 LYS d   1       7.869  12.222  41.695  0.00  0.00     0.274 HD
ATOM    112  H54 LYS d   1       9.264  12.158  40.824  0.00  0.00     0.274 HD
ENDBRANCH 106 109
ENDBRANCH 103 106
ENDBRANCH 100 103
ENDBRANCH  97 100
ENDBRANCH  15  97
ENDBRANCH  13  15
BRANCH   2 113
ATOM    113  C   PRO d   1       7.517  18.452  35.612  0.00  0.00     0.241 C 
ATOM    114  O   PRO d   1       6.702  17.935  36.378  0.00  0.00    -0.271 OA
ATOM    115  N   ARG d   1       7.452  19.728  35.273  0.00  0.00    -0.346 N 
ATOM    116  H62 ARG d   1       8.149  20.123  34.675  0.00  0.00     0.163 HD
BRANCH 115 117
ATOM    117  CA  ARG d   1       6.367  20.555  35.771  0.00  0.00     0.089 C 
ATOM    118  H63 ARG d   1       6.205  20.383  36.845  0.00  0.00     0.087 H 
BRANCH 117 119
ATOM    119  C   ARG d   1       5.141  20.122  34.960  0.00  0.00     0.243 C 
ATOM    120  O   ARG d   1       5.250  19.817  33.763  0.00  0.00    -0.271 OA
ATOM    121  N   PRO d   1       3.962  20.071  35.598  0.00  0.00    -0.337 N 
ATOM    122  CA  PRO d   1       2.738  19.666  34.903  0.00  0.00     0.091 C 
ATOM    123  CD  PRO d   1       3.686  20.357  37.016  0.00  0.00    -0.001 C 
ATOM    124  CB  PRO d   1       1.654  19.925  35.948  0.00  0.00    -0.036 C 
ATOM    125  H75 PRO d   1       2.785  18.595  34.658  0.00  0.00     0.087 H 
ATOM    126  CG  PRO d   1       2.365  19.653  37.233  0.00  0.00    -0.048 C 
ATOM    127  H76 PRO d   1       0.802  19.242  35.814  0.00  0.00     0.036 H 
ATOM    128  H77 PRO d   1       1.300  20.966  35.903  0.00  0.00     0.036 H 
ATOM    129  H78 PRO d   1       2.508  18.574  37.390  0.00  0.00     0.035 H 
ATOM    130  H79 PRO d   1       1.821  20.079  38.089  0.00  0.00     0.035 H 
ATOM    131  H80 PRO d   1       3.595  21.439  37.194  0.00  0.00     0.064 H 
ATOM    132  H81 PRO d   1       4.470  19.942  37.666  0.00  0.00     0.064 H 
BRANCH 122 133
ATOM    133  C   PRO d   1       2.472  20.439  33.608  0.00  0.00     0.241 C 
ATOM    134  O   PRO d   1       2.849  21.606  33.486  0.00  0.00    -0.271 OA
ATOM    135  N   ARG d   1       1.825  19.775  32.649  0.00  0.00    -0.346 N 
ATOM    136  H82 ARG d   1       1.585  18.817  32.806  0.00  0.00     0.163 HD
BRANCH 135 137
ATOM    137  CA  ARG d   1       1.451  20.393  31.374  0.00  0.00     0.089 C 
ATOM    138  H83 ARG d   1       2.243  21.077  31.034  0.00  0.00     0.087 H 
BRANCH 137 139
ATOM    139  C   ARG d   1       0.146  21.167  31.636  0.00  0.00     0.241 C 
ATOM    140  O   ARG d   1      -0.932  20.570  31.728  0.00  0.00    -0.271 OA
ATOM    141  N   ARG d   1       0.244  22.488  31.767  0.00  0.00    -0.345 N 
ATOM    142  H95 ARG d   1       1.140  22.922  31.674  0.00  0.00     0.163 HD
BRANCH 141 143
ATOM    143  CA  ARG d   1      -0.930  23.322  32.045  0.00  0.00     0.096 C 
ATOM    144  H96 ARG d   1      -1.825  22.684  32.004  0.00  0.00     0.089 H 
BRANCH 143 145
ATOM    145  C   ARG d   1      -1.084  24.438  31.022  0.00  0.00     0.196 C 
ATOM    146  O   ARG d   1      -2.223  24.708  30.588  0.00  0.00    -0.646 OA
ATOM    147  OXT ARG d   1      -0.051  25.048  30.687  0.00  0.00    -0.646 OA
ENDBRANCH 143 145
BRANCH 143 148
ATOM    148  CB  ARG d   1      -0.824  23.940  33.449  0.00  0.00    -0.035 C 
ATOM    149  H97 ARG d   1      -1.669  24.632  33.581  0.00  0.00     0.036 H 
ATOM    150  H98 ARG d   1       0.121  24.500  33.504  0.00  0.00     0.036 H 
BRANCH 148 151
ATOM    151  CG  ARG d   1      -0.848  22.938  34.608  0.00  0.00    -0.047 C 
ATOM    152  H99 ARG d   1      -0.436  23.424  35.505  0.00  0.00     0.035 H 
ATOM    153 0H10 ARG d   1      -0.224  22.072  34.341  0.00  0.00     0.035 H 
BRANCH 151 154
ATOM    154  CD  ARG d   1      -2.257  22.450  34.918  0.00  0.00     0.009 C 
ATOM    155 1H10 ARG d   1      -2.648  21.919  34.037  0.00  0.00     0.064 H 
ATOM    156 2H10 ARG d   1      -2.893  23.322  35.133  0.00  0.00     0.064 H 
BRANCH 154 157
ATOM    157  NE  ARG d   1      -2.298  21.544  36.068  0.00  0.00    -0.227 N 
ATOM    158  CZ  ARG d   1      -1.973  20.250  36.036  0.00  0.00     0.665 C 
ATOM    159  NH1 ARG d   1      -2.045  19.517  37.141  0.00  0.00    -0.235 N 
ATOM    160  NH2 ARG d   1      -1.586  19.681  34.905  0.00  0.00    -0.235 N 
ATOM    161 4H10 ARG d   1      -1.794  18.518  37.114  0.00  0.00     0.174 HD
ATOM    162 5H10 ARG d   1      -2.352  19.947  38.025  0.00  0.00     0.174 HD
ATOM    163 6H10 ARG d   1      -1.526  20.239  34.042  0.00  0.00     0.174 HD
ATOM    164 7H10 ARG d   1      -1.345  18.680  34.889  0.00  0.00     0.174 HD
ATOM    165 3H10 ARG d   1      -2.601  21.936  36.971  0.00  0.00     0.177 HD
ENDBRANCH 154 157
ENDBRANCH 151 154
ENDBRANCH 148 151
ENDBRANCH 143 148
ENDBRANCH 141 143
ENDBRANCH 137 139
BRANCH 137 166
ATOM    166  CB  ARG d   1       1.207  19.316  30.311  0.00  0.00    -0.036 C 
ATOM    167  H84 ARG d   1       0.791  19.809  29.420  0.00  0.00     0.036 H 
ATOM    168  H85 ARG d   1       0.471  18.604  30.714  0.00  0.00     0.036 H 
BRANCH 166 169
ATOM    169  CG  ARG d   1       2.442  18.520  29.875  0.00  0.00    -0.048 C 
ATOM    170  H86 ARG d   1       2.110  17.623  29.331  0.00  0.00     0.035 H 
ATOM    171  H87 ARG d   1       3.002  18.218  30.772  0.00  0.00     0.035 H 
BRANCH 169 172
ATOM    172  CD  ARG d   1       3.369  19.328  28.967  0.00  0.00     0.009 C 
ATOM    173  H88 ARG d   1       4.112  18.645  28.529  0.00  0.00     0.064 H 
ATOM    174  H89 ARG d   1       3.883  20.086  29.577  0.00  0.00     0.064 H 
BRANCH 172 175
ATOM    175  NE  ARG d   1       2.659  20.009  27.876  0.00  0.00    -0.227 N 
ATOM    176  CZ  ARG d   1       2.390  19.495  26.673  0.00  0.00     0.665 C 
ATOM    177  NH1 ARG d   1       1.732  20.221  25.779  0.00  0.00    -0.235 N 
ATOM    178  NH2 ARG d   1       2.791  18.274  26.344  0.00  0.00    -0.235 N 
ATOM    179  H91 ARG d   1       1.523  19.828  24.850  0.00  0.00     0.174 HD
ATOM    180  H92 ARG d   1       1.430  21.177  26.014  0.00  0.00     0.174 HD
ATOM    181  H93 ARG d   1       3.303  17.698  27.028  0.00  0.00     0.174 HD
ATOM    182  H94 ARG d   1       2.590  17.902  25.405  0.00  0.00     0.174 HD
ATOM    183  H90 ARG d   1       2.339  20.971  28.055  0.00  0.00     0.177 HD
ENDBRANCH 172 175
ENDBRANCH 169 172
ENDBRANCH 166 169
ENDBRANCH 137 166
ENDBRANCH 135 137
ENDBRANCH 122 133
ENDBRANCH 117 119
BRANCH 117 184
ATOM    184  CB  ARG d   1       6.678  22.033  35.527  0.00  0.00    -0.036 C 
ATOM    185  H64 ARG d   1       6.423  22.268  34.483  0.00  0.00     0.036 H 
ATOM    186  H65 ARG d   1       7.756  22.186  35.685  0.00  0.00     0.036 H 
BRANCH 184 187
ATOM    187  CG  ARG d   1       5.927  23.003  36.426  0.00  0.00    -0.048 C 
ATOM    188  H66 ARG d   1       6.216  22.820  37.471  0.00  0.00     0.035 H 
ATOM    189  H67 ARG d   1       4.846  22.835  36.310  0.00  0.00     0.035 H 
BRANCH 187 190
ATOM    190  CD  ARG d   1       6.247  24.459  36.068  0.00  0.00     0.009 C 
ATOM    191  H68 ARG d   1       5.880  25.110  36.875  0.00  0.00     0.064 H 
ATOM    192  H69 ARG d   1       5.733  24.713  35.129  0.00  0.00     0.064 H 
BRANCH 190 193
ATOM    193  NE  ARG d   1       7.683  24.689  35.895  0.00  0.00    -0.227 N 
ATOM    194  CZ  ARG d   1       8.237  25.888  35.728  0.00  0.00     0.665 C 
ATOM    195  NH1 ARG d   1       9.554  26.002  35.573  0.00  0.00    -0.235 N 
ATOM    196  NH2 ARG d   1       7.475  26.975  35.732  0.00  0.00    -0.235 N 
ATOM    197  H71 ARG d   1       9.979  26.931  35.444  0.00  0.00     0.174 HD
ATOM    198  H72 ARG d   1      10.148  25.161  35.582  0.00  0.00     0.174 HD
ATOM    199  H73 ARG d   1       6.456  26.889  35.852  0.00  0.00     0.174 HD
ATOM    200  H74 ARG d   1       7.903  27.904  35.615  0.00  0.00     0.174 HD
ATOM    201  H70 ARG d   1       8.306  23.869  35.903  0.00  0.00     0.177 HD
ENDBRANCH 190 193
ENDBRANCH 187 190
ENDBRANCH 184 187
ENDBRANCH 117 184
ENDBRANCH 115 117
ENDBRANCH   2 113
TORSDOF 39
