REMARK  22 active torsions:
REMARK  status: ('A' for Active; 'I' for Inactive)
REMARK    1  A    between atoms: PA_1  and  O3A_4 
REMARK    2  A    between atoms: PA_1  and  AO5_20 
REMARK    3  A    between atoms: O3A_4  and  PB_5 
REMARK    4  A    between atoms: PB_5  and  O3B_8 
REMARK    5  A    between atoms: O3B_8  and  PG_9 
REMARK    6  A    between atoms: PG_9  and  O3G_12 
REMARK    7  A    between atoms: O3G_12  and  PD_13 
REMARK    8  A    between atoms: PD_13  and  O3D_16 
REMARK    9  A    between atoms: O3D_16  and  PE_17 
REMARK   10  A    between atoms: PE_17  and  BO5_39 
REMARK   11  A    between atoms: AO5_20  and  AC5_21 
REMARK   12  A    between atoms: AC5_21  and  AC4_22 
REMARK   13  A    between atoms: AC3_24  and  AO3_25 
REMARK   14  A    between atoms: AC2_26  and  AO2_27 
REMARK   15  A    between atoms: AC1_28  and  AN9_29 
REMARK   16  A    between atoms: AC6_33  and  AN6_34 
REMARK   17  A    between atoms: BO5_39  and  BC5_40 
REMARK   18  A    between atoms: BC5_40  and  BC4_41 
REMARK   19  A    between atoms: BC3_43  and  BO3_44 
REMARK   20  A    between atoms: BC2_45  and  BO2_46 
REMARK   21  A    between atoms: BC1_47  and  BN9_48 
REMARK   22  A    between atoms: BC6_52  and  BN6_53 
ROOT
ATOM      1  PG  AP5 d   1      15.774  12.410   8.201  0.00  0.00     0.427 P 
ATOM      2  O1G AP5 d   1      14.776  11.378   7.882  0.00  0.00    -0.624 OA
ATOM      3  O2G AP5 d   1      16.211  12.065   9.547  0.00  0.00    -0.624 OA
ENDROOT
BRANCH   1   4
ATOM      4  O3B AP5 d   1      14.988  13.708   8.146  0.00  0.00    -0.180 OA
BRANCH   4   5
ATOM      5  PB  AP5 d   1      14.053  14.560   9.085  0.00  0.00     0.427 P 
ATOM      6  O1B AP5 d   1      14.817  14.943  10.274  0.00  0.00    -0.624 OA
ATOM      7  O2B AP5 d   1      13.391  15.664   8.361  0.00  0.00    -0.624 OA
BRANCH   5   8
ATOM      8  O3A AP5 d   1      12.961  13.470   9.380  0.00  0.00    -0.180 OA
BRANCH   8   9
ATOM      9  PA  AP5 d   1      11.481  13.622   9.993  0.00  0.00     0.417 P 
ATOM     10  O1A AP5 d   1      11.293  14.890  10.684  0.00  0.00    -0.624 OA
ATOM     11  O2A AP5 d   1      10.505  13.354   8.877  0.00  0.00    -0.624 OA
BRANCH   9  12
ATOM     12  AO5 AP5 d   1      11.386  12.357  10.892  0.00  0.00    -0.287 OA
BRANCH  12  13
ATOM     13  AC5 AP5 d   1      12.073  12.337  12.225  0.00  0.00     0.058 C 
ATOM     14  H1  AP5 d   1      11.341  12.557  13.016  0.00  0.00     0.079 H 
ATOM     15  H2  AP5 d   1      12.867  13.098  12.238  0.00  0.00     0.079 H 
BRANCH  13  16
ATOM     16  AC4 AP5 d   1      12.692  10.950  12.475  0.00  0.00     0.089 C 
ATOM     17  AO4 AP5 d   1      11.470  10.051  12.542  0.00  0.00    -0.353 OA
ATOM     18  AC1 AP5 d   1      11.939   8.792  12.458  0.00  0.00     0.139 C 
ATOM     19  AC2 AP5 d   1      13.380   8.791  11.851  0.00  0.00     0.105 C 
ATOM     20  H8  AP5 d   1      12.012   8.379  13.475  0.00  0.00     0.122 H 
ATOM     21  AC3 AP5 d   1      13.380  10.221  11.259  0.00  0.00     0.091 C 
ATOM     22  H6  AP5 d   1      13.463   8.053  11.040  0.00  0.00     0.093 H 
ATOM     23  H4  AP5 d   1      12.892  10.338  10.280  0.00  0.00     0.091 H 
ATOM     24  H3  AP5 d   1      13.329  10.956  13.372  0.00  0.00     0.090 H 
BRANCH  18  25
ATOM     25  AN9 AP5 d   1      10.909   7.933  11.674  0.00  0.00    -0.294 N 
ATOM     26  AC8 AP5 d   1      10.730   7.644  10.234  0.00  0.00     0.071 A 
ATOM     27  AN7 AP5 d   1       9.575   6.972  10.084  0.00  0.00    -0.236 NA
ATOM     28  H9  AP5 d   1      11.414   7.926   9.435  0.00  0.00     0.144 H 
ATOM     29  AC5 AP5 d   1       8.869   6.922  11.358  0.00  0.00     0.149 A 
ATOM     30  AC6 AP5 d   1       7.693   6.433  11.668  0.00  0.00     0.155 A 
ATOM     31  AC4 AP5 d   1       9.712   7.457  12.273  0.00  0.00     0.167 A 
ATOM     32  AN1 AP5 d   1       7.346   6.562  12.992  0.00  0.00    -0.222 NA
ATOM     33  AC2 AP5 d   1       8.132   7.149  13.939  0.00  0.00     0.091 A 
ATOM     34  AN3 AP5 d   1       9.356   7.665  13.626  0.00  0.00    -0.222 NA
ATOM     35  H12 AP5 d   1       7.777   7.207  14.962  0.00  0.00     0.146 H 
BRANCH  30  36
ATOM     36  AN6 AP5 d   1       6.778   5.799  10.910  0.00  0.00    -0.382 N 
ATOM     37  H10 AP5 d   1       5.894   5.479  11.330  0.00  0.00     0.157 HD
ATOM     38  H11 AP5 d   1       6.962   5.634   9.910  0.00  0.00     0.157 HD
ENDBRANCH  30  36
ENDBRANCH  18  25
BRANCH  19  39
ATOM     39  AO2 AP5 d   1      14.371   8.473  12.805  0.00  0.00    -0.388 OA
ATOM     40  H7  AP5 d   1      15.230   8.581  12.415  0.00  0.00     0.210 HD
ENDBRANCH  19  39
BRANCH  21  41
ATOM     41  AO3 AP5 d   1      14.774  10.672  11.304  0.00  0.00    -0.390 OA
ATOM     42  H5  AP5 d   1      15.161  10.420  12.134  0.00  0.00     0.210 HD
ENDBRANCH  21  41
ENDBRANCH  13  16
ENDBRANCH  12  13
ENDBRANCH   9  12
ENDBRANCH   8   9
ENDBRANCH   5   8
ENDBRANCH   4   5
ENDBRANCH   1   4
BRANCH   1  43
ATOM     43  O3G AP5 d   1      16.890  12.462   7.182  0.00  0.00    -0.180 OA
BRANCH  43  44
ATOM     44  PD  AP5 d   1      18.011  13.359   6.586  0.00  0.00     0.427 P 
ATOM     45  O1D AP5 d   1      17.953  14.666   7.152  0.00  0.00    -0.624 OA
ATOM     46  O2D AP5 d   1      19.262  12.637   6.976  0.00  0.00    -0.624 OA
BRANCH  44  47
ATOM     47  O3D AP5 d   1      18.012  13.589   5.130  0.00  0.00    -0.180 OA
BRANCH  47  48
ATOM     48  PE  AP5 d   1      17.378  13.749   3.813  0.00  0.00     0.417 P 
ATOM     49  O1E AP5 d   1      17.858  14.878   3.027  0.00  0.00    -0.624 OA
ATOM     50  O2E AP5 d   1      17.045  12.602   2.837  0.00  0.00    -0.624 OA
BRANCH  48  51
ATOM     51  BO5 AP5 d   1      15.675  14.257   3.991  0.00  0.00    -0.287 OA
BRANCH  51  52
ATOM     52  BC5 AP5 d   1      15.486  15.534   4.546  0.00  0.00     0.058 C 
ATOM     53  H13 AP5 d   1      15.909  16.299   3.879  0.00  0.00     0.079 H 
ATOM     54  H14 AP5 d   1      15.976  15.592   5.529  0.00  0.00     0.079 H 
BRANCH  52  55
ATOM     55  BC4 AP5 d   1      14.143  15.729   4.684  0.00  0.00     0.089 C 
ATOM     56  BO4 AP5 d   1      13.637  16.073   3.349  0.00  0.00    -0.353 OA
ATOM     57  BC1 AP5 d   1      12.393  15.256   3.183  0.00  0.00     0.139 C 
ATOM     58  BC2 AP5 d   1      12.462  14.112   3.928  0.00  0.00     0.105 C 
ATOM     59  H20 AP5 d   1      11.487  15.820   3.451  0.00  0.00     0.122 H 
ATOM     60  BC3 AP5 d   1      13.295  14.476   5.344  0.00  0.00     0.091 C 
ATOM     61  H18 AP5 d   1      13.069  13.411   3.337  0.00  0.00     0.093 H 
ATOM     62  H16 AP5 d   1      13.875  13.709   5.878  0.00  0.00     0.091 H 
ATOM     63  H15 AP5 d   1      13.998  16.594   5.348  0.00  0.00     0.090 H 
BRANCH  57  64
ATOM     64  BN9 AP5 d   1      12.465  14.962   1.640  0.00  0.00    -0.294 N 
ATOM     65  BC8 AP5 d   1      13.312  14.187   0.919  0.00  0.00     0.071 A 
ATOM     66  BN7 AP5 d   1      13.097  14.177  -0.366  0.00  0.00    -0.236 NA
ATOM     67  H21 AP5 d   1      14.115  13.614   1.381  0.00  0.00     0.144 H 
ATOM     68  BC5 AP5 d   1      12.004  15.016  -0.611  0.00  0.00     0.149 A 
ATOM     69  BC6 AP5 d   1      11.376  15.357  -1.786  0.00  0.00     0.155 A 
ATOM     70  BC4 AP5 d   1      11.625  15.557   0.660  0.00  0.00     0.167 A 
ATOM     71  BN1 AP5 d   1      10.283  16.339  -1.626  0.00  0.00    -0.222 NA
ATOM     72  BC2 AP5 d   1       9.991  16.821  -0.473  0.00  0.00     0.091 A 
ATOM     73  BN3 AP5 d   1      10.614  16.404   0.703  0.00  0.00    -0.222 NA
ATOM     74  H24 AP5 d   1       9.226  17.586  -0.410  0.00  0.00     0.146 H 
BRANCH  69  75
ATOM     75  BN6 AP5 d   1      11.711  14.893  -2.974  0.00  0.00    -0.382 N 
ATOM     76  H22 AP5 d   1      11.192  15.196  -3.810  0.00  0.00     0.157 HD
ATOM     77  H23 AP5 d   1      12.492  14.228  -3.066  0.00  0.00     0.157 HD
ENDBRANCH  69  75
ENDBRANCH  57  64
BRANCH  58  78
ATOM     78  BO2 AP5 d   1      11.350  13.423   4.281  0.00  0.00    -0.388 OA
ATOM     79  H19 AP5 d   1      10.815  13.959   4.855  0.00  0.00     0.210 HD
ENDBRANCH  58  78
BRANCH  60  80
ATOM     80  BO3 AP5 d   1      12.046  14.972   5.993  0.00  0.00    -0.390 OA
ATOM     81  H17 AP5 d   1      11.572  14.239   6.367  0.00  0.00     0.210 HD
ENDBRANCH  60  80
ENDBRANCH  52  55
ENDBRANCH  51  52
ENDBRANCH  48  51
ENDBRANCH  47  48
ENDBRANCH  44  47
ENDBRANCH  43  44
ENDBRANCH   1  43
TORSDOF 22
