REMARK  8 active torsions:
REMARK  status: ('A' for Active; 'I' for Inactive)
REMARK    1  A    between atoms: O3A_8  and  PB_1 
REMARK    2  A    between atoms: PA_5  and  O3A_8 
REMARK    3  A    between atoms: PA_5  and  O5_9 
REMARK    4  A    between atoms: O5_9  and  C5_10 
REMARK    5  A    between atoms: C5_10  and  C4_11 
REMARK    6  A    between atoms: C3_13  and  O3_14 
REMARK    7  A    between atoms: C2_15  and  O2_16 
REMARK    8  A    between atoms: C1_17  and  N9_18 
ROOT
ATOM      1  C4  ADP d   1      13.228  10.684  12.301  0.00  0.00     0.089 C 
ATOM      2  O4  ADP d   1      12.078   9.938  12.749  0.00  0.00    -0.353 OA
ATOM      3  C3  ADP d   1      13.912   9.697  11.356  0.00  0.00     0.091 C 
ATOM      4  C2  ADP d   1      13.649   8.342  12.119  0.00  0.00     0.105 C 
ATOM      5  C1  ADP d   1      12.225   8.497  12.697  0.00  0.00     0.139 C 
ATOM      6  H3  ADP d   1      13.901  10.863  13.152  0.00  0.00     0.090 H 
ATOM      7  H4  ADP d   1      13.387   9.665  10.390  0.00  0.00     0.091 H 
ATOM      8  H6  ADP d   1      13.657   7.510  11.399  0.00  0.00     0.093 H 
ATOM      9  H8  ADP d   1      12.177   8.066  13.708  0.00  0.00     0.122 H 
ENDROOT
BRANCH   5  10
ATOM     10  N9  ADP d   1      11.108   7.831  11.827  0.00  0.00    -0.294 N 
ATOM     11  C8  ADP d   1      11.035   7.572  10.469  0.00  0.00     0.071 A 
ATOM     12  N7  ADP d   1       9.873   6.975  10.160  0.00  0.00    -0.236 NA
ATOM     13  H9  ADP d   1      11.814   7.819   9.749  0.00  0.00     0.144 H 
ATOM     14  C5  ADP d   1       9.191   6.843  11.299  0.00  0.00     0.149 A 
ATOM     15  C6  ADP d   1       7.843   6.251  11.548  0.00  0.00     0.155 A 
ATOM     16  C4  ADP d   1       9.954   7.385  12.413  0.00  0.00     0.167 A 
ATOM     17  N6  ADP d   1       7.011   5.712  10.637  0.00  0.00    -0.382 N 
ATOM     18  N1  ADP d   1       7.378   6.258  12.922  0.00  0.00    -0.222 NA
ATOM     19  H10 ADP d   1       6.100   5.333  10.932  0.00  0.00     0.157 HD
ATOM     20  H11 ADP d   1       7.285   5.679   9.645  0.00  0.00     0.157 HD
ATOM     21  C2  ADP d   1       8.122   6.785  14.006  0.00  0.00     0.091 A 
ATOM     22  N3  ADP d   1       9.392   7.338  13.738  0.00  0.00    -0.222 NA
ATOM     23  H12 ADP d   1       7.726   6.764  15.015  0.00  0.00     0.146 H 
ENDBRANCH   5  10
BRANCH   4  24
ATOM     24  O2  ADP d   1      14.663   8.062  13.123  0.00  0.00    -0.388 OA
ATOM     25  H7  ADP d   1      14.462   7.239  13.553  0.00  0.00     0.210 HD
ENDBRANCH   4  24
BRANCH   1  26
ATOM     26  C5  ADP d   1      12.848  12.059  11.763  0.00  0.00     0.058 C 
ATOM     27  H1  ADP d   1      11.762  12.193  11.879  0.00  0.00     0.079 H 
ATOM     28  H2  ADP d   1      13.377  12.824  12.351  0.00  0.00     0.079 H 
BRANCH  26  29
ATOM     29  O5  ADP d   1      13.204  12.242  10.301  0.00  0.00    -0.287 OA
BRANCH  29  30
ATOM     30  PA  ADP d   1      12.875  13.697   9.560  0.00  0.00     0.418 P 
ATOM     31  O1A ADP d   1      13.486  14.814  10.258  0.00  0.00    -0.624 OA
ATOM     32  O2A ADP d   1      11.394  13.822   9.656  0.00  0.00    -0.624 OA
BRANCH  30  33
ATOM     33  O3A ADP d   1      13.302  13.583   8.135  0.00  0.00    -0.173 OA
BRANCH  33  34
ATOM     34  PB  ADP d   1      13.245  14.583   7.013  0.00  0.00     0.431 P 
ATOM     35  O1B ADP d   1      14.821  14.735   6.559  0.00  0.00    -0.616 OA
ATOM     36  O2B ADP d   1      12.699  15.796   7.490  0.00  0.00    -0.616 OA
ATOM     37  O3B ADP d   1      12.366  13.989   6.000  0.00  0.00    -0.616 OA
ENDBRANCH  33  34
ENDBRANCH  30  33
ENDBRANCH  29  30
ENDBRANCH  26  29
ENDBRANCH   1  26
BRANCH   3  38
ATOM     38  O3  ADP d   1      15.242  10.089  11.082  0.00  0.00    -0.390 OA
ATOM     39  H5  ADP d   1      15.241  10.947  10.675  0.00  0.00     0.210 HD
ENDBRANCH   3  38
TORSDOF 8
