REMARK  10 active torsions:
REMARK  status: ('A' for Active; 'I' for Inactive)
REMARK    1  A    between atoms: C1_1  and  C3_3 
REMARK    2  A    between atoms: C5_6  and  N5_12 
REMARK    3  A    between atoms: N2_9  and  C10_15 
REMARK    4  A    between atoms: C8_13  and  O1_18 
REMARK    5  A    between atoms: C12_17  and  N6_21 
REMARK    6  A    between atoms: O1_18  and  C15_22 
REMARK       I    between atoms: N6_21  and  C18_25 
REMARK    7  A    between atoms: C18_25  and  C20_27 
REMARK    8  A    between atoms: C19_26  and  N7_29 
REMARK    9  A    between atoms: N8_30  and  C25_35 
REMARK       I    between atoms: N9_41  and  C33_44 
REMARK   10  A    between atoms: C33_44  and  C34_45 
ROOT
ATOM      1  C1  L2G d   1       2.960  63.112  13.138  0.00  0.00     0.105 C 
ATOM      2  C2  L2G d   1       3.968  63.901  12.536  0.00  0.00     0.088 A 
ATOM      3  N1  L2G d   1       3.281  61.814  12.914  0.00  0.00    -0.169 NA
ATOM      4  C4  L2G d   1       4.909  63.045  12.010  0.00  0.00     0.164 A 
ATOM      5  C5  L2G d   1       4.173  65.268  12.444  0.00  0.00     0.139 A 
ATOM      6  N2  L2G d   1       4.437  61.831  12.149  0.00  0.00    -0.246 N 
ATOM      7  N3  L2G d   1       5.994  63.538  11.369  0.00  0.00    -0.222 NA
ATOM      8  N4  L2G d   1       5.289  65.739  11.822  0.00  0.00    -0.224 NA
ATOM      9  C11 L2G d   1       6.201  64.870  11.305  0.00  0.00     0.091 A 
ATOM     10  H7  L2G d   1       7.102  65.252  10.838  0.00  0.00     0.146 H 
ENDROOT
BRANCH   6  11
ATOM     11  C10 L2G d   1       5.053  60.479  11.904  0.00  0.00     0.036 C 
ATOM     12  C13 L2G d   1       5.485  59.844  13.229  0.00  0.00    -0.042 C 
ATOM     13  C16 L2G d   1       6.135  58.477  12.993  0.00  0.00    -0.036 C 
ATOM     14  H8  L2G d   1       4.602  59.717  13.872  0.00  0.00     0.036 H 
ATOM     15  H9  L2G d   1       6.209  60.506  13.727  0.00  0.00     0.036 H 
ATOM     16  C19 L2G d   1       5.179  57.533  12.251  0.00  0.00     0.104 C 
ATOM     17  H16 L2G d   1       6.398  58.032  13.964  0.00  0.00     0.036 H 
ATOM     18  H17 L2G d   1       7.046  58.611  12.392  0.00  0.00     0.036 H 
ATOM     19  C17 L2G d   1       4.733  58.175  10.921  0.00  0.00    -0.036 C 
ATOM     20  H20 L2G d   1       4.287  57.369  12.874  0.00  0.00     0.084 H 
ATOM     21  C14 L2G d   1       4.078  59.549  11.176  0.00  0.00    -0.042 C 
ATOM     22  H18 L2G d   1       5.611  58.307  10.271  0.00  0.00     0.036 H 
ATOM     23  H19 L2G d   1       4.006  57.514  10.426  0.00  0.00     0.036 H 
ATOM     24  H10 L2G d   1       3.797  60.001  10.213  0.00  0.00     0.036 H 
ATOM     25  H11 L2G d   1       3.178  59.412  11.794  0.00  0.00     0.036 H 
ATOM     26  H6  L2G d   1       5.943  60.613  11.272  0.00  0.00     0.076 H 
BRANCH  16  27
ATOM     27  N7  L2G d   1       5.848  56.219  12.027  0.00  0.00    -0.064 N 
ATOM     28  C22 L2G d   1       6.248  56.060  10.638  0.00  0.00     0.099 C 
ATOM     29  C27 L2G d   1       7.096  54.792  10.508  0.00  0.00     0.020 C 
ATOM     30  H23 L2G d   1       6.838  56.933  10.321  0.00  0.00     0.078 H 
ATOM     31  H24 L2G d   1       5.354  55.972  10.004  0.00  0.00     0.078 H 
ATOM     32  N9  L2G d   1       6.276  53.667  11.055  0.00  0.00    -0.349 N 
ATOM     33  H30 L2G d   1       8.027  54.898  11.085  0.00  0.00     0.066 H 
ATOM     34  H31 L2G d   1       7.339  54.605   9.451  0.00  0.00     0.066 H 
ATOM     35  C28 L2G d   1       5.748  53.847  12.419  0.00  0.00     0.020 C 
ATOM     36  C33 L2G d   1       6.102  52.522  10.371  0.00  0.00     0.215 C 
ATOM     37  C23 L2G d   1       4.945  55.131  12.378  0.00  0.00     0.099 C 
ATOM     38  H32 L2G d   1       5.104  53.000  12.696  0.00  0.00     0.066 H 
ATOM     39  H33 L2G d   1       6.573  53.933  13.142  0.00  0.00     0.066 H 
ATOM     40  H25 L2G d   1       4.149  55.049  11.623  0.00  0.00     0.078 H 
ATOM     41  H26 L2G d   1       4.497  55.322  13.364  0.00  0.00     0.078 H 
ATOM     42  O3  L2G d   1       6.568  52.362   9.264  0.00  0.00    -0.274 OA
ATOM     43  H21 L2G d   1       6.668  56.171  12.611  0.00  0.00     0.280 HD
BRANCH  36  44
ATOM     44  C34 L2G d   1       5.303  51.437  11.068  0.00  0.00    -0.003 C 
ATOM     45  H38 L2G d   1       5.230  50.557  10.412  0.00  0.00     0.040 H 
ATOM     46  H39 L2G d   1       4.293  51.812  11.292  0.00  0.00     0.040 H 
ATOM     47  H40 L2G d   1       5.806  51.156  12.005  0.00  0.00     0.040 H 
ENDBRANCH  36  44
ENDBRANCH  16  27
ENDBRANCH   6  11
BRANCH   1  48
ATOM     48  C3  L2G d   1       1.712  63.593  13.779  0.00  0.00    -0.002 A 
ATOM     49  C6  L2G d   1       0.831  64.381  13.054  0.00  0.00    -0.036 A 
ATOM     50  C8  L2G d   1      -0.379  64.798  13.618  0.00  0.00     0.095 A 
ATOM     51  H1  L2G d   1       1.082  64.676  12.042  0.00  0.00     0.089 H 
ATOM     52  C12 L2G d   1      -0.705  64.444  14.884  0.00  0.00     0.068 A 
ATOM     53  C9  L2G d   1       0.143  63.588  15.608  0.00  0.00    -0.053 A 
ATOM     54  C7  L2G d   1       1.366  63.170  15.050  0.00  0.00    -0.068 A 
ATOM     55  H5  L2G d   1      -0.145  63.249  16.597  0.00  0.00     0.087 H 
ATOM     56  H2  L2G d   1       2.030  62.523  15.611  0.00  0.00     0.085 H 
BRANCH  50  57
ATOM     57  O1  L2G d   1      -1.218  65.577  12.908  0.00  0.00    -0.354 OA
BRANCH  57  58
ATOM     58  C15 L2G d   1      -0.788  66.122  11.670  0.00  0.00     0.010 C 
ATOM     59  H13 L2G d   1      -1.597  66.726  11.235  0.00  0.00     0.066 H 
ATOM     60  H14 L2G d   1      -0.528  65.305  10.980  0.00  0.00     0.066 H 
ATOM     61  H15 L2G d   1       0.095  66.757  11.836  0.00  0.00     0.066 H 
ENDBRANCH  57  58
ENDBRANCH  50  57
BRANCH  52  62
ATOM     62  N6  L2G d   1      -1.957  64.822  15.398  0.00  0.00    -0.319 N 
ATOM     63  C18 L2G d   1      -2.098  65.362  16.606  0.00  0.00     0.273 C 
ATOM     64  O2  L2G d   1      -1.142  65.574  17.341  0.00  0.00    -0.266 OA
ATOM     65  H12 L2G d   1      -2.772  64.680  14.836  0.00  0.00     0.169 HD
BRANCH  63  66
ATOM     66  C20 L2G d   1      -3.492  65.673  17.087  0.00  0.00     0.104 A 
ATOM     67  N8  L2G d   1      -3.851  66.641  18.036  0.00  0.00    -0.346 N 
ATOM     68  C24 L2G d   1      -5.201  66.608  18.207  0.00  0.00     0.045 A 
ATOM     69  C26 L2G d   1      -5.649  65.657  17.392  0.00  0.00    -0.007 A 
ATOM     70  C29 L2G d   1      -6.095  67.358  19.018  0.00  0.00    -0.056 A 
ATOM     71  C21 L2G d   1      -4.661  65.028  16.674  0.00  0.00    -0.039 A 
ATOM     72  C30 L2G d   1      -7.013  65.378  17.338  0.00  0.00    -0.071 A 
ATOM     73  H22 L2G d   1      -4.764  64.218  15.953  0.00  0.00     0.088 H 
ATOM     74  C32 L2G d   1      -7.917  66.098  18.144  0.00  0.00    -0.082 A 
ATOM     75  H35 L2G d   1      -7.380  64.604  16.674  0.00  0.00     0.084 H 
ATOM     76  C31 L2G d   1      -7.453  67.083  18.986  0.00  0.00    -0.081 A 
ATOM     77  H37 L2G d   1      -8.977  65.876  18.101  0.00  0.00     0.083 H 
ATOM     78  H36 L2G d   1      -8.140  67.636  19.616  0.00  0.00     0.083 H 
ATOM     79  H34 L2G d   1      -5.715  68.144  19.661  0.00  0.00     0.087 H 
BRANCH  67  80
ATOM     80  C25 L2G d   1      -2.935  67.551  18.727  0.00  0.00    -0.013 C 
ATOM     81  H27 L2G d   1      -1.905  67.355  18.396  0.00  0.00     0.057 H 
ATOM     82  H28 L2G d   1      -3.008  67.390  19.813  0.00  0.00     0.057 H 
ATOM     83  H29 L2G d   1      -3.204  68.591  18.492  0.00  0.00     0.057 H 
ENDBRANCH  67  80
ENDBRANCH  63  66
ENDBRANCH  52  62
ENDBRANCH   1  48
BRANCH   5  84
ATOM     84  N5  L2G d   1       3.278  66.121  12.956  0.00  0.00    -0.383 N 
ATOM     85  H3  L2G d   1       3.435  67.136  12.885  0.00  0.00     0.157 HD
ATOM     86  H4  L2G d   1       2.432  65.762  13.421  0.00  0.00     0.157 HD
ENDBRANCH   5  84
TORSDOF 10
