REMARK  10 active torsions:
REMARK  status: ('A' for Active; 'I' for Inactive)
REMARK    1  A    between atoms: C5_5  and  C6_6 
REMARK    2  A    between atoms: C6_6  and  O7_7 
REMARK    3  A    between atoms: O7_7  and  C8_8 
REMARK    4  A    between atoms: C8_8  and  C9_9 
REMARK    5  A    between atoms: C9_9  and  N10_10 
REMARK    6  A    between atoms: N10_10  and  C13_11 
REMARK    7  A    between atoms: C13_11  and  C14_12 
REMARK    8  A    between atoms: C14_12  and  N15_13 
REMARK    9  A    between atoms: N15_13  and  S16_14 
REMARK   10  A    between atoms: S16_14  and  C19_17 
ROOT
ATOM      1  C13 I5S d   1      11.099   7.846   3.753  0.00  0.00     0.097 C 
ATOM      2  H11 I5S d   1      11.428   8.883   3.919  0.00  0.00     0.078 H 
ATOM      3  H12 I5S d   1      11.291   7.251   4.658  0.00  0.00     0.078 H 
ENDROOT
BRANCH   1   4
ATOM      4  N10 I5S d   1      11.837   7.279   2.638  0.00  0.00    -0.072 N 
ATOM      5  H9  I5S d   1      11.302   6.519   2.248  0.00  0.00     0.277 HD
ATOM      6  H10 I5S d   1      11.966   7.993   1.938  0.00  0.00     0.277 HD
BRANCH   4   7
ATOM      7  C9  I5S d   1      13.163   6.767   3.045  0.00  0.00     0.101 C 
ATOM      8  H7  I5S d   1      13.046   6.237   4.002  0.00  0.00     0.079 H 
ATOM      9  H8  I5S d   1      13.509   6.062   2.275  0.00  0.00     0.079 H 
BRANCH   7  10
ATOM     10  C8  I5S d   1      14.237   7.840   3.224  0.00  0.00     0.042 C 
ATOM     11  H5  I5S d   1      14.699   7.709   4.214  0.00  0.00     0.076 H 
ATOM     12  H6  I5S d   1      14.999   7.704   2.443  0.00  0.00     0.076 H 
BRANCH  10  13
ATOM     13  O7  I5S d   1      13.741   9.145   3.136  0.00  0.00    -0.385 OA
BRANCH  13  14
ATOM     14  C6  I5S d   1      14.761  10.112   3.444  0.00  0.00     0.043 C 
ATOM     15  H3  I5S d   1      14.734  10.411   4.502  0.00  0.00     0.081 H 
ATOM     16  H4  I5S d   1      15.765   9.740   3.193  0.00  0.00     0.081 H 
BRANCH  14  17
ATOM     17  C5  I5S d   1      14.341  11.232   2.539  0.00  0.00    -0.035 A 
ATOM     18  C4  I5S d   1      13.232  11.996   2.901  0.00  0.00    -0.073 A 
ATOM     19  C3  I5S d   1      12.806  13.007   2.061  0.00  0.00    -0.061 A 
ATOM     20  H2  I5S d   1      12.710  11.799   3.830  0.00  0.00     0.084 H 
ATOM     21  C2  I5S d   1      13.467  13.215   0.860  0.00  0.00     0.034 A 
ATOM     22  H1  I5S d   1      11.964  13.631   2.338  0.00  0.00     0.086 H 
ATOM     23 CL1  I5S d   1      12.980  14.464  -0.200  0.00  0.00    -0.084 Cl
ATOM     24  C30 I5S d   1      14.562  12.435   0.489  0.00  0.00    -0.061 A 
ATOM     25  C29 I5S d   1      14.990  11.429   1.329  0.00  0.00    -0.073 A 
ATOM     26  H23 I5S d   1      15.071  12.618  -0.450  0.00  0.00     0.086 H 
ATOM     27  H22 I5S d   1      15.825  10.798   1.047  0.00  0.00     0.084 H 
ENDBRANCH  14  17
ENDBRANCH  13  14
ENDBRANCH  10  13
ENDBRANCH   7  10
ENDBRANCH   4   7
ENDBRANCH   1   4
BRANCH   1  28
ATOM     28  C14 I5S d   1       9.589   7.832   3.442  0.00  0.00     0.025 C 
ATOM     29  H13 I5S d   1       9.195   6.806   3.490  0.00  0.00     0.067 H 
ATOM     30  H14 I5S d   1       9.398   8.252   2.443  0.00  0.00     0.067 H 
BRANCH  28  31
ATOM     31  N15 I5S d   1       8.971   8.668   4.478  0.00  0.00    -0.314 N 
ATOM     32  H15 I5S d   1       8.698   8.271   5.354  0.00  0.00     0.172 HD
BRANCH  31  33
ATOM     33  S16 I5S d   1       8.736  10.257   4.179  0.00  0.00     0.259 S 
ATOM     34  O17 I5S d   1       8.488  10.699   5.478  0.00  0.00    -0.201 OA
ATOM     35  O18 I5S d   1       9.734  10.766   3.312  0.00  0.00    -0.201 OA
BRANCH  33  36
ATOM     36  C19 I5S d   1       7.311  10.293   3.149  0.00  0.00     0.090 A 
ATOM     37  C20 I5S d   1       7.490  10.408   1.791  0.00  0.00    -0.059 A 
ATOM     38  C21 I5S d   1       6.402  10.405   0.890  0.00  0.00    -0.081 A 
ATOM     39  H16 I5S d   1       8.496  10.504   1.400  0.00  0.00     0.085 H 
ATOM     40  C22 I5S d   1       5.124  10.348   1.360  0.00  0.00    -0.071 A 
ATOM     41  H17 I5S d   1       6.584  10.448  -0.178  0.00  0.00     0.083 H 
ATOM     42  C23 I5S d   1       4.892  10.274   2.748  0.00  0.00    -0.007 A 
ATOM     43  H18 I5S d   1       4.289  10.360   0.669  0.00  0.00     0.084 H 
ATOM     44  C24 I5S d   1       3.563  10.200   3.242  0.00  0.00     0.013 A 
ATOM     45  C28 I5S d   1       5.983  10.265   3.671  0.00  0.00     0.000 A 
ATOM     46  N25 I5S d   1       3.313  10.108   4.529  0.00  0.00    -0.272 NA
ATOM     47  H19 I5S d   1       2.736  10.220   2.542  0.00  0.00     0.116 H 
ATOM     48  C26 I5S d   1       4.310  10.100   5.427  0.00  0.00     0.003 A 
ATOM     49  C27 I5S d   1       5.646  10.175   5.040  0.00  0.00    -0.054 A 
ATOM     50  H20 I5S d   1       4.069  10.033   6.482  0.00  0.00     0.114 H 
ATOM     51  H21 I5S d   1       6.428  10.164   5.790  0.00  0.00     0.087 H 
ENDBRANCH  33  36
ENDBRANCH  31  33
ENDBRANCH  28  31
ENDBRANCH   1  28
TORSDOF 10
