REMARK  7 active torsions:
REMARK  status: ('A' for Active; 'I' for Inactive)
REMARK    1  A    between atoms: C5_5  and  C6_6 
REMARK    2  A    between atoms: C6_6  and  O7_7 
REMARK    3  A    between atoms: O7_7  and  C8_8 
REMARK    4  A    between atoms: C13_11  and  C14_12 
REMARK    5  A    between atoms: C14_12  and  N15_13 
REMARK    6  A    between atoms: N15_13  and  S16_14 
REMARK    7  A    between atoms: S16_14  and  C19_17 
ROOT
ATOM      1  C8  CQP d   1      13.560   7.494   3.062  0.00  0.00     0.064 C 
ATOM      2  C10 CQP d   1      12.971   7.015   4.500  0.00  0.00     0.106 C 
ATOM      3  N10 CQP d   1      11.946   8.305   4.815  0.00  0.00    -0.067 N 
ATOM      4  C13 CQP d   1      11.254   8.502   3.483  0.00  0.00     0.120 C 
ATOM      5  C31 CQP d   1      12.098   7.858   2.379  0.00  0.00    -0.011 C 
ATOM      6  H5  CQP d   1      14.143   6.742   2.511  0.00  0.00     0.086 H 
ATOM      7  H6  CQP d   1      13.762   6.923   5.259  0.00  0.00     0.079 H 
ATOM      8  H7  CQP d   1      12.424   6.064   4.424  0.00  0.00     0.079 H 
ATOM      9  H8  CQP d   1      12.465   9.127   5.081  0.00  0.00     0.277 HD
ATOM     10  H9  CQP d   1      11.284   8.076   5.540  0.00  0.00     0.277 HD
ATOM     11  H10 CQP d   1      11.185   9.580   3.276  0.00  0.00     0.086 H 
ATOM     12  H21 CQP d   1      11.611   6.942   2.013  0.00  0.00     0.040 H 
ATOM     13  H22 CQP d   1      12.233   8.561   1.544  0.00  0.00     0.040 H 
ENDROOT
BRANCH   4  14
ATOM     14  C14 CQP d   1       9.823   7.939   3.550  0.00  0.00     0.029 C 
ATOM     15  H11 CQP d   1       9.880   6.855   3.730  0.00  0.00     0.068 H 
ATOM     16  H12 CQP d   1       9.328   8.125   2.586  0.00  0.00     0.068 H 
BRANCH  14  17
ATOM     17  N15 CQP d   1       9.027   8.541   4.602  0.00  0.00    -0.313 N 
ATOM     18  H13 CQP d   1       8.793   7.989   5.402  0.00  0.00     0.172 HD
BRANCH  17  19
ATOM     19  S16 CQP d   1       8.496  10.090   4.532  0.00  0.00     0.259 S 
ATOM     20  O17 CQP d   1       9.450  10.957   3.980  0.00  0.00    -0.201 OA
ATOM     21  O18 CQP d   1       8.112  10.376   5.861  0.00  0.00    -0.201 OA
BRANCH  19  22
ATOM     22  C19 CQP d   1       7.226  10.113   3.451  0.00  0.00     0.090 A 
ATOM     23  C20 CQP d   1       7.518  10.264   2.096  0.00  0.00    -0.059 A 
ATOM     24  C21 CQP d   1       6.527  10.320   1.098  0.00  0.00    -0.081 A 
ATOM     25  H14 CQP d   1       8.557  10.342   1.797  0.00  0.00     0.085 H 
ATOM     26  C22 CQP d   1       5.192  10.204   1.440  0.00  0.00    -0.071 A 
ATOM     27  H15 CQP d   1       6.811  10.454   0.060  0.00  0.00     0.083 H 
ATOM     28  C23 CQP d   1       4.839  10.063   2.803  0.00  0.00    -0.007 A 
ATOM     29  H16 CQP d   1       4.426  10.221   0.673  0.00  0.00     0.084 H 
ATOM     30  C24 CQP d   1       3.460   9.937   3.170  0.00  0.00     0.013 A 
ATOM     31  C28 CQP d   1       5.845  10.003   3.831  0.00  0.00     0.000 A 
ATOM     32  N25 CQP d   1       3.044   9.773   4.414  0.00  0.00    -0.272 NA
ATOM     33  H17 CQP d   1       2.716   9.979   2.383  0.00  0.00     0.116 H 
ATOM     34  C26 CQP d   1       3.999   9.730   5.401  0.00  0.00     0.003 A 
ATOM     35  C27 CQP d   1       5.369   9.821   5.173  0.00  0.00    -0.054 A 
ATOM     36  H18 CQP d   1       3.663   9.618   6.426  0.00  0.00     0.114 H 
ATOM     37  H19 CQP d   1       6.068   9.755   5.999  0.00  0.00     0.087 H 
ENDBRANCH  19  22
ENDBRANCH  17  19
ENDBRANCH  14  17
ENDBRANCH   4  14
BRANCH   1  38
ATOM     38  O7  CQP d   1      14.312   8.676   3.339  0.00  0.00    -0.380 OA
BRANCH  38  39
ATOM     39  C6  CQP d   1      14.949   9.153   2.138  0.00  0.00     0.044 C 
ATOM     40  H3  CQP d   1      16.008   9.359   2.354  0.00  0.00     0.081 H 
ATOM     41  H4  CQP d   1      14.878   8.375   1.364  0.00  0.00     0.081 H 
BRANCH  39  42
ATOM     42  C5  CQP d   1      14.306  10.403   1.629  0.00  0.00    -0.035 A 
ATOM     43  C4  CQP d   1      14.552  10.754   0.291  0.00  0.00    -0.073 A 
ATOM     44  C3  CQP d   1      14.025  11.922  -0.255  0.00  0.00    -0.061 A 
ATOM     45  H2  CQP d   1      15.162  10.105  -0.327  0.00  0.00     0.084 H 
ATOM     46  C2  CQP d   1      13.245  12.758   0.542  0.00  0.00     0.034 A 
ATOM     47  H1  CQP d   1      14.220  12.178  -1.290  0.00  0.00     0.086 H 
ATOM     48 CL1  CQP d   1      12.665  14.195  -0.133  0.00  0.00    -0.084 Cl
ATOM     49  C30 CQP d   1      12.989  12.424   1.883  0.00  0.00    -0.061 A 
ATOM     50  C29 CQP d   1      13.507  11.251   2.419  0.00  0.00    -0.073 A 
ATOM     51  H23 CQP d   1      12.387  13.082   2.500  0.00  0.00     0.086 H 
ATOM     52  H20 CQP d   1      13.295  10.988   3.449  0.00  0.00     0.084 H 
ENDBRANCH  39  42
ENDBRANCH  38  39
ENDBRANCH   1  38
TORSDOF 7
