REMARK WARNING: 32 MAX_TORS EXCEEDED!!!
REMARK  37 active torsions:
REMARK  status: ('A' for Active; 'I' for Inactive)
REMARK    1  A    between atoms: N_1  and  CA_2 
REMARK    2  A    between atoms: CA_2  and  C_3 
REMARK    3  A    between atoms: CA_2  and  CB_5 
REMARK       I    between atoms: C_3  and  N_6 
REMARK    4  A    between atoms: N_6  and  CA_7 
REMARK    5  A    between atoms: CA_7  and  C_8 
REMARK    6  A    between atoms: CA_7  and  CB_10 
REMARK       I    between atoms: C_8  and  N_17 
REMARK    7  A    between atoms: CB_10  and  CG_11 
REMARK    8  A    between atoms: CG_11  and  CD_12 
REMARK    9  A    between atoms: CD_12  and  NE_13 
REMARK       I    between atoms: NE_13  and  CZ_14 
REMARK       I    between atoms: CZ_14  and  NH1_15 
REMARK   10  A    between atoms: N_17  and  CA_18 
REMARK   11  A    between atoms: CA_18  and  C_19 
REMARK   12  A    between atoms: CA_18  and  CB_21 
REMARK       I    between atoms: C_19  and  N_26 
REMARK   13  A    between atoms: CB_21  and  CG_22 
REMARK   14  A    between atoms: CG_22  and  CD_23 
REMARK   15  A    between atoms: CD_23  and  CE_24 
REMARK   16  A    between atoms: CE_24  and  NZ_25 
REMARK   17  A    between atoms: N_26  and  CA_27 
REMARK   18  A    between atoms: CA_27  and  CB_28 
REMARK   19  A    between atoms: CA_27  and  C_30 
REMARK   20  A    between atoms: CB_28  and  OG_29 
REMARK   21  A    between atoms: OG_29  and  P_32 
REMARK       I    between atoms: C_30  and  N_36 
REMARK   22  A    between atoms: N_36  and  CA_37 
REMARK   23  A    between atoms: CA_37  and  C_38 
REMARK   24  A    between atoms: CA_37  and  CB_40 
REMARK       I    between atoms: C_38  and  N_43 
REMARK   25  A    between atoms: CB_40  and  OG1_41 
REMARK   26  A    between atoms: CB_40  and  CG2_42 
REMARK   27  A    between atoms: N_43  and  CA_44 
REMARK   28  A    between atoms: CA_44  and  C_45 
REMARK       I    between atoms: C_45  and  N_47 
REMARK   29  A    between atoms: N_47  and  CA_48 
REMARK   30  A    between atoms: CA_48  and  C_49 
REMARK       I    between atoms: C_49  and  N_51 
REMARK   31  A    between atoms: N_51  and  CA_52 
REMARK   32  A    between atoms: CA_52  and  C_53 
REMARK   33  A    between atoms: CA_52  and  CB_55 
REMARK   34  A    between atoms: CB_55  and  CG_56 
REMARK   35  A    between atoms: CG_56  and  CD_57 
REMARK   36  A    between atoms: CD_57  and  CE_58 
REMARK   37  A    between atoms: CE_58  and  NZ_59 
ROOT
ATOM      1  CA  SEP d   1      13.631   0.282   8.054  0.00  0.00     0.110 C 
ATOM      2  H35 SEP d   1      13.789   1.218   7.498  0.00  0.00     0.090 H 
ENDROOT
BRANCH   1   3
ATOM      3  N   SEP d   1      12.243  -0.075   7.967  0.00  0.00    -0.344 N 
ATOM      4  C   LYS d   1      11.406   0.627   7.238  0.00  0.00     0.241 C 
ATOM      5  O   LYS d   1      11.624   1.780   6.872  0.00  0.00    -0.271 OA
ATOM      6  H34 SEP d   1      11.908  -0.872   8.470  0.00  0.00     0.163 HD
BRANCH   4   7
ATOM      7  CA  LYS d   1      10.106  -0.082   6.935  0.00  0.00     0.089 C 
ATOM      8  H22 LYS d   1      10.049  -0.960   7.595  0.00  0.00     0.087 H 
BRANCH   7   9
ATOM      9  N   LYS d   1       8.989   0.757   7.218  0.00  0.00    -0.346 N 
ATOM     10  C   ARG d   1       8.467   0.810   8.429  0.00  0.00     0.241 C 
ATOM     11  O   ARG d   1       8.959   0.239   9.417  0.00  0.00    -0.271 OA
ATOM     12  H21 LYS d   1       8.595   1.314   6.487  0.00  0.00     0.163 HD
BRANCH  10  13
ATOM     13  CA  ARG d   1       7.218   1.667   8.530  0.00  0.00     0.089 C 
ATOM     14  H9  ARG d   1       6.873   1.868   7.505  0.00  0.00     0.087 H 
BRANCH  13  15
ATOM     15  N   ARG d   1       6.110   0.980   9.225  0.00  0.00    -0.346 N 
ATOM     16  C   ALA d   1       5.383  -0.012   8.685  0.00  0.00     0.248 C 
ATOM     17  O   ALA d   1       5.615  -0.518   7.570  0.00  0.00    -0.271 OA
ATOM     18  H8  ARG d   1       5.887   1.272  10.155  0.00  0.00     0.163 HD
BRANCH  16  19
ATOM     19  CA  ALA d   1       4.194  -0.514   9.540  0.00  0.00     0.172 C 
ATOM     20  H4  ALA d   1       3.396   0.241   9.476  0.00  0.00     0.098 H 
BRANCH  19  21
ATOM     21  N   ALA d   1       3.646  -1.798   9.025  0.00  0.00    -0.067 N 
ATOM     22  H1  ALA d   1       2.876  -2.092   9.606  0.00  0.00     0.275 HD
ATOM     23  H2  ALA d   1       4.367  -2.502   9.042  0.00  0.00     0.275 HD
ATOM     24  H3  ALA d   1       3.323  -1.670   8.079  0.00  0.00     0.275 HD
ENDBRANCH  19  21
BRANCH  19  25
ATOM     25  CB  ALA d   1       4.596  -0.657  11.031  0.00  0.00    -0.042 C 
ATOM     26  H5  ALA d   1       4.998   0.300  11.396  0.00  0.00     0.030 H 
ATOM     27  H6  ALA d   1       5.363  -1.439  11.131  0.00  0.00     0.030 H 
ATOM     28  H7  ALA d   1       3.712  -0.933  11.624  0.00  0.00     0.030 H 
ENDBRANCH  19  25
ENDBRANCH  16  19
ENDBRANCH  13  15
BRANCH  13  29
ATOM     29  CB  ARG d   1       7.571   3.015   9.166  0.00  0.00    -0.036 C 
ATOM     30  H10 ARG d   1       7.124   3.813   8.555  0.00  0.00     0.036 H 
ATOM     31  H11 ARG d   1       8.666   3.121   9.164  0.00  0.00     0.036 H 
BRANCH  29  32
ATOM     32  CG  ARG d   1       7.087   3.173  10.569  0.00  0.00    -0.048 C 
ATOM     33  H12 ARG d   1       6.196   2.541  10.693  0.00  0.00     0.035 H 
ATOM     34  H13 ARG d   1       6.812   4.228  10.716  0.00  0.00     0.035 H 
BRANCH  32  35
ATOM     35  CD  ARG d   1       8.104   2.787  11.672  0.00  0.00     0.009 C 
ATOM     36  H14 ARG d   1       7.533   2.455  12.551  0.00  0.00     0.064 H 
ATOM     37  H15 ARG d   1       8.678   3.690  11.928  0.00  0.00     0.064 H 
BRANCH  35  38
ATOM     38  NE  ARG d   1       9.054   1.740  11.343  0.00  0.00    -0.227 N 
ATOM     39  CZ  ARG d   1      10.145   1.465  12.052  0.00  0.00     0.665 C 
ATOM     40  NH1 ARG d   1      10.425   2.160  13.140  0.00  0.00    -0.235 N 
ATOM     41  NH2 ARG d   1      10.954   0.491  11.662  0.00  0.00    -0.235 N 
ATOM     42  H17 ARG d   1      11.271   1.943  13.686  0.00  0.00     0.174 HD
ATOM     43  H18 ARG d   1       9.797   2.918  13.442  0.00  0.00     0.174 HD
ATOM     44  H19 ARG d   1      10.736  -0.051  10.814  0.00  0.00     0.174 HD
ATOM     45  H20 ARG d   1      11.801   0.276  12.207  0.00  0.00     0.174 HD
ATOM     46  H16 ARG d   1       8.871   1.172  10.504  0.00  0.00     0.177 HD
ENDBRANCH  35  38
ENDBRANCH  32  35
ENDBRANCH  29  32
ENDBRANCH  13  29
ENDBRANCH  10  13
ENDBRANCH   7   9
BRANCH   7  47
ATOM     47  CB  LYS d   1      10.023  -0.578   5.498  0.00  0.00    -0.038 C 
ATOM     48  H23 LYS d   1      10.995  -1.006   5.213  0.00  0.00     0.036 H 
ATOM     49  H24 LYS d   1       9.791   0.273   4.841  0.00  0.00     0.036 H 
BRANCH  47  50
ATOM     50  CG  LYS d   1       8.936  -1.652   5.323  0.00  0.00    -0.061 C 
ATOM     51  H25 LYS d   1       8.359  -1.739   6.255  0.00  0.00     0.033 H 
ATOM     52  H26 LYS d   1       9.412  -2.617   5.095  0.00  0.00     0.033 H 
BRANCH  50  53
ATOM     53  CD  LYS d   1       7.999  -1.274   4.186  0.00  0.00    -0.043 C 
ATOM     54  H27 LYS d   1       8.486  -1.512   3.229  0.00  0.00     0.035 H 
ATOM     55  H28 LYS d   1       7.797  -0.194   4.236  0.00  0.00     0.035 H 
BRANCH  53  56
ATOM     56  CE  LYS d   1       6.676  -2.028   4.267  0.00  0.00     0.080 C 
ATOM     57  H29 LYS d   1       6.077  -1.793   3.375  0.00  0.00     0.075 H 
ATOM     58  H30 LYS d   1       6.136  -1.702   5.168  0.00  0.00     0.075 H 
BRANCH  56  59
ATOM     59  NZ  LYS d   1       6.881  -3.508   4.335  0.00  0.00    -0.079 N 
ATOM     60  H31 LYS d   1       5.986  -3.969   4.387  0.00  0.00     0.274 HD
ATOM     61  H32 LYS d   1       7.424  -3.735   5.153  0.00  0.00     0.274 HD
ATOM     62  H33 LYS d   1       7.371  -3.818   3.510  0.00  0.00     0.274 HD
ENDBRANCH  56  59
ENDBRANCH  53  56
ENDBRANCH  50  53
ENDBRANCH  47  50
ENDBRANCH   7  47
ENDBRANCH   4   7
ENDBRANCH   1   3
BRANCH   1  63
ATOM     63  CB  SEP d   1      14.065   0.497   9.506  0.00  0.00     0.059 C 
ATOM     64  H36 SEP d   1      13.476   1.322   9.934  0.00  0.00     0.079 H 
ATOM     65  H37 SEP d   1      15.132   0.762   9.521  0.00  0.00     0.079 H 
BRANCH  63  66
ATOM     66  OG  SEP d   1      13.872  -0.657  10.296  0.00  0.00    -0.280 OA
BRANCH  66  67
ATOM     67  P   SEP d   1      14.512  -0.443  11.746  0.00  0.00     0.422 P 
ATOM     68  O1P SEP d   1      13.538   0.490  12.577  0.00  0.00    -0.617 OA
ATOM     69  O2P SEP d   1      16.002   0.107  11.667  0.00  0.00    -0.617 OA
ATOM     70  O3P SEP d   1      14.632  -1.780  12.624  0.00  0.00    -0.617 OA
ENDBRANCH  66  67
ENDBRANCH  63  66
ENDBRANCH   1  63
BRANCH   1  71
ATOM     71  C   SEP d   1      14.479  -0.818   7.425  0.00  0.00     0.243 C 
ATOM     72  O   SEP d   1      13.987  -1.881   7.071  0.00  0.00    -0.271 OA
ATOM     73  N   THR d   1      15.756  -0.492   7.277  0.00  0.00    -0.344 N 
ATOM     74  H38 THR d   1      15.978   0.483   7.285  0.00  0.00     0.163 HD
BRANCH  73  75
ATOM     75  CA  THR d   1      16.862  -1.417   7.104  0.00  0.00     0.113 C 
ATOM     76  H39 THR d   1      16.744  -1.950   6.149  0.00  0.00     0.091 H 
BRANCH  75  77
ATOM     77  C   THR d   1      16.940  -2.475   8.236  0.00  0.00     0.243 C 
ATOM     78  O   THR d   1      17.506  -3.543   8.063  0.00  0.00    -0.271 OA
ATOM     79  N   GLY d   1      16.360  -2.182   9.392  0.00  0.00    -0.350 N 
ATOM     80  H45 GLY d   1      15.790  -1.364   9.469  0.00  0.00     0.163 HD
BRANCH  79  81
ATOM     81  CA  GLY d   1      16.550  -3.053  10.561  0.00  0.00     0.069 C 
ATOM     82  H46 GLY d   1      16.757  -2.392  11.415  0.00  0.00     0.078 H 
ATOM     83  H47 GLY d   1      17.436  -3.671  10.352  0.00  0.00     0.078 H 
BRANCH  81  84
ATOM     84  C   GLY d   1      15.452  -4.004  11.004  0.00  0.00     0.235 C 
ATOM     85  O   GLY d   1      15.545  -4.589  12.093  0.00  0.00    -0.272 OA
ATOM     86  N   GLY d   1      14.419  -4.169  10.184  0.00  0.00    -0.351 N 
ATOM     87  H48 GLY d   1      14.371  -3.630   9.343  0.00  0.00     0.163 HD
BRANCH  86  88
ATOM     88  CA  GLY d   1      13.344  -5.127  10.485  0.00  0.00     0.069 C 
ATOM     89  H49 GLY d   1      12.385  -4.589  10.451  0.00  0.00     0.078 H 
ATOM     90  H50 GLY d   1      13.508  -5.521  11.499  0.00  0.00     0.078 H 
BRANCH  88  91
ATOM     91  C   GLY d   1      13.262  -6.307   9.524  0.00  0.00     0.236 C 
ATOM     92  O   GLY d   1      13.984  -6.361   8.507  0.00  0.00    -0.272 OA
ATOM     93  N   LYS d   1      12.372  -7.252   9.838  0.00  0.00    -0.345 N 
ATOM     94  H51 LYS d   1      11.870  -7.177  10.700  0.00  0.00     0.163 HD
BRANCH  93  95
ATOM     95  CA  LYS d   1      12.108  -8.394   8.960  0.00  0.00     0.096 C 
ATOM     96  H52 LYS d   1      11.347  -9.033   9.432  0.00  0.00     0.089 H 
BRANCH  95  97
ATOM     97  C   LYS d   1      13.392  -9.211   8.791  0.00  0.00     0.196 C 
ATOM     98  O   LYS d   1      13.379 -10.327   8.247  0.00  0.00    -0.646 OA
ATOM     99  O1  LYS d   1      14.483  -8.742   9.212  0.00  0.00    -0.646 OA
ENDBRANCH  95  97
BRANCH  95 100
ATOM    100  CB  LYS d   1      11.562  -7.916   7.593  0.00  0.00    -0.037 C 
ATOM    101  H54 LYS d   1      12.359  -7.350   7.089  0.00  0.00     0.036 H 
ATOM    102  H55 LYS d   1      10.706  -7.252   7.784  0.00  0.00     0.036 H 
BRANCH 100 103
ATOM    103  CG  LYS d   1      11.097  -9.024   6.642  0.00  0.00    -0.061 C 
ATOM    104  H56 LYS d   1      10.098  -9.364   6.952  0.00  0.00     0.033 H 
ATOM    105  H57 LYS d   1      11.805  -9.864   6.700  0.00  0.00     0.033 H 
BRANCH 103 106
ATOM    106  CD  LYS d   1      11.027  -8.538   5.202  0.00  0.00    -0.043 C 
ATOM    107  H58 LYS d   1      11.861  -7.845   5.017  0.00  0.00     0.035 H 
ATOM    108  H59 LYS d   1      10.073  -8.014   5.047  0.00  0.00     0.035 H 
BRANCH 106 109
ATOM    109  CE  LYS d   1      11.120  -9.697   4.220  0.00  0.00     0.080 C 
ATOM    110  H60 LYS d   1      10.224 -10.326   4.327  0.00  0.00     0.075 H 
ATOM    111  H61 LYS d   1      12.015 -10.291   4.455  0.00  0.00     0.075 H 
BRANCH 109 112
ATOM    112  NZ  LYS d   1      11.213  -9.223   2.800  0.00  0.00    -0.079 N 
ATOM    113  H62 LYS d   1      11.273 -10.018   2.184  0.00  0.00     0.274 HD
ATOM    114  H63 LYS d   1      12.035  -8.650   2.690  0.00  0.00     0.274 HD
ATOM    115  H64 LYS d   1      10.394  -8.682   2.572  0.00  0.00     0.274 HD
ENDBRANCH 109 112
ENDBRANCH 106 109
ENDBRANCH 103 106
ENDBRANCH 100 103
ENDBRANCH  95 100
ENDBRANCH  93  95
ENDBRANCH  88  91
ENDBRANCH  86  88
ENDBRANCH  81  84
ENDBRANCH  79  81
ENDBRANCH  75  77
BRANCH  75 116
ATOM    116  CB  THR d   1      18.127  -0.537   7.047  0.00  0.00     0.060 C 
ATOM    117  H40 THR d   1      17.908   0.371   7.629  0.00  0.00     0.086 H 
BRANCH 116 118
ATOM    118  OG1 THR d   1      18.353  -0.126   5.691  0.00  0.00    -0.393 OA
ATOM    119  H41 THR d   1      19.132   0.417   5.651  0.00  0.00     0.210 HD
ENDBRANCH 116 118
BRANCH 116 120
ATOM    120  CG2 THR d   1      19.349  -1.153   7.679  0.00  0.00    -0.050 C 
ATOM    121  H42 THR d   1      20.197  -0.458   7.591  0.00  0.00     0.031 H 
ATOM    122  H43 THR d   1      19.592  -2.095   7.165  0.00  0.00     0.031 H 
ATOM    123  H44 THR d   1      19.149  -1.356   8.742  0.00  0.00     0.031 H 
ENDBRANCH 116 120
ENDBRANCH  75 116
ENDBRANCH  73  75
ENDBRANCH   1  71
TORSDOF 37
