REMARK  5 active torsions:
REMARK  status: ('A' for Active; 'I' for Inactive)
REMARK    1  A    between atoms: C11_1  and  C10_4 
REMARK    2  A    between atoms: C10_4  and  C9_5 
REMARK    3  A    between atoms: C9_5  and  C8_6 
REMARK    4  A    between atoms: C8_6  and  C7_7 
REMARK    5  A    between atoms: C7_7  and  C2_8 
ROOT
ATOM      1  C2  BTN d   1      -1.561  11.736   7.939  0.00  0.00     0.012 C 
ATOM      2  S1  BTN d   1      -1.055  10.345   8.783  0.00  0.00    -0.160 SA
ATOM      3  C6  BTN d   1       0.129  10.014   7.476  0.00  0.00    -0.002 C 
ATOM      4  C5  BTN d   1       0.635  11.305   6.903  0.00  0.00     0.041 A 
ATOM      5  N1  BTN d   1       1.854  11.597   7.618  0.00  0.00    -0.347 N 
ATOM      6  C3  BTN d   1       1.665  12.627   8.425  0.00  0.00     0.248 A 
ATOM      7  O3  BTN d   1       2.681  13.115   9.231  0.00  0.00    -0.152 OA
ATOM      8  N2  BTN d   1       0.415  13.110   8.364  0.00  0.00    -0.347 N 
ATOM      9  C4  BTN d   1      -0.327  12.406   7.347  0.00  0.00     0.045 A 
ATOM     10  H9  BTN d   1      -2.217  11.414   7.117  0.00  0.00     0.059 H 
ATOM     11  H10 BTN d   1      -0.359   9.430   6.682  0.00  0.00     0.052 H 
ATOM     12  H11 BTN d   1       0.974   9.442   7.886  0.00  0.00     0.052 H 
ATOM     13  H12 BTN d   1       0.768  11.263   5.812  0.00  0.00     0.076 H 
ATOM     14  H13 BTN d   1       2.713  11.095   7.518  0.00  0.00     0.163 HD
ATOM     15  H14 BTN d   1       0.053  13.846   8.936  0.00  0.00     0.163 HD
ATOM     16  H15 BTN d   1      -0.607  13.072   6.518  0.00  0.00     0.077 H 
ENDROOT
BRANCH   1  17
ATOM     17  C7  BTN d   1      -2.349  12.734   8.796  0.00  0.00    -0.051 C 
ATOM     18  H7  BTN d   1      -1.758  12.991   9.687  0.00  0.00     0.034 H 
ATOM     19  H8  BTN d   1      -2.540  13.644   8.208  0.00  0.00     0.034 H 
BRANCH  17  20
ATOM     20  C8  BTN d   1      -3.674  12.134   9.232  0.00  0.00    -0.063 C 
ATOM     21  H5  BTN d   1      -4.181  11.731   8.343  0.00  0.00     0.033 H 
ATOM     22  H6  BTN d   1      -3.468  11.316   9.938  0.00  0.00     0.033 H 
BRANCH  20  23
ATOM     23  C9  BTN d   1      -4.617  13.136   9.914  0.00  0.00    -0.056 C 
ATOM     24  H3  BTN d   1      -4.184  13.480  10.865  0.00  0.00     0.033 H 
ATOM     25  H4  BTN d   1      -4.793  14.001   9.258  0.00  0.00     0.033 H 
BRANCH  23  26
ATOM     26  C10 BTN d   1      -5.929  12.386  10.168  0.00  0.00     0.016 C 
ATOM     27  H1  BTN d   1      -5.697  11.330  10.370  0.00  0.00     0.049 H 
ATOM     28  H2  BTN d   1      -6.423  12.827  11.046  0.00  0.00     0.049 H 
BRANCH  26  29
ATOM     29  C11 BTN d   1      -6.888  12.459   8.979  0.00  0.00     0.172 C 
ATOM     30  O11 BTN d   1      -7.943  11.763   8.924  0.00  0.00    -0.648 OA
ATOM     31  O12 BTN d   1      -6.664  13.255   8.046  0.00  0.00    -0.648 OA
ENDBRANCH  26  29
ENDBRANCH  23  26
ENDBRANCH  20  23
ENDBRANCH  17  20
ENDBRANCH   1  17
TORSDOF 5
