REMARK WARNING: 32 MAX_TORS EXCEEDED!!!
REMARK  44 active torsions:
REMARK  status: ('A' for Active; 'I' for Inactive)
REMARK    1  A    between atoms: N_1  and  CA_2 
REMARK    2  A    between atoms: CA_2  and  C_3 
REMARK    3  A    between atoms: CA_2  and  CB_5 
REMARK       I    between atoms: C_3  and  N_9 
REMARK    4  A    between atoms: CB_5  and  CG_6 
REMARK    5  A    between atoms: N_9  and  CA_10 
REMARK    6  A    between atoms: CA_10  and  C_11 
REMARK    7  A    between atoms: CA_10  and  CB_13 
REMARK       I    between atoms: C_11  and  N_16 
REMARK    8  A    between atoms: CB_13  and  OG1_14 
REMARK    9  A    between atoms: CB_13  and  CG2_15 
REMARK   10  A    between atoms: N_16  and  CA_17 
REMARK   11  A    between atoms: CA_17  and  C_18 
REMARK   12  A    between atoms: CA_17  and  CB_20 
REMARK       I    between atoms: C_18  and  N_22 
REMARK   13  A    between atoms: CB_20  and  OG_21 
REMARK   14  A    between atoms: N_22  and  CA_23 
REMARK   15  A    between atoms: CA_23  and  C_24 
REMARK   16  A    between atoms: CA_23  and  CB_26 
REMARK       I    between atoms: C_24  and  N_33 
REMARK   17  A    between atoms: CB_26  and  CG_27 
REMARK   18  A    between atoms: CG_27  and  CD_28 
REMARK   19  A    between atoms: CD_28  and  NE_29 
REMARK       I    between atoms: NE_29  and  CZ_30 
REMARK       I    between atoms: CZ_30  and  NH1_31 
REMARK   20  A    between atoms: N_33  and  CA_34 
REMARK   21  A    between atoms: CA_34  and  C_35 
REMARK   22  A    between atoms: CA_34  and  CB_37 
REMARK       I    between atoms: C_35  and  N_41 
REMARK   23  A    between atoms: CB_37  and  CG_38 
REMARK   24  A    between atoms: CG_38  and  SD_39 
REMARK   25  A    between atoms: SD_39  and  CE_40 
REMARK   26  A    between atoms: N_41  and  CA_42 
REMARK   27  A    between atoms: CA_42  and  C_43 
REMARK   28  A    between atoms: CA_42  and  CB_45 
REMARK       I    between atoms: C_43  and  N_50 
REMARK   29  A    between atoms: CB_45  and  CG_46 
REMARK   30  A    between atoms: CG_46  and  CD_47 
REMARK   31  A    between atoms: N_50  and  CA_51 
REMARK   32  A    between atoms: CA_51  and  C_52 
REMARK   33  A    between atoms: CA_51  and  CB_54 
REMARK       I    between atoms: C_52  and  N_59 
REMARK   34  A    between atoms: CB_54  and  CG_55 
REMARK   35  A    between atoms: CG_55  and  CD_56 
REMARK   36  A    between atoms: N_59  and  CA_60 
REMARK   37  A    between atoms: CA_60  and  C_61 
REMARK   38  A    between atoms: CA_60  and  CB_63 
REMARK       I    between atoms: C_61  and  N_66 
REMARK   39  A    between atoms: CB_63  and  CG1_64 
REMARK   40  A    between atoms: CB_63  and  CG2_65 
REMARK   41  A    between atoms: N_66  and  CA_67 
REMARK   42  A    between atoms: CA_67  and  C_68 
REMARK   43  A    between atoms: CA_67  and  CB_70 
REMARK   44  A    between atoms: CB_70  and  CG_71 
ROOT
ATOM      1  CA  MET d   1      12.151 -34.286  42.577  0.00  0.00     0.090 C 
ATOM      2  H33 MET d   1      12.319 -35.289  42.158  0.00  0.00     0.087 H 
ENDROOT
BRANCH   1   3
ATOM      3  N   MET d   1      11.608 -33.448  41.541  0.00  0.00    -0.346 N 
ATOM      4  C   ARG d   1      11.177 -33.996  40.417  0.00  0.00     0.241 C 
ATOM      5  O   ARG d   1      11.225 -35.201  40.218  0.00  0.00    -0.271 OA
ATOM      6  H32 MET d   1      11.557 -32.458  41.670  0.00  0.00     0.163 HD
BRANCH   4   7
ATOM      7  CA  ARG d   1      10.629 -33.041  39.362  0.00  0.00     0.089 C 
ATOM      8  H20 ARG d   1      11.462 -32.394  39.051  0.00  0.00     0.087 H 
BRANCH   7   9
ATOM      9  N   ARG d   1      10.121 -33.683  38.160  0.00  0.00    -0.346 N 
ATOM     10  C   SER d   1      10.929 -33.865  37.125  0.00  0.00     0.243 C 
ATOM     11  O   SER d   1      12.109 -33.517  37.141  0.00  0.00    -0.271 OA
ATOM     12  H19 ARG d   1       9.169 -33.985  38.115  0.00  0.00     0.163 HD
BRANCH  10  13
ATOM     13  CA  SER d   1      10.331 -34.521  35.888  0.00  0.00     0.109 C 
ATOM     14  H15 SER d   1       9.234 -34.523  35.965  0.00  0.00     0.090 H 
BRANCH  13  15
ATOM     15  N   SER d   1      10.735 -33.732  34.719  0.00  0.00    -0.344 N 
ATOM     16  C   THR d   1      10.644 -34.170  33.464  0.00  0.00     0.243 C 
ATOM     17  O   THR d   1      10.215 -35.286  33.170  0.00  0.00    -0.271 OA
ATOM     18  H14 SER d   1      11.099 -32.813  34.873  0.00  0.00     0.163 HD
BRANCH  16  19
ATOM     19  CA  THR d   1      11.112 -33.202  32.377  0.00  0.00     0.113 C 
ATOM     20  H8  THR d   1      11.707 -33.769  31.646  0.00  0.00     0.091 H 
BRANCH  19  21
ATOM     21  N   THR d   1      10.000 -32.574  31.658  0.00  0.00    -0.344 N 
ATOM     22  C   ASP d   1       9.208 -33.250  30.825  0.00  0.00     0.249 C 
ATOM     23  O   ASP d   1       9.336 -34.459  30.606  0.00  0.00    -0.271 OA
ATOM     24  H7  THR d   1       9.828 -31.599  31.798  0.00  0.00     0.163 HD
BRANCH  22  25
ATOM     25  CA  ASP d   1       8.103 -32.445  30.134  0.00  0.00     0.185 C 
ATOM     26  H4  ASP d   1       7.229 -32.393  30.800  0.00  0.00     0.100 H 
BRANCH  25  27
ATOM     27  N   ASP d   1       8.573 -31.052  29.849  0.00  0.00    -0.066 N 
ATOM     28  H1  ASP d   1       7.836 -30.535  29.395  0.00  0.00     0.275 HD
ATOM     29  H2  ASP d   1       9.380 -31.086  29.246  0.00  0.00     0.275 HD
ATOM     30  H3  ASP d   1       8.819 -30.597  30.714  0.00  0.00     0.275 HD
ENDBRANCH  25  27
BRANCH  25  31
ATOM     31  CB  ASP d   1       7.697 -33.152  28.833  0.00  0.00     0.050 C 
ATOM     32  H5  ASP d   1       7.227 -34.114  29.087  0.00  0.00     0.052 H 
ATOM     33  H6  ASP d   1       8.602 -33.333  28.234  0.00  0.00     0.052 H 
BRANCH  31  34
ATOM     34  CG  ASP d   1       6.719 -32.338  28.003  0.00  0.00     0.175 C 
ATOM     35  OD1 ASP d   1       5.641 -31.972  28.523  0.00  0.00    -0.648 OA
ATOM     36  OD2 ASP d   1       7.028 -32.071  26.823  0.00  0.00    -0.648 OA
ENDBRANCH  31  34
ENDBRANCH  25  31
ENDBRANCH  22  25
ENDBRANCH  19  21
BRANCH  19  37
ATOM     37  CB  THR d   1      12.017 -32.131  33.022  0.00  0.00     0.060 C 
ATOM     38  H9  THR d   1      11.456 -31.615  33.815  0.00  0.00     0.086 H 
BRANCH  37  39
ATOM     39  OG1 THR d   1      12.420 -31.180  32.028  0.00  0.00    -0.393 OA
ATOM     40  H10 THR d   1      12.977 -30.522  32.428  0.00  0.00     0.210 HD
ENDBRANCH  37  39
BRANCH  37  41
ATOM     41  CG2 THR d   1      13.250 -32.770  33.620  0.00  0.00    -0.050 C 
ATOM     42  H11 THR d   1      13.882 -31.993  34.074  0.00  0.00     0.031 H 
ATOM     43  H12 THR d   1      13.815 -33.287  32.830  0.00  0.00     0.031 H 
ATOM     44  H13 THR d   1      12.950 -33.495  34.391  0.00  0.00     0.031 H 
ENDBRANCH  37  41
ENDBRANCH  19  37
ENDBRANCH  16  19
ENDBRANCH  13  15
BRANCH  13  45
ATOM     45  CB  SER d   1      10.825 -35.969  35.773  0.00  0.00     0.044 C 
ATOM     46  H16 SER d   1      10.245 -36.484  34.993  0.00  0.00     0.077 H 
ATOM     47  H17 SER d   1      10.674 -36.476  36.737  0.00  0.00     0.077 H 
BRANCH  45  48
ATOM     48  OG  SER d   1      12.197 -36.021  35.436  0.00  0.00    -0.398 OA
ATOM     49  H18 SER d   1      12.704 -35.581  36.108  0.00  0.00     0.209 HD
ENDBRANCH  45  48
ENDBRANCH  13  45
ENDBRANCH  10  13
ENDBRANCH   7   9
BRANCH   7  50
ATOM     50  CB  ARG d   1       9.552 -32.156  39.977  0.00  0.00    -0.036 C 
ATOM     51  H21 ARG d   1       9.874 -31.875  40.990  0.00  0.00     0.036 H 
ATOM     52  H22 ARG d   1       8.620 -32.738  40.037  0.00  0.00     0.036 H 
BRANCH  50  53
ATOM     53  CG  ARG d   1       9.270 -30.883  39.196  0.00  0.00    -0.048 C 
ATOM     54  H23 ARG d   1       8.738 -31.134  38.267  0.00  0.00     0.035 H 
ATOM     55  H24 ARG d   1      10.220 -30.385  38.952  0.00  0.00     0.035 H 
BRANCH  53  56
ATOM     56  CD  ARG d   1       8.411 -29.951  40.035  0.00  0.00     0.009 C 
ATOM     57  H25 ARG d   1       8.898 -29.809  41.011  0.00  0.00     0.064 H 
ATOM     58  H26 ARG d   1       7.426 -30.419  40.181  0.00  0.00     0.064 H 
BRANCH  56  59
ATOM     59  NE  ARG d   1       8.217 -28.645  39.420  0.00  0.00    -0.227 N 
ATOM     60  CZ  ARG d   1       7.531 -27.651  39.980  0.00  0.00     0.665 C 
ATOM     61  NH1 ARG d   1       6.977 -27.827  41.172  0.00  0.00    -0.235 N 
ATOM     62  NH2 ARG d   1       7.396 -26.481  39.351  0.00  0.00    -0.235 N 
ATOM     63  H28 ARG d   1       6.445 -27.062  41.611  0.00  0.00     0.174 HD
ATOM     64  H29 ARG d   1       7.079 -28.729  41.659  0.00  0.00     0.174 HD
ATOM     65  H30 ARG d   1       7.825 -26.341  38.425  0.00  0.00     0.174 HD
ATOM     66  H31 ARG d   1       6.863 -25.718  39.792  0.00  0.00     0.174 HD
ATOM     67  H27 ARG d   1       8.637 -28.480  38.494  0.00  0.00     0.177 HD
ENDBRANCH  56  59
ENDBRANCH  53  56
ENDBRANCH  50  53
ENDBRANCH   7  50
ENDBRANCH   4   7
ENDBRANCH   1   3
BRANCH   1  68
ATOM     68  C   MET d   1      11.218 -34.397  43.738  0.00  0.00     0.241 C 
ATOM     69  O   MET d   1      11.246 -35.386  44.457  0.00  0.00    -0.271 OA
ATOM     70  N   GLU d   1      10.403 -33.373  43.945  0.00  0.00    -0.346 N 
ATOM     71  H41 GLU d   1      10.433 -32.585  43.331  0.00  0.00     0.163 HD
BRANCH  70  72
ATOM     72  CA  GLU d   1       9.465 -33.384  45.057  0.00  0.00     0.090 C 
ATOM     73  H42 GLU d   1       9.987 -33.708  45.969  0.00  0.00     0.087 H 
BRANCH  72  74
ATOM     74  C   GLU d   1       8.341 -34.369  44.742  0.00  0.00     0.241 C 
ATOM     75  O   GLU d   1       7.218 -34.205  45.207  0.00  0.00    -0.271 OA
ATOM     76  N   GLU d   1       8.650 -35.386  43.943  0.00  0.00    -0.346 N 
ATOM     77  H47 GLU d   1       9.581 -35.457  43.585  0.00  0.00     0.163 HD
BRANCH  76  78
ATOM     78  CA  GLU d   1       7.671 -36.401  43.574  0.00  0.00     0.090 C 
ATOM     79  H48 GLU d   1       6.743 -36.212  44.133  0.00  0.00     0.087 H 
BRANCH  78  80
ATOM     80  C   GLU d   1       8.170 -37.802  43.901  0.00  0.00     0.241 C 
ATOM     81  O   GLU d   1       9.333 -38.120  43.655  0.00  0.00    -0.271 OA
ATOM     82  N   VAL d   1       7.285 -38.632  44.452  0.00  0.00    -0.346 N 
ATOM     83  H53 VAL d   1       6.361 -38.298  44.636  0.00  0.00     0.163 HD
BRANCH  82  84
ATOM     84  CA  VAL d   1       7.616 -40.011  44.796  0.00  0.00     0.092 C 
ATOM     85  H54 VAL d   1       8.639 -40.060  45.197  0.00  0.00     0.088 H 
BRANCH  84  86
ATOM     86  C   VAL d   1       7.500 -40.827  43.527  0.00  0.00     0.241 C 
ATOM     87  O   VAL d   1       6.656 -41.709  43.435  0.00  0.00    -0.271 OA
ATOM     88  N   ASP d   1       8.342 -40.515  42.546  0.00  0.00    -0.344 N 
ATOM     89  H62 ASP d   1       9.006 -39.783  42.698  0.00  0.00     0.163 HD
BRANCH  88  90
ATOM     90  CA  ASP d   1       8.335 -41.202  41.250  0.00  0.00     0.105 C 
ATOM     91  H63 ASP d   1       9.098 -40.746  40.602  0.00  0.00     0.090 H 
BRANCH  90  92
ATOM     92  C   ASP d   1       6.957 -41.049  40.578  0.00  0.00     0.197 C 
ATOM     93  O   ASP d   1       6.411 -42.054  40.059  0.00  0.00    -0.646 OA
ATOM     94  OXT ASP d   1       6.445 -39.904  40.582  0.00  0.00    -0.646 OA
ENDBRANCH  90  92
BRANCH  90  95
ATOM     95  CB  ASP d   1       8.673 -42.686  41.441  0.00  0.00     0.044 C 
ATOM     96  H64 ASP d   1       9.124 -43.068  40.513  0.00  0.00     0.053 H 
ATOM     97  H65 ASP d   1       7.744 -43.236  41.651  0.00  0.00     0.053 H 
BRANCH  95  98
ATOM     98  CG  ASP d   1       9.638 -42.914  42.578  0.00  0.00     0.175 C 
ATOM     99  OD1 ASP d   1      10.794 -42.457  42.494  0.00  0.00    -0.648 OA
ATOM    100  OD2 ASP d   1       9.220 -43.549  43.562  0.00  0.00    -0.648 OA
ENDBRANCH  95  98
ENDBRANCH  90  95
ENDBRANCH  88  90
ENDBRANCH  84  86
BRANCH  84 101
ATOM    101  CB  VAL d   1       6.636 -40.594  45.813  0.00  0.00    -0.033 C 
ATOM    102  H55 VAL d   1       5.614 -40.501  45.417  0.00  0.00     0.042 H 
BRANCH 101 103
ATOM    103  CG1 VAL d   1       6.943 -42.048  46.038  0.00  0.00    -0.071 C 
ATOM    104  H56 VAL d   1       6.235 -42.463  46.771  0.00  0.00     0.028 H 
ATOM    105  H57 VAL d   1       7.969 -42.151  46.420  0.00  0.00     0.028 H 
ATOM    106  H58 VAL d   1       6.849 -42.594  45.088  0.00  0.00     0.028 H 
ENDBRANCH 101 103
BRANCH 101 107
ATOM    107  CG2 VAL d   1       6.725 -39.843  47.109  0.00  0.00    -0.071 C 
ATOM    108  H59 VAL d   1       6.499 -38.781  46.934  0.00  0.00     0.028 H 
ATOM    109  H60 VAL d   1       7.741 -39.938  47.519  0.00  0.00     0.028 H 
ATOM    110  H61 VAL d   1       6.000 -40.259  47.824  0.00  0.00     0.028 H 
ENDBRANCH 101 107
ENDBRANCH  84 101
ENDBRANCH  82  84
ENDBRANCH  78  80
BRANCH  78 111
ATOM    111  CB  GLU d   1       7.379 -36.337  42.084  0.00  0.00    -0.029 C 
ATOM    112  H49 GLU d   1       6.930 -35.360  41.853  0.00  0.00     0.037 H 
ATOM    113  H50 GLU d   1       6.669 -37.137  41.828  0.00  0.00     0.037 H 
BRANCH 111 114
ATOM    114  CG  GLU d   1       8.627 -36.509  41.250  0.00  0.00     0.018 C 
ATOM    115  H51 GLU d   1       9.270 -37.262  41.729  0.00  0.00     0.049 H 
ATOM    116  H52 GLU d   1       9.158 -35.547  41.208  0.00  0.00     0.049 H 
BRANCH 114 117
ATOM    117  CD  GLU d   1       8.323 -36.958  39.836  0.00  0.00     0.172 C 
ATOM    118  OE1 GLU d   1       7.427 -36.352  39.209  0.00  0.00    -0.648 OA
ATOM    119  OE2 GLU d   1       8.983 -37.907  39.353  0.00  0.00    -0.648 OA
ENDBRANCH 114 117
ENDBRANCH 111 114
ENDBRANCH  78 111
ENDBRANCH  76  78
ENDBRANCH  72  74
BRANCH  72 120
ATOM    120  CB  GLU d   1       8.891 -31.976  45.283  0.00  0.00    -0.029 C 
ATOM    121  H43 GLU d   1       8.137 -32.042  46.082  0.00  0.00     0.037 H 
ATOM    122  H44 GLU d   1       8.408 -31.654  44.349  0.00  0.00     0.037 H 
BRANCH 120 123
ATOM    123  CG  GLU d   1       9.913 -30.894  45.685  0.00  0.00     0.018 C 
ATOM    124  H45 GLU d   1       9.550 -29.922  45.320  0.00  0.00     0.049 H 
ATOM    125  H46 GLU d   1      10.874 -31.130  45.205  0.00  0.00     0.049 H 
BRANCH 123 126
ATOM    126  CD  GLU d   1      10.142 -30.787  47.193  0.00  0.00     0.172 C 
ATOM    127  OE1 GLU d   1       9.169 -30.527  47.936  0.00  0.00    -0.648 OA
ATOM    128  OE2 GLU d   1      11.298 -30.949  47.639  0.00  0.00    -0.648 OA
ENDBRANCH 123 126
ENDBRANCH 120 123
ENDBRANCH  72 120
ENDBRANCH  70  72
ENDBRANCH   1  68
BRANCH   1 129
ATOM    129  CB  MET d   1      13.465 -33.735  43.080  0.00  0.00    -0.030 C 
ATOM    130  H34 MET d   1      13.744 -34.280  43.994  0.00  0.00     0.037 H 
ATOM    131  H35 MET d   1      13.328 -32.669  43.316  0.00  0.00     0.037 H 
BRANCH 129 132
ATOM    132  CG  MET d   1      14.569 -33.860  42.106  0.00  0.00    -0.021 C 
ATOM    133  H36 MET d   1      14.762 -32.887  41.630  0.00  0.00     0.049 H 
ATOM    134  H37 MET d   1      14.308 -34.600  41.335  0.00  0.00     0.049 H 
BRANCH 132 135
ATOM    135  SD  MET d   1      15.995 -34.390  42.991  0.00  0.00    -0.173 SA
BRANCH 135 136
ATOM    136  CE  MET d   1      15.889 -36.111  42.694  0.00  0.00    -0.035 C 
ATOM    137  H38 MET d   1      16.729 -36.621  43.189  0.00  0.00     0.041 H 
ATOM    138  H39 MET d   1      15.933 -36.300  41.611  0.00  0.00     0.041 H 
ATOM    139  H40 MET d   1      14.939 -36.495  43.095  0.00  0.00     0.041 H 
ENDBRANCH 135 136
ENDBRANCH 132 135
ENDBRANCH 129 132
ENDBRANCH   1 129
TORSDOF 44
