REMARK  1 active torsions:
REMARK  status: ('A' for Active; 'I' for Inactive)
REMARK    1  A    between atoms: C11_14  and  N5_15 
ROOT
ATOM      1  O1  DBQ d   1       3.891  -1.613  20.618  0.00  0.00    -0.266 OA
ATOM      2  C5  DBQ d   1       4.682  -2.169  19.856  0.00  0.00     0.269 C 
ATOM      3  N2  DBQ d   1       5.835  -1.504  19.648  0.00  0.00    -0.355 N 
ATOM      4  C6  DBQ d   1       6.932  -1.923  18.726  0.00  0.00    -0.001 C 
ATOM      5  C7  DBQ d   1       7.257  -3.421  18.706  0.00  0.00    -0.023 C 
ATOM      6  C4  DBQ d   1       4.226  -3.442  19.155  0.00  0.00     0.111 A 
ATOM      7  N1  DBQ d   1       2.968  -3.867  19.284  0.00  0.00    -0.361 N 
ATOM      8  C1  DBQ d   1       2.868  -4.956  18.527  0.00  0.00    -0.021 A 
ATOM      9  C2  DBQ d   1       4.021  -5.195  17.919  0.00  0.00    -0.055 A 
ATOM     10  C3  DBQ d   1       4.903  -4.291  18.276  0.00  0.00     0.006 A 
ATOM     11  C8  DBQ d   1       6.233  -4.157  17.852  0.00  0.00    -0.009 C 
ATOM     12  C9  DBQ d   1       6.644  -4.653  16.577  0.00  0.00     0.151 A 
ATOM     13  N4  DBQ d   1       5.828  -5.076  15.592  0.00  0.00    -0.059 NA
ATOM     14  C11 DBQ d   1       6.578  -5.485  14.549  0.00  0.00     0.701 A 
ATOM     15  N3  DBQ d   1       7.886  -5.323  14.829  0.00  0.00    -0.153 N 
ATOM     16  C10 DBQ d   1       7.963  -4.794  16.058  0.00  0.00     0.289 A 
ATOM     17  O2  DBQ d   1       9.050  -4.480  16.564  0.00  0.00    -0.265 OA
ATOM     18  H1  DBQ d   1       5.968  -0.653  20.157  0.00  0.00     0.162 HD
ATOM     19  H2  DBQ d   1       7.844  -1.385  19.022  0.00  0.00     0.064 H 
ATOM     20  H3  DBQ d   1       6.646  -1.627  17.706  0.00  0.00     0.064 H 
ATOM     21  H4  DBQ d   1       7.228  -3.815  19.733  0.00  0.00     0.042 H 
ATOM     22  H5  DBQ d   1       8.261  -3.572  18.284  0.00  0.00     0.042 H 
ATOM     23  H6  DBQ d   1       2.225  -3.439  19.854  0.00  0.00     0.165 HD
ATOM     24  H7  DBQ d   1       1.970  -5.563  18.422  0.00  0.00     0.111 H 
ATOM     25  H8  DBQ d   1       4.208  -6.016  17.229  0.00  0.00     0.087 H 
ATOM     26  H11 DBQ d   1       8.655  -5.554  14.232  0.00  0.00     0.187 HD
ENDROOT
BRANCH  14  27
ATOM     27  N5  DBQ d   1       6.080  -5.969  13.380  0.00  0.00    -0.233 N 
ATOM     28  H9  DBQ d   1       5.062  -6.059  13.252  0.00  0.00     0.174 HD
ATOM     29  H10 DBQ d   1       6.721  -6.245  12.622  0.00  0.00     0.174 HD
ENDBRANCH  14  27
TORSDOF 1
