REMARK  5 active torsions:
REMARK  status: ('A' for Active; 'I' for Inactive)
REMARK    1  A    between atoms: C18_1  and  O17_2 
REMARK    2  A    between atoms: O17_2  and  C12_3 
REMARK    3  A    between atoms: C13_5  and  O16_6 
REMARK    4  A    between atoms: C10_9  and  C8_10 
REMARK    5  A    between atoms: C2_18  and  C19_19 
ROOT
ATOM      1  C8  ABO d   1       8.042  -3.607  17.198  0.00  0.00    -0.024 A 
ATOM      2  C9  ABO d   1       7.834  -2.515  18.084  0.00  0.00    -0.044 A 
ATOM      3  C7  ABO d   1       7.032  -4.555  16.974  0.00  0.00    -0.071 A 
ATOM      4  C6  ABO d   1       5.809  -4.426  17.651  0.00  0.00    -0.068 A 
ATOM      5  C5  ABO d   1       5.594  -3.358  18.535  0.00  0.00     0.026 A 
ATOM      6  C4  ABO d   1       6.609  -2.411  18.752  0.00  0.00     0.063 A 
ATOM      7  N3  ABO d   1       6.123  -1.509  19.646  0.00  0.00    -0.277 N 
ATOM      8  N1  ABO d   1       4.944  -1.758  19.997  0.00  0.00    -0.170 NA
ATOM      9  C2  ABO d   1       4.547  -2.917  19.395  0.00  0.00     0.135 A 
ATOM     10  H8  ABO d   1       8.611  -1.776  18.239  0.00  0.00     0.088 H 
ATOM     11  H9  ABO d   1       7.194  -5.377  16.286  0.00  0.00     0.084 H 
ATOM     12  H10 ABO d   1       5.025  -5.157  17.490  0.00  0.00     0.085 H 
ATOM     13  H11 ABO d   1       6.665  -0.707  19.998  0.00  0.00     0.189 HD
ENDROOT
BRANCH   1  14
ATOM     14  C10 ABO d   1       9.267  -3.709  16.536  0.00  0.00    -0.023 A 
ATOM     15  C11 ABO d   1       9.957  -2.538  16.146  0.00  0.00    -0.037 A 
ATOM     16  C12 ABO d   1      11.187  -2.610  15.460  0.00  0.00     0.102 A 
ATOM     17  H4  ABO d   1       9.533  -1.568  16.378  0.00  0.00     0.089 H 
ATOM     18  C13 ABO d   1      11.724  -3.868  15.177  0.00  0.00     0.099 A 
ATOM     19  C14 ABO d   1      11.067  -5.041  15.566  0.00  0.00    -0.047 A 
ATOM     20  C15 ABO d   1       9.832  -4.962  16.247  0.00  0.00    -0.069 A 
ATOM     21  H6  ABO d   1      11.505  -6.008  15.345  0.00  0.00     0.087 H 
ATOM     22  H7  ABO d   1       9.320  -5.869  16.547  0.00  0.00     0.085 H 
BRANCH  16  23
ATOM     23  O17 ABO d   1      11.893  -1.476  15.052  0.00  0.00    -0.353 OA
BRANCH  23  24
ATOM     24  C18 ABO d   1      11.231  -0.125  15.182  0.00  0.00     0.010 C 
ATOM     25  H1  ABO d   1      11.916   0.655  14.819  0.00  0.00     0.066 H 
ATOM     26  H2  ABO d   1      10.986   0.063  16.238  0.00  0.00     0.066 H 
ATOM     27  H3  ABO d   1      10.308  -0.110  14.583  0.00  0.00     0.066 H 
ENDBRANCH  23  24
ENDBRANCH  16  23
BRANCH  18  28
ATOM     28  O16 ABO d   1      12.917  -3.953  14.524  0.00  0.00    -0.358 OA
ATOM     29  H5  ABO d   1      13.148  -4.867  14.406  0.00  0.00     0.217 HD
ENDBRANCH  18  28
ENDBRANCH   1  14
BRANCH   9  30
ATOM     30  C19 ABO d   1       3.270  -3.468  19.511  0.00  0.00     0.160 A 
ATOM     31  N21 ABO d   1       2.807  -4.648  19.008  0.00  0.00    -0.337 N 
ATOM     32  C22 ABO d   1       1.483  -4.711  19.333  0.00  0.00     0.062 A 
ATOM     33  H12 ABO d   1       3.349  -5.352  18.486  0.00  0.00     0.167 HD
ATOM     34  C27 ABO d   1       0.521  -5.675  19.101  0.00  0.00    -0.055 A 
ATOM     35  C23 ABO d   1       1.125  -3.539  20.015  0.00  0.00     0.086 A 
ATOM     36  C26 ABO d   1      -0.823  -5.519  19.517  0.00  0.00    -0.081 A 
ATOM     37  H13 ABO d   1       0.805  -6.583  18.582  0.00  0.00     0.087 H 
ATOM     38  C25 ABO d   1      -1.188  -4.338  20.221  0.00  0.00    -0.081 A 
ATOM     39  H14 ABO d   1      -1.560  -6.285  19.303  0.00  0.00     0.083 H 
ATOM     40  C24 ABO d   1      -0.184  -3.342  20.474  0.00  0.00    -0.053 A 
ATOM     41  H15 ABO d   1      -2.207  -4.192  20.561  0.00  0.00     0.083 H 
ATOM     42  H16 ABO d   1      -0.439  -2.440  21.019  0.00  0.00     0.087 H 
ATOM     43  N20 ABO d   1       2.235  -2.787  20.117  0.00  0.00    -0.227 NA
ENDBRANCH   9  30
TORSDOF 5
