REMARK  19 active torsions:
REMARK  status: ('A' for Active; 'I' for Inactive)
REMARK    1  A    between atoms: C1_1  and  C7_7 
REMARK    2  A    between atoms: O1_14  and  C5_5 
REMARK    3  A    between atoms: C7_7  and  N1_8 
REMARK    4  A    between atoms: C11_10  and  O1_14 
REMARK    5  A    between atoms: C13_13  and  N4_17 
REMARK    6  A    between atoms: C15_16  and  O2_18 
REMARK    7  A    between atoms: N4_17  and  C10_31 
REMARK    8  A    between atoms: N4_17  and  C16_32 
REMARK    9  A    between atoms: O2_18  and  C21_21 
REMARK   10  A    between atoms: C22_22  and  C29_27 
REMARK   11  A    between atoms: C24_24  and  C8_30 
REMARK       I    between atoms: C8_30  and  N5_38 
REMARK   12  A    between atoms: C10_31  and  C17_33 
REMARK   13  A    between atoms: C10_31  and  C18_34 
REMARK   14  A    between atoms: C16_32  and  C19_35 
REMARK   15  A    between atoms: C16_32  and  C20_36 
REMARK   16  A    between atoms: N5_38  and  C9_39 
REMARK   17  A    between atoms: C9_39  and  C27_40 
REMARK   18  A    between atoms: C27_40  and  C28_41 
REMARK   19  A    between atoms: C27_40  and  C30_42 
ROOT
ATOM      1  C11 GIL d   1      31.854   6.529   9.751  0.00  0.00     0.214 A 
ATOM      2  C12 GIL d   1      33.029   7.320   9.975  0.00  0.00     0.199 A 
ATOM      3  N3  GIL d   1      31.386   6.272   8.504  0.00  0.00    -0.194 NA
ATOM      4  C13 GIL d   1      33.754   7.866   8.861  0.00  0.00     0.118 A 
ATOM      5  C14 GIL d   1      33.221   7.560   7.573  0.00  0.00     0.199 A 
ATOM      6  C15 GIL d   1      32.064   6.782   7.435  0.00  0.00     0.214 A 
ATOM      7  F1  GIL d   1      33.443   7.547  11.243  0.00  0.00    -0.199 F 
ATOM      8  F2  GIL d   1      33.799   8.012   6.446  0.00  0.00    -0.199 F 
ENDROOT
BRANCH   6   9
ATOM      9  O2  GIL d   1      31.658   6.587   6.118  0.00  0.00    -0.288 OA
BRANCH   9  10
ATOM     10  C21 GIL d   1      30.504   5.868   5.812  0.00  0.00     0.095 A 
ATOM     11  C22 GIL d   1      29.164   6.346   6.066  0.00  0.00     0.075 A 
ATOM     12  C23 GIL d   1      28.069   5.524   5.693  0.00  0.00    -0.048 A 
ATOM     13  C24 GIL d   1      28.282   4.247   5.077  0.00  0.00     0.033 A 
ATOM     14  H9  GIL d   1      27.057   5.867   5.876  0.00  0.00     0.086 H 
ATOM     15  C25 GIL d   1      29.611   3.801   4.845  0.00  0.00    -0.065 A 
ATOM     16  C26 GIL d   1      30.712   4.612   5.211  0.00  0.00    -0.048 A 
ATOM     17  H10 GIL d   1      29.783   2.834   4.385  0.00  0.00     0.085 H 
ATOM     18  H11 GIL d   1      31.722   4.264   5.027  0.00  0.00     0.087 H 
BRANCH  11  19
ATOM     19  C29 GIL d   1      28.898   7.671   6.699  0.00  0.00     0.212 C 
ATOM     20  O3  GIL d   1      27.776   7.772   7.454  0.00  0.00    -0.644 OA
ATOM     21  O4  GIL d   1      29.642   8.596   6.584  0.00  0.00    -0.644 OA
ENDBRANCH  11  19
BRANCH  13  22
ATOM     22  C8  GIL d   1      27.161   3.360   4.660  0.00  0.00     0.251 C 
ATOM     23  O5  GIL d   1      27.330   2.265   4.132  0.00  0.00    -0.268 OA
ATOM     24  N5  GIL d   1      25.928   3.840   4.899  0.00  0.00    -0.357 N 
ATOM     25  H26 GIL d   1      25.560   3.853   5.829  0.00  0.00     0.162 HD
BRANCH  24  26
ATOM     26  C9  GIL d   1      25.132   4.343   3.777  0.00  0.00    -0.002 C 
ATOM     27  H27 GIL d   1      25.224   3.633   2.942  0.00  0.00     0.064 H 
ATOM     28  H28 GIL d   1      25.538   5.319   3.475  0.00  0.00     0.064 H 
BRANCH  26  29
ATOM     29  C27 GIL d   1      23.633   4.520   4.101  0.00  0.00    -0.046 C 
ATOM     30  H29 GIL d   1      23.395   5.587   3.976  0.00  0.00     0.041 H 
BRANCH  29  31
ATOM     31  C28 GIL d   1      23.227   4.135   5.531  0.00  0.00    -0.072 C 
ATOM     32  H30 GIL d   1      22.147   4.296   5.661  0.00  0.00     0.028 H 
ATOM     33  H31 GIL d   1      23.780   4.758   6.250  0.00  0.00     0.028 H 
ATOM     34  H32 GIL d   1      23.464   3.075   5.707  0.00  0.00     0.028 H 
ENDBRANCH  29  31
BRANCH  29  35
ATOM     35  C30 GIL d   1      22.814   3.723   3.082  0.00  0.00    -0.072 C 
ATOM     36  H33 GIL d   1      23.116   4.010   2.064  0.00  0.00     0.028 H 
ATOM     37  H34 GIL d   1      21.744   3.939   3.222  0.00  0.00     0.028 H 
ATOM     38  H35 GIL d   1      22.993   2.648   3.228  0.00  0.00     0.028 H 
ENDBRANCH  29  35
ENDBRANCH  26  29
ENDBRANCH  24  26
ENDBRANCH  13  22
ENDBRANCH   9  10
ENDBRANCH   6   9
BRANCH   1  39
ATOM     39  O1  GIL d   1      31.111   5.969  10.800  0.00  0.00    -0.289 OA
BRANCH  39  40
ATOM     40  C5  GIL d   1      30.354   6.833  11.606  0.00  0.00     0.079 A 
ATOM     41  C4  GIL d   1      29.621   7.939  11.104  0.00  0.00    -0.050 A 
ATOM     42  C3  GIL d   1      28.889   8.763  11.982  0.00  0.00    -0.079 A 
ATOM     43  H3  GIL d   1      29.624   8.151  10.041  0.00  0.00     0.087 H 
ATOM     44  C2  GIL d   1      28.886   8.486  13.366  0.00  0.00    -0.069 A 
ATOM     45  H2  GIL d   1      28.330   9.607  11.595  0.00  0.00     0.083 H 
ATOM     46  C1  GIL d   1      29.612   7.376  13.890  0.00  0.00     0.010 A 
ATOM     47  H1  GIL d   1      28.325   9.125  14.039  0.00  0.00     0.085 H 
ATOM     48  C6  GIL d   1      30.345   6.554  12.992  0.00  0.00    -0.037 A 
ATOM     49  H4  GIL d   1      30.902   5.706  13.373  0.00  0.00     0.089 H 
BRANCH  46  50
ATOM     50  C7  GIL d   1      29.602   7.089  15.336  0.00  0.00     0.102 C 
ATOM     51  N2  GIL d   1      28.927   7.863  16.192  0.00  0.00    -0.385 N 
ATOM     52  H7  GIL d   1      28.402   8.678  15.845  0.00  0.00     0.157 HD
ATOM     53  H8  GIL d   1      28.932   7.644  17.198  0.00  0.00     0.157 HD
BRANCH  50  54
ATOM     54  N1  GIL d   1      30.289   6.019  15.810  0.00  0.00    -0.385 N 
ATOM     55  H5  GIL d   1      30.287   5.812  16.819  0.00  0.00     0.157 HD
ATOM     56  H6  GIL d   1      30.812   5.414  15.161  0.00  0.00     0.157 HD
ENDBRANCH  50  54
ENDBRANCH  46  50
ENDBRANCH  39  40
ENDBRANCH   1  39
BRANCH   4  57
ATOM     57  N4  GIL d   1      34.915   8.659   8.993  0.00  0.00    -0.368 N 
BRANCH  57  58
ATOM     58  C10 GIL d   1      34.864  10.063   8.377  0.00  0.00     0.005 C 
ATOM     59  H12 GIL d   1      34.200   9.971   7.505  0.00  0.00     0.071 H 
BRANCH  58  60
ATOM     60  C17 GIL d   1      36.183  10.633   7.818  0.00  0.00    -0.058 C 
ATOM     61  H14 GIL d   1      36.004  11.639   7.410  0.00  0.00     0.030 H 
ATOM     62  H15 GIL d   1      36.558   9.975   7.020  0.00  0.00     0.030 H 
ATOM     63  H16 GIL d   1      36.928  10.692   8.625  0.00  0.00     0.030 H 
ENDBRANCH  58  60
BRANCH  58  64
ATOM     64  C18 GIL d   1      34.183  11.054   9.334  0.00  0.00    -0.058 C 
ATOM     65  H17 GIL d   1      34.158  12.052   8.872  0.00  0.00     0.030 H 
ATOM     66  H18 GIL d   1      34.748  11.101  10.277  0.00  0.00     0.030 H 
ATOM     67  H19 GIL d   1      33.155  10.719   9.539  0.00  0.00     0.030 H 
ENDBRANCH  58  64
ENDBRANCH  57  58
BRANCH  57  68
ATOM     68  C16 GIL d   1      36.081   8.002   9.704  0.00  0.00     0.005 C 
ATOM     69  H13 GIL d   1      35.664   7.158  10.273  0.00  0.00     0.071 H 
BRANCH  68  70
ATOM     70  C19 GIL d   1      37.065   7.411   8.686  0.00  0.00    -0.058 C 
ATOM     71  H20 GIL d   1      37.904   6.939   9.218  0.00  0.00     0.030 H 
ATOM     72  H21 GIL d   1      37.447   8.213   8.037  0.00  0.00     0.030 H 
ATOM     73  H22 GIL d   1      36.550   6.657   8.072  0.00  0.00     0.030 H 
ENDBRANCH  68  70
BRANCH  68  74
ATOM     74  C20 GIL d   1      36.789   8.914  10.742  0.00  0.00    -0.058 C 
ATOM     75  H23 GIL d   1      37.618   8.363  11.209  0.00  0.00     0.030 H 
ATOM     76  H24 GIL d   1      36.068   9.217  11.516  0.00  0.00     0.030 H 
ATOM     77  H25 GIL d   1      37.182   9.809  10.237  0.00  0.00     0.030 H 
ENDBRANCH  68  74
ENDBRANCH  57  68
ENDBRANCH   4  57
TORSDOF 19
