REMARK  3 active torsions:
REMARK  status: ('A' for Active; 'I' for Inactive)
REMARK    1  A    between atoms: C2_2  and  N12_12 
REMARK    2  A    between atoms: C8_8  and  C5_5 
REMARK       I    between atoms: N12_12  and  C8_8 
REMARK       I    between atoms: N17_17  and  C19_19 
REMARK    3  A    between atoms: C19_19  and  C20_20 
ROOT
ATOM      1  O1  514 d   1     -19.171 212.447 104.513  0.00  0.00    -0.274 OA
ATOM      2  C2  514 d   1     -13.882 214.340 102.466  0.00  0.00     0.160 A 
ATOM      3  N3  514 d   1     -15.275 213.960 100.879  0.00  0.00    -0.278 N 
ATOM      4  N4  514 d   1     -14.168 214.327 101.102  0.00  0.00    -0.156 NA
ATOM      5  C14 514 d   1     -15.933 213.662 102.070  0.00  0.00     0.057 A 
ATOM      6  C15 514 d   1     -15.143 213.871 103.087  0.00  0.00     0.033 A 
ATOM      7  C16 514 d   1     -15.708 213.600 104.414  0.00  0.00     0.027 A 
ATOM      8  N17 514 d   1     -17.070 213.167 103.986  0.00  0.00    -0.342 N 
ATOM      9  C18 514 d   1     -17.266 213.182 102.501  0.00  0.00     0.038 A 
ATOM     10  C19 514 d   1     -18.043 212.797 104.882  0.00  0.00     0.216 C 
ATOM     11  H1  514 d   1     -15.689 213.874  99.940  0.00  0.00     0.189 HD
ATOM     12  H8  514 d   1     -15.738 214.501 105.044  0.00  0.00     0.072 H 
ATOM     13  H9  514 d   1     -15.165 212.802 104.941  0.00  0.00     0.072 H 
ATOM     14  H10 514 d   1     -17.485 212.178 102.108  0.00  0.00     0.074 H 
ATOM     15  H11 514 d   1     -18.066 213.875 102.202  0.00  0.00     0.074 H 
ENDROOT
BRANCH   2  16
ATOM     16  N12 514 d   1     -12.593 214.748 103.043  0.00  0.00    -0.305 N 
ATOM     17  C8  514 d   1     -12.284 214.768 104.364  0.00  0.00     0.257 C 
ATOM     18  O11 514 d   1     -13.081 214.431 105.235  0.00  0.00    -0.267 OA
ATOM     19  H6  514 d   1     -11.880 215.037 102.404  0.00  0.00     0.170 HD
BRANCH  17  20
ATOM     20  C5  514 d   1     -11.000 215.188 104.767  0.00  0.00     0.032 A 
ATOM     21  C6  514 d   1      -9.810 214.701 104.112  0.00  0.00    -0.068 A 
ATOM     22  C9  514 d   1      -8.524 215.131 104.534  0.00  0.00    -0.082 A 
ATOM     23  H2  514 d   1      -9.899 214.000 103.290  0.00  0.00     0.085 H 
ATOM     24  C13 514 d   1      -8.397 216.049 105.611  0.00  0.00    -0.083 A 
ATOM     25  H4  514 d   1      -7.638 214.758 104.034  0.00  0.00     0.083 H 
ATOM     26  C10 514 d   1      -9.565 216.544 106.274  0.00  0.00    -0.082 A 
ATOM     27  H7  514 d   1      -7.414 216.375 105.931  0.00  0.00     0.083 H 
ATOM     28  C7  514 d   1     -10.855 216.119 105.858  0.00  0.00    -0.068 A 
ATOM     29  H5  514 d   1      -9.465 217.245 107.095  0.00  0.00     0.083 H 
ATOM     30  H3  514 d   1     -11.736 216.497 106.364  0.00  0.00     0.085 H 
ENDBRANCH  17  20
ENDBRANCH   2  16
BRANCH  10  31
ATOM     31  C20 514 d   1     -17.733 212.824 106.384  0.00  0.00    -0.003 C 
ATOM     32  H12 514 d   1     -16.695 213.155 106.538  0.00  0.00     0.040 H 
ATOM     33  H13 514 d   1     -17.862 211.815 106.803  0.00  0.00     0.040 H 
ATOM     34  H14 514 d   1     -18.419 213.521 106.888  0.00  0.00     0.040 H 
ENDBRANCH  10  31
TORSDOF 3
