REMARK  6 active torsions:
REMARK  status: ('A' for Active; 'I' for Inactive)
REMARK    1  A    between atoms: C1_1  and  C2_4 
REMARK    2  A    between atoms: C2_4  and  C3_5 
REMARK    3  A    between atoms: C3_5  and  O7_6 
REMARK    4  A    between atoms: C3_5  and  C4_7 
REMARK    5  A    between atoms: C3_5  and  C6_11 
REMARK    6  A    between atoms: C4_7  and  C5_8 
ROOT
ATOM      1  C3  CIT d   1      96.993 -24.146  87.744  0.00  0.00     0.164 C 
ENDROOT
BRANCH   1   2
ATOM      2  C2  CIT d   1      96.370 -24.025  86.366  0.00  0.00     0.054 C 
ATOM      3  H1  CIT d   1      95.907 -24.998  86.146  0.00  0.00     0.054 H 
ATOM      4  H2  CIT d   1      95.588 -23.256  86.444  0.00  0.00     0.054 H 
BRANCH   2   5
ATOM      5  C1  CIT d   1      97.203 -23.667  85.163  0.00  0.00     0.176 C 
ATOM      6  O1  CIT d   1      98.437 -23.640  85.266  0.00  0.00    -0.648 OA
ATOM      7  O2  CIT d   1      96.647 -23.340  84.038  0.00  0.00    -0.648 OA
ENDBRANCH   2   5
ENDBRANCH   1   2
BRANCH   1   8
ATOM      8  O7  CIT d   1      95.834 -24.518  88.593  0.00  0.00    -0.378 OA
ATOM      9  H3  CIT d   1      95.465 -25.337  88.283  0.00  0.00     0.211 HD
ENDBRANCH   1   8
BRANCH   1  10
ATOM     10  C4  CIT d   1      97.707 -22.861  88.273  0.00  0.00     0.054 C 
ATOM     11  H4  CIT d   1      98.519 -22.613  87.574  0.00  0.00     0.054 H 
ATOM     12  H5  CIT d   1      98.132 -23.092  89.261  0.00  0.00     0.054 H 
BRANCH  10  13
ATOM     13  C5  CIT d   1      96.822 -21.630  88.420  0.00  0.00     0.176 C 
ATOM     14  O3  CIT d   1      96.499 -20.925  87.424  0.00  0.00    -0.648 OA
ATOM     15  O4  CIT d   1      96.325 -21.382  89.545  0.00  0.00    -0.648 OA
ENDBRANCH  10  13
ENDBRANCH   1  10
BRANCH   1  16
ATOM     16  C6  CIT d   1      97.970 -25.329  87.797  0.00  0.00     0.210 C 
ATOM     17  O5  CIT d   1      99.203 -25.158  88.118  0.00  0.00    -0.646 OA
ATOM     18  O6  CIT d   1      97.504 -26.477  87.565  0.00  0.00    -0.646 OA
ENDBRANCH   1  16
TORSDOF 6
