REMARK  3 active torsions:
REMARK  status: ('A' for Active; 'I' for Inactive)
REMARK    1  A    between atoms: S_2  and  N4_4 
REMARK    2  A    between atoms: S_2  and  C1_10 
REMARK    3  A    between atoms: N4_4  and  C14_5 
ROOT
ATOM      1  C1  GAJ d   1      31.481  57.997 111.980  0.00  0.00     0.081 A 
ATOM      2  C   GAJ d   1      32.550  58.433 112.761  0.00  0.00    -0.044 A 
ATOM      3  C2  GAJ d   1      30.262  57.682 112.585  0.00  0.00    -0.058 A 
ATOM      4  C3  GAJ d   1      30.116  57.766 113.963  0.00  0.00    -0.048 A 
ATOM      5  C4  GAJ d   1      31.163  58.183 114.764  0.00  0.00     0.090 A 
ATOM      6  O7  GAJ d   1      30.957  58.293 116.111  0.00  0.00    -0.309 OA
ATOM      7  C6  GAJ d   1      31.964  58.675 116.935  0.00  0.00     0.090 A 
ATOM      8  C8  GAJ d   1      31.726  58.776 118.360  0.00  0.00    -0.049 A 
ATOM      9  C9  GAJ d   1      32.723  59.186 119.177  0.00  0.00    -0.080 A 
ATOM     10  C10 GAJ d   1      33.923  59.562 118.728  0.00  0.00    -0.082 A 
ATOM     11  C11 GAJ d   1      34.286  59.445 117.436  0.00  0.00    -0.066 A 
ATOM     12  C12 GAJ d   1      33.290  59.027 116.439  0.00  0.00     0.049 A 
ATOM     13  C13 GAJ d   1      33.553  59.005 114.991  0.00  0.00     0.198 A 
ATOM     14  C5  GAJ d   1      32.444  58.539 114.135  0.00  0.00     0.050 A 
ATOM     15  O   GAJ d   1      34.692  59.283 114.529  0.00  0.00    -0.286 OA
ATOM     16  H3  GAJ d   1      33.486  58.695 112.280  0.00  0.00     0.087 H 
ATOM     17  H4  GAJ d   1      29.423  57.369 111.974  0.00  0.00     0.086 H 
ATOM     18  H5  GAJ d   1      29.168  57.501 114.417  0.00  0.00     0.087 H 
ATOM     19  H6  GAJ d   1      30.754  58.524 118.769  0.00  0.00     0.087 H 
ATOM     20  H7  GAJ d   1      32.539  59.211 120.245  0.00  0.00     0.083 H 
ATOM     21  H8  GAJ d   1      34.634  59.978 119.432  0.00  0.00     0.083 H 
ATOM     22  H9  GAJ d   1      35.305  59.657 117.134  0.00  0.00     0.085 H 
ENDROOT
BRANCH   1  23
ATOM     23  S   GAJ d   1      31.647  58.005 110.262  0.00  0.00     0.276 S 
ATOM     24  O2  GAJ d   1      33.087  57.878 109.887  0.00  0.00    -0.200 OA
ATOM     25  O1  GAJ d   1      31.114  59.334 109.889  0.00  0.00    -0.200 OA
BRANCH  23  26
ATOM     26  N4  GAJ d   1      30.626  56.870 109.583  0.00  0.00    -0.108 N 
ATOM     27  H1  GAJ d   1      29.831  57.165 109.053  0.00  0.00     0.198 HD
BRANCH  26  28
ATOM     28  C14 GAJ d   1      30.875  55.566 109.750  0.00  0.00     0.751 A 
ATOM     29  N   GAJ d   1      31.764  55.015 110.570  0.00  0.00    -0.085 N 
ATOM     30  N1  GAJ d   1      31.565  53.674 110.368  0.00  0.00    -0.033 NA
ATOM     31  H2  GAJ d   1      32.434  55.479 111.199  0.00  0.00     0.210 HD
ATOM     32  N2  GAJ d   1      30.658  53.478 109.481  0.00  0.00    -0.008 NA
ATOM     33  N3  GAJ d   1      30.226  54.686 109.069  0.00  0.00     0.065 NA
ENDBRANCH  26  28
ENDBRANCH  23  26
ENDBRANCH   1  23
TORSDOF 3
