REMARK  4 active torsions:
REMARK  status: ('A' for Active; 'I' for Inactive)
REMARK    1  A    between atoms: C3_2  and  O3_3 
REMARK    2  A    between atoms: C4_4  and  O4_5 
REMARK    3  A    between atoms: C_8  and  C1_12 
REMARK    4  A    between atoms: C1_12  and  O30_10 
ROOT
ATOM      1  C2  FA1 d   1       1.283  19.093  65.797  0.00  0.00     0.003 C 
ATOM      2  C3  FA1 d   1       1.979  18.589  67.052  0.00  0.00     0.067 C 
ATOM      3  C4  FA1 d   1       1.999  17.042  67.036  0.00  0.00     0.076 C 
ATOM      4  C5  FA1 d   1       2.306  16.417  65.677  0.00  0.00    -0.074 C 
ATOM      5  C6  FA1 d   1       2.373  17.162  64.582  0.00  0.00    -0.061 C 
ATOM      6  C1  FA1 d   1       2.158  18.651  64.614  0.00  0.00     0.166 C 
ATOM      7  H1  FA1 d   1       1.200  20.190  65.821  0.00  0.00     0.042 H 
ATOM      8  H2  FA1 d   1       0.279  18.651  65.714  0.00  0.00     0.042 H 
ATOM      9  H3  FA1 d   1       3.012  18.965  67.073  0.00  0.00     0.087 H 
ATOM     10  H5  FA1 d   1       1.024  16.654  67.365  0.00  0.00     0.093 H 
ATOM     11  H7  FA1 d   1       2.473  15.343  65.606  0.00  0.00     0.080 H 
ATOM     12  H8  FA1 d   1       2.591  16.681  63.630  0.00  0.00     0.082 H 
ENDROOT
BRANCH   6  13
ATOM     13  C   FA1 d   1       1.323  18.989  63.440  0.00  0.00     0.213 C 
ATOM     14  O1  FA1 d   1       0.126  19.357  63.649  0.00  0.00    -0.645 OA
ATOM     15  O2  FA1 d   1       1.832  18.959  62.287  0.00  0.00    -0.645 OA
ENDBRANCH   6  13
BRANCH   6  16
ATOM     16  O30 FA1 d   1       3.363  19.471  64.589  0.00  0.00    -0.375 OA
ATOM     17  H9  FA1 d   1       3.851  19.291  63.794  0.00  0.00     0.211 HD
ENDBRANCH   6  16
BRANCH   2  18
ATOM     18  O3  FA1 d   1       1.285  19.059  68.204  0.00  0.00    -0.393 OA
ATOM     19  H4  FA1 d   1       1.722  18.743  68.986  0.00  0.00     0.210 HD
ENDBRANCH   2  18
BRANCH   3  20
ATOM     20  O4  FA1 d   1       2.994  16.765  68.020  0.00  0.00    -0.389 OA
ATOM     21  H6  FA1 d   1       2.723  17.130  68.854  0.00  0.00     0.210 HD
ENDBRANCH   3  20
TORSDOF 4
