REMARK  8 active torsions:
REMARK  status: ('A' for Active; 'I' for Inactive)
REMARK    1  A    between atoms: C2_3  and  N7_14 
REMARK    2  A    between atoms: C4_5  and  C5A_7 
REMARK    3  A    between atoms: C1A_8  and  C6A_12 
REMARK    4  A    between atoms: C3A_10  and  C7A_13 
REMARK    5  A    between atoms: N7_14  and  C1B_15 
REMARK    6  A    between atoms: C4B_18  and  N7B_21 
REMARK    7  A    between atoms: N7B_21  and  C8B_22 
REMARK    8  A    between atoms: N7B_21  and  C9B_23 
ROOT
ATOM      1  C6  CK8 d   1       5.188  51.113   2.554  0.00  0.00     0.023 A 
ATOM      2  N1  CK8 d   1       3.951  51.393   2.985  0.00  0.00    -0.075 NA
ATOM      3  C2  CK8 d   1       3.006  50.421   2.844  0.00  0.00     0.727 A 
ATOM      4  N3  CK8 d   1       3.285  49.227   2.318  0.00  0.00    -0.061 NA
ATOM      5  C4  CK8 d   1       4.495  48.895   1.913  0.00  0.00     0.096 A 
ATOM      6  C5  CK8 d   1       5.504  49.849   2.050  0.00  0.00    -0.036 A 
ATOM      7  H1  CK8 d   1       5.955  51.878   2.597  0.00  0.00     0.115 H 
ATOM      8  H2  CK8 d   1       6.523  49.612   1.768  0.00  0.00     0.089 H 
ENDROOT
BRANCH   3   9
ATOM      9  N7  CK8 d   1       1.719  50.681   3.196  0.00  0.00    -0.188 N 
ATOM     10  H9  CK8 d   1       1.585  51.632   3.569  0.00  0.00     0.184 HD
BRANCH   9  11
ATOM     11  C1B CK8 d   1       0.568  49.950   3.160  0.00  0.00     0.049 A 
ATOM     12  C2B CK8 d   1      -0.547  50.604   3.660  0.00  0.00    -0.054 A 
ATOM     13  C3B CK8 d   1      -1.795  50.007   3.728  0.00  0.00    -0.055 A 
ATOM     14  H10 CK8 d   1      -0.438  51.623   4.012  0.00  0.00     0.087 H 
ATOM     15  C4B CK8 d   1      -1.957  48.719   3.262  0.00  0.00     0.029 A 
ATOM     16  H11 CK8 d   1      -2.637  50.548   4.144  0.00  0.00     0.087 H 
ATOM     17  C5B CK8 d   1      -0.848  48.045   2.757  0.00  0.00    -0.055 A 
ATOM     18  C6B CK8 d   1       0.415  48.639   2.721  0.00  0.00    -0.054 A 
ATOM     19  H12 CK8 d   1      -0.968  47.035   2.383  0.00  0.00     0.087 H 
ATOM     20  H13 CK8 d   1       1.270  48.083   2.354  0.00  0.00     0.087 H 
BRANCH  15  21
ATOM     21  N7B CK8 d   1      -3.191  48.156   3.338  0.00  0.00    -0.390 N 
BRANCH  21  22
ATOM     22  C8B CK8 d   1      -3.418  46.797   2.874  0.00  0.00    -0.019 C 
ATOM     23  H14 CK8 d   1      -4.475  46.531   3.022  0.00  0.00     0.056 H 
ATOM     24  H15 CK8 d   1      -2.783  46.104   3.445  0.00  0.00     0.056 H 
ATOM     25  H16 CK8 d   1      -3.168  46.728   1.805  0.00  0.00     0.056 H 
ENDBRANCH  21  22
BRANCH  21  26
ATOM     26  C9B CK8 d   1      -4.313  48.908   3.882  0.00  0.00    -0.019 C 
ATOM     27  H17 CK8 d   1      -3.971  49.909   4.184  0.00  0.00     0.056 H 
ATOM     28  H18 CK8 d   1      -4.718  48.380   4.757  0.00  0.00     0.056 H 
ATOM     29  H19 CK8 d   1      -5.096  49.003   3.116  0.00  0.00     0.056 H 
ENDBRANCH  21  26
ENDBRANCH  15  21
ENDBRANCH   9  11
ENDBRANCH   3   9
BRANCH   5  30
ATOM     30  C5A CK8 d   1       4.683  47.616   1.391  0.00  0.00     0.060 A 
ATOM     31  C1A CK8 d   1       6.016  47.208   0.948  0.00  0.00     0.051 A 
ATOM     32  N2A CK8 d   1       6.056  45.962   0.459  0.00  0.00    -0.250 NA
ATOM     33  C3A CK8 d   1       4.843  45.422   0.552  0.00  0.00     0.072 A 
ATOM     34  S4A CK8 d   1       3.577  46.360   1.185  0.00  0.00    -0.071 SA
BRANCH  31  35
ATOM     35  C6A CK8 d   1       7.291  47.977   0.950  0.00  0.00    -0.034 C 
ATOM     36  H3  CK8 d   1       8.098  47.350   0.542  0.00  0.00     0.035 H 
ATOM     37  H4  CK8 d   1       7.540  48.271   1.980  0.00  0.00     0.035 H 
ATOM     38  H5  CK8 d   1       7.177  48.878   0.329  0.00  0.00     0.035 H 
ENDBRANCH  31  35
BRANCH  33  39
ATOM     39  C7A CK8 d   1       4.659  44.025   0.027  0.00  0.00    -0.029 C 
ATOM     40  H6  CK8 d   1       5.626  43.635  -0.325  0.00  0.00     0.036 H 
ATOM     41  H7  CK8 d   1       3.943  44.038  -0.808  0.00  0.00     0.036 H 
ATOM     42  H8  CK8 d   1       4.274  43.379   0.830  0.00  0.00     0.036 H 
ENDBRANCH  33  39
ENDBRANCH   5  30
TORSDOF 8
