REMARK  3 active torsions:
REMARK  status: ('A' for Active; 'I' for Inactive)
REMARK    1  A    between atoms: C7A_1  and  C3A_2 
REMARK    2  A    between atoms: C1A_5  and  C6A_6 
REMARK    3  A    between atoms: C2_13  and  N7_14 
ROOT
ATOM      1  C3A CK2 d   1       4.181  45.991   0.843  0.00  0.00     0.072 A 
ATOM      2  S4A CK2 d   1       3.016  46.895   1.701  0.00  0.00    -0.071 SA
ATOM      3  N2A CK2 d   1       5.382  46.536   0.591  0.00  0.00    -0.250 NA
ATOM      4  C1A CK2 d   1       5.457  47.779   1.093  0.00  0.00     0.051 A 
ATOM      5  C5A CK2 d   1       4.181  48.175   1.749  0.00  0.00     0.060 A 
ATOM      6  C4  CK2 d   1       3.948  49.409   2.341  0.00  0.00     0.096 A 
ATOM      7  N3  CK2 d   1       2.773  49.644   2.939  0.00  0.00    -0.062 NA
ATOM      8  C5  CK2 d   1       4.938  50.387   2.338  0.00  0.00    -0.036 A 
ATOM      9  C6  CK2 d   1       4.657  51.608   2.944  0.00  0.00     0.023 A 
ATOM     10  N1  CK2 d   1       3.461  51.791   3.518  0.00  0.00    -0.075 NA
ATOM     11  C2  CK2 d   1       2.532  50.828   3.513  0.00  0.00     0.720 A 
ATOM     12  H7  CK2 d   1       5.901  50.203   1.876  0.00  0.00     0.089 H 
ATOM     13  H8  CK2 d   1       5.397  52.401   2.951  0.00  0.00     0.115 H 
ENDROOT
BRANCH   4  14
ATOM     14  C6A CK2 d   1       6.749  48.505   0.848  0.00  0.00    -0.034 C 
ATOM     15  H4  CK2 d   1       6.698  49.506   1.300  0.00  0.00     0.035 H 
ATOM     16  H5  CK2 d   1       6.917  48.600  -0.235  0.00  0.00     0.035 H 
ATOM     17  H6  CK2 d   1       7.578  47.940   1.299  0.00  0.00     0.035 H 
ENDBRANCH   4  14
BRANCH   1  18
ATOM     18  C7A CK2 d   1       3.884  44.587   0.406  0.00  0.00    -0.029 C 
ATOM     19  H1  CK2 d   1       4.754  44.178  -0.128  0.00  0.00     0.036 H 
ATOM     20  H2  CK2 d   1       3.010  44.588  -0.263  0.00  0.00     0.036 H 
ATOM     21  H3  CK2 d   1       3.670  43.966   1.288  0.00  0.00     0.036 H 
ENDBRANCH   1  18
BRANCH  11  22
ATOM     22  N7  CK2 d   1       1.267  51.078   4.068  0.00  0.00    -0.231 N 
ATOM     23  H9  CK2 d   1       0.549  50.340   4.066  0.00  0.00     0.174 HD
ATOM     24  H10 CK2 d   1       1.057  52.000   4.477  0.00  0.00     0.174 HD
ENDBRANCH  11  22
TORSDOF 3
