REMARK  6 active torsions:
REMARK  status: ('A' for Active; 'I' for Inactive)
REMARK    1  A    between atoms: N_5  and  C2_6 
REMARK    2  A    between atoms: C2_6  and  C3_7 
REMARK    3  A    between atoms: C5_12  and  C7_13 
REMARK    4  A    between atoms: C10_18  and  N5_19 
REMARK    5  A    between atoms: N5_19  and  C11_20 
REMARK    6  A    between atoms: C15_25  and  N6_26 
ROOT
ATOM      1  C7  MTW d   1       4.679  48.972   2.306  0.00  0.00     0.087 A 
ATOM      2  N3  MTW d   1       3.369  49.071   2.616  0.00  0.00    -0.062 NA
ATOM      3  C8  MTW d   1       5.563  49.992   2.651  0.00  0.00    -0.036 A 
ATOM      4  C9  MTW d   1       4.984  51.100   3.275  0.00  0.00     0.023 A 
ATOM      5  N4  MTW d   1       3.686  51.187   3.542  0.00  0.00    -0.075 NA
ATOM      6  C10 MTW d   1       2.866  50.164   3.226  0.00  0.00     0.727 A 
ATOM      7  H9  MTW d   1       6.626  49.930   2.449  0.00  0.00     0.089 H 
ATOM      8  H10 MTW d   1       5.625  51.928   3.555  0.00  0.00     0.115 H 
ENDROOT
BRANCH   1   9
ATOM      9  C5  MTW d   1       5.181  47.812   1.729  0.00  0.00    -0.006 A 
ATOM     10  C4  MTW d   1       4.422  46.646   1.668  0.00  0.00    -0.063 A 
ATOM     11  C3  MTW d   1       4.960  45.489   1.127  0.00  0.00    -0.037 A 
ATOM     12  H5  MTW d   1       3.406  46.643   2.045  0.00  0.00     0.085 H 
ATOM     13  C17 MTW d   1       6.279  45.502   0.704  0.00  0.00    -0.075 A 
ATOM     14  C18 MTW d   1       7.034  46.673   0.756  0.00  0.00    -0.082 A 
ATOM     15  H6  MTW d   1       6.730  44.591   0.328  0.00  0.00     0.084 H 
ATOM     16  C6  MTW d   1       6.506  47.825   1.320  0.00  0.00    -0.071 A 
ATOM     17  H7  MTW d   1       8.040  46.683   0.353  0.00  0.00     0.083 H 
ATOM     18  H8  MTW d   1       7.115  48.714   1.438  0.00  0.00     0.084 H 
BRANCH  11  19
ATOM     19  C2  MTW d   1       4.193  44.169   1.114  0.00  0.00     0.042 C 
ATOM     20  H3  MTW d   1       4.901  43.347   1.297  0.00  0.00     0.074 H 
ATOM     21  H4  MTW d   1       3.441  44.190   1.916  0.00  0.00     0.074 H 
BRANCH  19  22
ATOM     22  N   MTW d   1       3.516  43.930  -0.158  0.00  0.00    -0.258 N 
ATOM     23  C   MTW d   1       2.936  44.892  -0.880  0.00  0.00     0.084 A 
ATOM     24  N1  MTW d   1       2.400  44.251  -1.914  0.00  0.00    -0.234 NA
ATOM     25  H1  MTW d   1       2.908  45.960  -0.669  0.00  0.00     0.146 H 
ATOM     26  C1  MTW d   1       2.667  42.948  -1.754  0.00  0.00     0.107 A 
ATOM     27  N2  MTW d   1       3.373  42.799  -0.632  0.00  0.00    -0.164 NA
ATOM     28  H2  MTW d   1       2.360  42.147  -2.425  0.00  0.00     0.149 H 
ENDBRANCH  19  22
ENDBRANCH  11  19
ENDBRANCH   1   9
BRANCH   6  29
ATOM     29  N5  MTW d   1       1.555  50.269   3.464  0.00  0.00    -0.188 N 
ATOM     30  H11 MTW d   1       1.234  51.081   4.011  0.00  0.00     0.184 HD
BRANCH  29  31
ATOM     31  C11 MTW d   1       0.624  49.396   3.044  0.00  0.00     0.051 A 
ATOM     32  C14 MTW d   1       0.960  48.157   2.506  0.00  0.00    -0.025 A 
ATOM     33  C15 MTW d   1      -0.023  47.239   2.129  0.00  0.00     0.105 A 
ATOM     34  H12 MTW d   1       2.005  47.899   2.377  0.00  0.00     0.090 H 
ATOM     35  C16 MTW d   1      -1.364  47.597   2.264  0.00  0.00    -0.051 A 
ATOM     36  C13 MTW d   1      -1.733  48.848   2.745  0.00  0.00    -0.079 A 
ATOM     37  H15 MTW d   1      -2.134  46.886   1.988  0.00  0.00     0.087 H 
ATOM     38  C12 MTW d   1      -0.730  49.729   3.132  0.00  0.00    -0.057 A 
ATOM     39  H14 MTW d   1      -2.777  49.130   2.817  0.00  0.00     0.083 H 
ATOM     40  H13 MTW d   1      -1.007  50.705   3.514  0.00  0.00     0.086 H 
BRANCH  33  41
ATOM     41  N6  MTW d   1       0.291  46.039   1.607  0.00  0.00    -0.116 N 
ATOM     42  O2  MTW d   1      -0.724  45.282   0.932  0.00  0.00    -0.532 OA
ATOM     43  O1  MTW d   1       1.629  45.493   1.627  0.00  0.00    -0.532 OA
ENDBRANCH  33  41
ENDBRANCH  29  31
ENDBRANCH   6  29
TORSDOF 6
