REMARK  4 active torsions:
REMARK  status: ('A' for Active; 'I' for Inactive)
REMARK    1  A    between atoms: C3_4  and  C7_8 
REMARK    2  A    between atoms: C9_10  and  N4_17 
REMARK    3  A    between atoms: N4_17  and  C13_18 
REMARK    4  A    between atoms: C13_18  and  C14_19 
ROOT
ATOM      1  C7  CT6 d   1      12.962  -8.515  10.551  0.00  0.00     0.073 A 
ATOM      2  C8  CT6 d   1      11.768  -9.244  10.428  0.00  0.00    -0.010 A 
ATOM      3  C9  CT6 d   1      11.351 -10.049  11.492  0.00  0.00     0.129 A 
ATOM      4  N2  CT6 d   1      12.130 -10.131  12.592  0.00  0.00    -0.200 N 
ATOM      5  N3  CT6 d   1      11.918 -10.803  13.711  0.00  0.00    -0.177 NA
ATOM      6  C12 CT6 d   1      12.955 -10.524  14.567  0.00  0.00     0.026 A 
ATOM      7  C10 CT6 d   1      13.239  -9.403  12.703  0.00  0.00     0.155 A 
ATOM      8  C11 CT6 d   1      13.801  -9.637  13.922  0.00  0.00    -0.018 A 
ATOM      9  N1  CT6 d   1      13.680  -8.601  11.685  0.00  0.00    -0.229 NA
ATOM     10  H5  CT6 d   1      11.175  -9.183   9.517  0.00  0.00     0.093 H 
ATOM     11  H6  CT6 d   1      13.088 -10.927  15.570  0.00  0.00     0.117 H 
ATOM     12  H7  CT6 d   1      14.726  -9.213  14.310  0.00  0.00     0.091 H 
ENDROOT
BRANCH   3  13
ATOM     13  N4  CT6 d   1      10.151 -10.806  11.404  0.00  0.00    -0.370 N 
ATOM     14  H8  CT6 d   1      10.072 -11.700  11.909  0.00  0.00     0.161 HD
BRANCH  13  15
ATOM     15  C13 CT6 d   1       9.025 -10.321  10.599  0.00  0.00     0.018 C 
ATOM     16  H9  CT6 d   1       9.263  -9.327  10.193  0.00  0.00     0.071 H 
ATOM     17  H10 CT6 d   1       8.124 -10.254  11.227  0.00  0.00     0.071 H 
BRANCH  15  18
ATOM     18  C14 CT6 d   1       8.778 -11.293   9.456  0.00  0.00    -0.038 A 
ATOM     19  C15 CT6 d   1       9.001 -12.653   9.639  0.00  0.00    -0.058 A 
ATOM     20  C16 CT6 d   1       8.801 -13.538   8.575  0.00  0.00     0.002 A 
ATOM     21  H11 CT6 d   1       9.329 -13.026  10.603  0.00  0.00     0.086 H 
ATOM     22  N5  CT6 d   1       8.378 -13.075   7.367  0.00  0.00    -0.273 NA
ATOM     23  H12 CT6 d   1       8.984 -14.598   8.713  0.00  0.00     0.114 H 
ATOM     24  C17 CT6 d   1       8.138 -11.733   7.180  0.00  0.00     0.002 A 
ATOM     25  C18 CT6 d   1       8.339 -10.829   8.223  0.00  0.00    -0.058 A 
ATOM     26  H13 CT6 d   1       7.791 -11.377   6.217  0.00  0.00     0.114 H 
ATOM     27  H14 CT6 d   1       8.154  -9.772   8.072  0.00  0.00     0.086 H 
ENDBRANCH  15  18
ENDBRANCH  13  15
ENDBRANCH   3  13
BRANCH   1  28
ATOM     28  C3  CT6 d   1      13.435  -7.658   9.429  0.00  0.00    -0.006 A 
ATOM     29  C2  CT6 d   1      13.634  -8.229   8.149  0.00  0.00    -0.054 A 
ATOM     30  C1  CT6 d   1      14.073  -7.441   7.090  0.00  0.00     0.011 A 
ATOM     31  H1  CT6 d   1      13.444  -9.285   7.993  0.00  0.00     0.086 H 
ATOM     32 BR1  CT6 d   1      14.362  -8.230   5.387  0.00  0.00    -0.051 Br
ATOM     33  C6  CT6 d   1      14.345  -6.070   7.297  0.00  0.00    -0.066 A 
ATOM     34  C5  CT6 d   1      14.159  -5.495   8.572  0.00  0.00    -0.081 A 
ATOM     35  H4  CT6 d   1      14.697  -5.458   6.474  0.00  0.00     0.085 H 
ATOM     36  C4  CT6 d   1      13.691  -6.287   9.637  0.00  0.00    -0.071 A 
ATOM     37  H3  CT6 d   1      14.376  -4.445   8.731  0.00  0.00     0.083 H 
ATOM     38  H2  CT6 d   1      13.528  -5.845  10.613  0.00  0.00     0.084 H 
ENDBRANCH   1  28
TORSDOF 4
