REMARK  4 active torsions:
REMARK  status: ('A' for Active; 'I' for Inactive)
REMARK    1  A    between atoms: C3_4  and  C7_8 
REMARK    2  A    between atoms: C9_10  and  N4_16 
REMARK    3  A    between atoms: N4_16  and  C13_17 
REMARK    4  A    between atoms: C13_17  and  C14_18 
ROOT
ATOM      1  C7  CT8 d   1      13.020  -8.665  10.884  0.00  0.00     0.090 A 
ATOM      2  C8  CT8 d   1      11.840  -9.409  10.712  0.00  0.00    -0.009 A 
ATOM      3  C9  CT8 d   1      11.390 -10.206  11.789  0.00  0.00     0.144 A 
ATOM      4  N2  CT8 d   1      12.124 -10.248  12.923  0.00  0.00    -0.065 N 
ATOM      5  N3  CT8 d   1      11.901 -10.924  14.023  0.00  0.00    -0.271 N 
ATOM      6  C12 CT8 d   1      12.897 -10.618  14.897  0.00  0.00     0.098 A 
ATOM      7  C10 CT8 d   1      13.239  -9.556  13.051  0.00  0.00     0.751 A 
ATOM      8  N1  CT8 d   1      13.692  -8.741  12.068  0.00  0.00    -0.060 NA
ATOM      9  N11 CT8 d   1      13.744  -9.765  14.266  0.00  0.00    -0.055 NA
ATOM     10  H5  CT8 d   1      11.290  -9.373   9.779  0.00  0.00     0.093 H 
ATOM     11  H6  CT8 d   1      11.116 -11.569  14.194  0.00  0.00     0.189 HD
ATOM     12  H7  CT8 d   1      12.997 -10.989  15.916  0.00  0.00     0.146 H 
ENDROOT
BRANCH   3  13
ATOM     13  N4  CT8 d   1      10.194 -10.947  11.697  0.00  0.00    -0.370 N 
ATOM     14  H8  CT8 d   1      10.099 -11.835  12.211  0.00  0.00     0.161 HD
BRANCH  13  15
ATOM     15  C13 CT8 d   1       9.092 -10.461  10.878  0.00  0.00     0.018 C 
ATOM     16  H9  CT8 d   1       9.359  -9.489  10.438  0.00  0.00     0.071 H 
ATOM     17  H10 CT8 d   1       8.191 -10.348  11.499  0.00  0.00     0.071 H 
BRANCH  15  18
ATOM     18  C14 CT8 d   1       8.827 -11.459   9.779  0.00  0.00    -0.038 A 
ATOM     19  C15 CT8 d   1       8.829 -12.820  10.059  0.00  0.00    -0.058 A 
ATOM     20  C16 CT8 d   1       8.609 -13.735   9.040  0.00  0.00     0.002 A 
ATOM     21  H11 CT8 d   1       9.002 -13.166  11.072  0.00  0.00     0.086 H 
ATOM     22  N5  CT8 d   1       8.386 -13.302   7.777  0.00  0.00    -0.273 NA
ATOM     23  H12 CT8 d   1       8.616 -14.797   9.255  0.00  0.00     0.114 H 
ATOM     24  C17 CT8 d   1       8.365 -11.966   7.489  0.00  0.00     0.002 A 
ATOM     25  C18 CT8 d   1       8.600 -11.027   8.487  0.00  0.00    -0.058 A 
ATOM     26  H13 CT8 d   1       8.164 -11.636   6.476  0.00  0.00     0.114 H 
ATOM     27  H14 CT8 d   1       8.605  -9.968   8.254  0.00  0.00     0.086 H 
ENDBRANCH  15  18
ENDBRANCH  13  15
ENDBRANCH   3  13
BRANCH   1  28
ATOM     28  C3  CT8 d   1      13.535  -7.779   9.796  0.00  0.00    -0.005 A 
ATOM     29  C2  CT8 d   1      13.709  -8.287   8.509  0.00  0.00    -0.054 A 
ATOM     30  C1  CT8 d   1      14.199  -7.473   7.494  0.00  0.00     0.011 A 
ATOM     31  H1  CT8 d   1      13.461  -9.321   8.299  0.00  0.00     0.086 H 
ATOM     32 BR1  CT8 d   1      14.422  -8.189   5.756  0.00  0.00    -0.051 Br
ATOM     33  C6  CT8 d   1      14.545  -6.138   7.761  0.00  0.00    -0.066 A 
ATOM     34  C5  CT8 d   1      14.390  -5.615   9.057  0.00  0.00    -0.081 A 
ATOM     35  H4  CT8 d   1      14.932  -5.510   6.967  0.00  0.00     0.085 H 
ATOM     36  C4  CT8 d   1      13.883  -6.434  10.080  0.00  0.00    -0.071 A 
ATOM     37  H3  CT8 d   1      14.660  -4.586   9.266  0.00  0.00     0.083 H 
ATOM     38  H2  CT8 d   1      13.758  -6.039  11.082  0.00  0.00     0.084 H 
ENDBRANCH   1  28
TORSDOF 4
