REMARK  12 active torsions:
REMARK  status: ('A' for Active; 'I' for Inactive)
REMARK    1  A    between atoms: N6_6  and  C7_7 
REMARK    2  A    between atoms: C7_7  and  C8_8 
REMARK    3  A    between atoms: C8_8  and  C9_9 
REMARK    4  A    between atoms: C8_8  and  O39_39 
REMARK    5  A    between atoms: C9_9  and  O10_10 
REMARK    6  A    between atoms: O10_10  and  C11_11 
REMARK    7  A    between atoms: C12_12  and  O37_37 
REMARK    8  A    between atoms: C20_20  and  N21_21 
REMARK    9  A    between atoms: N21_21  and  C22_22 
REMARK   10  A    between atoms: C25_25  and  N28_28 
REMARK       I    between atoms: N28_28  and  C29_29 
REMARK   11  A    between atoms: C29_29  and  C30_30 
REMARK   12  A    between atoms: O37_37  and  C38_38 
ROOT
ATOM      1  C11 HPM d   1      22.294  87.227  73.066  0.00  0.00     0.104 A 
ATOM      2  C12 HPM d   1      22.781  87.073  71.728  0.00  0.00     0.102 A 
ATOM      3  C13 HPM d   1      22.881  88.197  70.870  0.00  0.00    -0.032 A 
ATOM      4  C14 HPM d   1      22.506  89.483  71.312  0.00  0.00     0.042 A 
ATOM      5  C15 HPM d   1      22.005  89.651  72.695  0.00  0.00     0.075 A 
ATOM      6  C16 HPM d   1      21.911  88.516  73.537  0.00  0.00    -0.019 A 
ATOM      7  N17 HPM d   1      21.634  90.872  73.162  0.00  0.00    -0.241 NA
ATOM      8  C18 HPM d   1      21.733  91.911  72.347  0.00  0.00     0.089 A 
ATOM      9  N19 HPM d   1      22.169  91.877  71.088  0.00  0.00    -0.224 NA
ATOM     10  C20 HPM d   1      22.560  90.693  70.539  0.00  0.00     0.142 A 
ATOM     11  H17 HPM d   1      23.251  88.066  69.859  0.00  0.00     0.089 H 
ATOM     12  H18 HPM d   1      21.544  88.629  74.551  0.00  0.00     0.091 H 
ATOM     13  H19 HPM d   1      21.432  92.876  72.739  0.00  0.00     0.146 H 
ENDROOT
BRANCH   1  14
ATOM     14  O10 HPM d   1      22.186  86.127  73.930  0.00  0.00    -0.346 OA
BRANCH  14  15
ATOM     15  C9  HPM d   1      21.703  86.217  75.301  0.00  0.00     0.051 C 
ATOM     16  H15 HPM d   1      22.155  87.091  75.793  0.00  0.00     0.079 H 
ATOM     17  H16 HPM d   1      20.608  86.323  75.298  0.00  0.00     0.079 H 
BRANCH  15  18
ATOM     18  C8  HPM d   1      22.091  84.946  76.062  0.00  0.00     0.080 C 
ATOM     19  H14 HPM d   1      21.490  84.117  75.660  0.00  0.00     0.088 H 
BRANCH  18  20
ATOM     20  C7  HPM d   1      21.844  85.007  77.590  0.00  0.00     0.109 C 
ATOM     21  H12 HPM d   1      22.739  85.442  78.059  0.00  0.00     0.080 H 
ATOM     22  H13 HPM d   1      20.981  85.665  77.766  0.00  0.00     0.080 H 
BRANCH  20  23
ATOM     23  N6  HPM d   1      21.562  83.678  78.268  0.00  0.00    -0.069 N 
ATOM     24  C1  HPM d   1      21.364  83.849  79.751  0.00  0.00     0.084 C 
ATOM     25  C2  HPM d   1      21.204  82.482  80.488  0.00  0.00    -0.042 C 
ATOM     26  H1  HPM d   1      22.236  84.375  80.166  0.00  0.00     0.076 H 
ATOM     27  H2  HPM d   1      20.459  84.450  79.920  0.00  0.00     0.076 H 
ATOM     28  C3  HPM d   1      20.089  81.594  79.848  0.00  0.00    -0.062 C 
ATOM     29  H3  HPM d   1      20.944  82.674  81.539  0.00  0.00     0.035 H 
ATOM     30  H4  HPM d   1      22.160  81.940  80.440  0.00  0.00     0.035 H 
ATOM     31  C4  HPM d   1      20.171  81.530  78.286  0.00  0.00    -0.042 C 
ATOM     32  H5  HPM d   1      19.109  82.007  80.130  0.00  0.00     0.033 H 
ATOM     33  H6  HPM d   1      20.185  80.573  80.245  0.00  0.00     0.033 H 
ATOM     34  C5  HPM d   1      20.403  82.931  77.637  0.00  0.00     0.084 C 
ATOM     35  H7  HPM d   1      19.228  81.116  77.901  0.00  0.00     0.035 H 
ATOM     36  H8  HPM d   1      21.004  80.869  78.004  0.00  0.00     0.035 H 
ATOM     37  H9  HPM d   1      19.489  83.531  77.757  0.00  0.00     0.076 H 
ATOM     38  H10 HPM d   1      20.613  82.793  76.566  0.00  0.00     0.076 H 
ATOM     39  H11 HPM d   1      22.382  83.106  78.142  0.00  0.00     0.280 HD
ENDBRANCH  20  23
ENDBRANCH  18  20
BRANCH  18  40
ATOM     40  O39 HPM d   1      23.466  84.677  75.820  0.00  0.00    -0.392 OA
ATOM     41  H32 HPM d   1      23.604  84.552  74.888  0.00  0.00     0.210 HD
ENDBRANCH  18  40
ENDBRANCH  15  18
ENDBRANCH  14  15
ENDBRANCH   1  14
BRANCH   2  42
ATOM     42  O37 HPM d   1      23.170  85.827  71.240  0.00  0.00    -0.353 OA
BRANCH  42  43
ATOM     43  C38 HPM d   1      22.679  85.375  69.951  0.00  0.00     0.010 C 
ATOM     44  H29 HPM d   1      23.088  84.378  69.732  0.00  0.00     0.066 H 
ATOM     45  H30 HPM d   1      22.997  86.081  69.169  0.00  0.00     0.066 H 
ATOM     46  H31 HPM d   1      21.581  85.324  69.975  0.00  0.00     0.066 H 
ENDBRANCH  42  43
ENDBRANCH   2  42
BRANCH  10  47
ATOM     47  N21 HPM d   1      23.025  90.704  69.148  0.00  0.00    -0.338 N 
ATOM     48  H20 HPM d   1      23.431  89.817  68.817  0.00  0.00     0.167 HD
BRANCH  47  49
ATOM     49  C22 HPM d   1      23.001  91.757  68.180  0.00  0.00     0.070 A 
ATOM     50  C23 HPM d   1      24.061  91.923  67.246  0.00  0.00     0.048 A 
ATOM     51  N24 HPM d   1      24.042  92.933  66.367  0.00  0.00    -0.073 NA
ATOM     52  H21 HPM d   1      24.891  91.226  67.246  0.00  0.00     0.119 H 
ATOM     53  C25 HPM d   1      22.992  93.783  66.394  0.00  0.00     0.729 A 
ATOM     54  N26 HPM d   1      21.955  93.708  67.214  0.00  0.00    -0.073 NA
ATOM     55  C27 HPM d   1      21.936  92.724  68.097  0.00  0.00     0.048 A 
ATOM     56  H22 HPM d   1      21.096  92.642  68.777  0.00  0.00     0.119 H 
BRANCH  53  57
ATOM     57  N28 HPM d   1      23.043  94.876  65.467  0.00  0.00    -0.152 N 
ATOM     58  C29 HPM d   1      23.696  95.214  64.346  0.00  0.00     0.270 C 
ATOM     59  O36 HPM d   1      24.531  94.448  63.824  0.00  0.00    -0.267 OA
ATOM     60  H23 HPM d   1      22.404  95.597  65.735  0.00  0.00     0.188 HD
BRANCH  58  61
ATOM     61  C30 HPM d   1      23.352  96.585  63.786  0.00  0.00     0.032 A 
ATOM     62  C31 HPM d   1      22.405  97.470  64.411  0.00  0.00    -0.068 A 
ATOM     63  C32 HPM d   1      22.122  98.742  63.860  0.00  0.00    -0.082 A 
ATOM     64  H24 HPM d   1      21.901  97.157  65.318  0.00  0.00     0.085 H 
ATOM     65  C33 HPM d   1      22.776  99.153  62.676  0.00  0.00    -0.083 A 
ATOM     66  H25 HPM d   1      21.407  99.398  64.343  0.00  0.00     0.083 H 
ATOM     67  C34 HPM d   1      23.710  98.303  62.042  0.00  0.00    -0.082 A 
ATOM     68  H26 HPM d   1      22.559 100.127  62.252  0.00  0.00     0.083 H 
ATOM     69  C35 HPM d   1      23.998  97.035  62.589  0.00  0.00    -0.068 A 
ATOM     70  H27 HPM d   1      24.206  98.626  61.134  0.00  0.00     0.083 H 
ATOM     71  H28 HPM d   1      24.718  96.392  62.097  0.00  0.00     0.085 H 
ENDBRANCH  58  61
ENDBRANCH  53  57
ENDBRANCH  47  49
ENDBRANCH  10  47
TORSDOF 12
