REMARK  5 active torsions:
REMARK  status: ('A' for Active; 'I' for Inactive)
REMARK    1  A    between atoms: N_1  and  CA_2 
REMARK    2  A    between atoms: CA_2  and  C_3 
REMARK    3  A    between atoms: CA_2  and  CB_5 
REMARK    4  A    between atoms: CB_5  and  CG_6 
REMARK    5  A    between atoms: CG_6  and  CD_7 
ROOT
ATOM      1  CA  GLU d   1      16.073  44.580  41.982  0.00  0.00     0.183 C 
ATOM      2  H4  GLU d   1      15.825  43.519  42.135  0.00  0.00     0.101 H 
ENDROOT
BRANCH   1   3
ATOM      3  N   GLU d   1      16.586  45.138  43.253  0.00  0.00    -0.065 N 
ATOM      4  H1  GLU d   1      15.876  45.062  43.964  0.00  0.00     0.275 HD
ATOM      5  H2  GLU d   1      16.827  46.108  43.121  0.00  0.00     0.275 HD
ATOM      6  H3  GLU d   1      17.405  44.624  43.539  0.00  0.00     0.275 HD
ENDBRANCH   1   3
BRANCH   1   7
ATOM      7  C   GLU d   1      17.163  44.703  40.911  0.00  0.00     0.204 C 
ATOM      8  O   GLU d   1      18.038  45.560  41.136  0.00  0.00    -0.646 OA
ATOM      9  OXT GLU d   1      17.045  43.918  39.961  0.00  0.00    -0.646 OA
ENDBRANCH   1   7
BRANCH   1  10
ATOM     10  CB  GLU d   1      14.830  45.310  41.490  0.00  0.00    -0.020 C 
ATOM     11  H5  GLU d   1      14.067  45.292  42.282  0.00  0.00     0.037 H 
ATOM     12  H6  GLU d   1      14.444  44.798  40.596  0.00  0.00     0.037 H 
BRANCH  10  13
ATOM     13  CG  GLU d   1      15.146  46.770  41.133  0.00  0.00     0.018 C 
ATOM     14  H7  GLU d   1      15.961  46.775  40.394  0.00  0.00     0.049 H 
ATOM     15  H8  GLU d   1      15.477  47.284  42.047  0.00  0.00     0.049 H 
BRANCH  13  16
ATOM     16  CD  GLU d   1      13.976  47.539  40.554  0.00  0.00     0.172 C 
ATOM     17  OE1 GLU d   1      13.075  46.921  39.924  0.00  0.00    -0.648 OA
ATOM     18  OE2 GLU d   1      13.982  48.775  40.749  0.00  0.00    -0.648 OA
ENDBRANCH  13  16
ENDBRANCH  10  13
ENDBRANCH   1  10
TORSDOF 5
