REMARK  7 active torsions:
REMARK  status: ('A' for Active; 'I' for Inactive)
REMARK    1  A    between atoms: S1_2  and  N6_4 
REMARK    2  A    between atoms: S1_2  and  C16_5 
REMARK    3  A    between atoms: C13_10  and  N5_11 
REMARK    4  A    between atoms: N5_11  and  C9_12 
REMARK    5  A    between atoms: C7_20  and  O1_22 
REMARK    6  A    between atoms: O1_22  and  C20_21 
REMARK    7  A    between atoms: C20_21  and  C1_23 
ROOT
ATOM      1  C9  DT1 d   1       1.630  30.030   7.656  0.00  0.00     0.152 A 
ATOM      2  N2  DT1 d   1       1.038  31.255   7.717  0.00  0.00    -0.042 N 
ATOM      3  C10 DT1 d   1      -0.043  31.517   8.469  0.00  0.00     0.754 A 
ATOM      4  N1  DT1 d   1      -0.629  30.562   9.209  0.00  0.00    -0.036 NA
ATOM      5  N4  DT1 d   1      -0.367  32.821   8.368  0.00  0.00    -0.052 NA
ATOM      6  C11 DT1 d   1       0.560  33.342   7.525  0.00  0.00     0.126 A 
ATOM      7  N3  DT1 d   1       1.403  32.373   7.116  0.00  0.00    -0.143 NA
ATOM      8  C8  DT1 d   1       1.018  28.990   8.369  0.00  0.00     0.014 A 
ATOM      9  C7  DT1 d   1      -0.098  29.293   9.156  0.00  0.00     0.187 A 
ATOM     10  H8  DT1 d   1       0.615  34.387   7.224  0.00  0.00     0.150 H 
ATOM     11  H9  DT1 d   1       1.401  27.972   8.312  0.00  0.00     0.096 H 
ENDROOT
BRANCH   9  12
ATOM     12  O1  DT1 d   1      -0.694  28.300   9.876  0.00  0.00    -0.334 OA
BRANCH  12  13
ATOM     13  C20 DT1 d   1      -0.395  28.459  11.265  0.00  0.00     0.031 C 
ATOM     14  H10 DT1 d   1      -1.066  29.212  11.704  0.00  0.00     0.075 H 
ATOM     15  H11 DT1 d   1       0.649  28.784  11.384  0.00  0.00     0.075 H 
BRANCH  13  16
ATOM     16  C1  DT1 d   1      -0.600  27.108  11.970  0.00  0.00    -0.033 C 
ATOM     17  C2  DT1 d   1      -1.792  26.294  11.450  0.00  0.00    -0.060 C 
ATOM     18  C3  DT1 d   1      -1.841  24.944  12.176  0.00  0.00    -0.065 C 
ATOM     19  H13 DT1 d   1      -1.678  26.126  10.369  0.00  0.00     0.033 H 
ATOM     20  H14 DT1 d   1      -2.724  26.846  11.639  0.00  0.00     0.033 H 
ATOM     21  C4  DT1 d   1      -1.949  25.165  13.691  0.00  0.00    -0.065 C 
ATOM     22  H15 DT1 d   1      -0.924  24.378  11.955  0.00  0.00     0.033 H 
ATOM     23  H16 DT1 d   1      -2.716  24.375  11.828  0.00  0.00     0.033 H 
ATOM     24  C5  DT1 d   1      -0.745  25.971  14.184  0.00  0.00    -0.065 C 
ATOM     25  H17 DT1 d   1      -1.970  24.191  14.202  0.00  0.00     0.033 H 
ATOM     26  H18 DT1 d   1      -2.874  25.717  13.915  0.00  0.00     0.033 H 
ATOM     27  C6  DT1 d   1      -0.737  27.327  13.479  0.00  0.00    -0.060 C 
ATOM     28  H19 DT1 d   1       0.183  25.428  13.952  0.00  0.00     0.033 H 
ATOM     29  H20 DT1 d   1      -0.820  26.120  15.271  0.00  0.00     0.033 H 
ATOM     30  H21 DT1 d   1      -1.677  27.857  13.690  0.00  0.00     0.033 H 
ATOM     31  H22 DT1 d   1       0.111  27.926  13.842  0.00  0.00     0.033 H 
ATOM     32  H12 DT1 d   1       0.305  26.508  11.793  0.00  0.00     0.043 H 
ENDBRANCH  13  16
ENDBRANCH  12  13
ENDBRANCH   9  12
BRANCH   1  33
ATOM     33  N5  DT1 d   1       2.732  29.818   6.861  0.00  0.00    -0.340 N 
ATOM     34  H7  DT1 d   1       2.880  30.469   6.076  0.00  0.00     0.167 HD
BRANCH  33  35
ATOM     35  C13 DT1 d   1       3.651  28.813   7.025  0.00  0.00     0.033 A 
ATOM     36  C18 DT1 d   1       3.901  28.253   8.297  0.00  0.00    -0.056 A 
ATOM     37  C17 DT1 d   1       4.832  27.235   8.480  0.00  0.00    -0.058 A 
ATOM     38  H5  DT1 d   1       3.353  28.626   9.154  0.00  0.00     0.087 H 
ATOM     39  C16 DT1 d   1       5.530  26.822   7.339  0.00  0.00     0.079 A 
ATOM     40  H4  DT1 d   1       5.007  26.787   9.451  0.00  0.00     0.086 H 
ATOM     41  C15 DT1 d   1       5.305  27.341   6.070  0.00  0.00    -0.058 A 
ATOM     42  C14 DT1 d   1       4.359  28.361   5.899  0.00  0.00    -0.056 A 
ATOM     43  H3  DT1 d   1       5.857  26.960   5.218  0.00  0.00     0.086 H 
ATOM     44  H6  DT1 d   1       4.178  28.791   4.921  0.00  0.00     0.087 H 
BRANCH  39  45
ATOM     45  S1  DT1 d   1       6.691  25.575   7.554  0.00  0.00     0.256 S 
ATOM     46  O3  DT1 d   1       7.865  26.080   8.284  0.00  0.00    -0.201 OA
ATOM     47  O2  DT1 d   1       7.140  25.234   6.207  0.00  0.00    -0.201 OA
BRANCH  45  48
ATOM     48  N6  DT1 d   1       6.063  24.342   8.367  0.00  0.00    -0.324 N 
ATOM     49  H1  DT1 d   1       5.727  24.477   9.299  0.00  0.00     0.169 HD
ATOM     50  H2  DT1 d   1       6.008  23.439   7.941  0.00  0.00     0.169 HD
ENDBRANCH  45  48
ENDBRANCH  39  45
ENDBRANCH  33  35
ENDBRANCH   1  33
TORSDOF 7
