REMARK  6 active torsions:
REMARK  status: ('A' for Active; 'I' for Inactive)
REMARK    1  A    between atoms: S1_2  and  N6_4 
REMARK    2  A    between atoms: S1_2  and  C16_5 
REMARK    3  A    between atoms: C13_8  and  N5_11 
REMARK    4  A    between atoms: N5_11  and  C9_12 
REMARK    5  A    between atoms: C7_19  and  N7_21 
REMARK    6  A    between atoms: N7_21  and  C1_22 
ROOT
ATOM      1  C9  DT2 d   1      11.719 -10.432  11.629  0.00  0.00     0.151 A 
ATOM      2  N2  DT2 d   1      12.324 -10.299  12.820  0.00  0.00    -0.042 N 
ATOM      3  N3  DT2 d   1      12.018 -10.872  13.978  0.00  0.00    -0.143 NA
ATOM      4  C11 DT2 d   1      12.908 -10.424  14.891  0.00  0.00     0.126 A 
ATOM      5  C10 DT2 d   1      13.394  -9.550  12.972  0.00  0.00     0.754 A 
ATOM      6  N4  DT2 d   1      13.770  -9.582  14.246  0.00  0.00    -0.052 NA
ATOM      7  N1  DT2 d   1      13.908  -8.823  11.953  0.00  0.00    -0.043 NA
ATOM      8  C7  DT2 d   1      13.366  -8.913  10.718  0.00  0.00     0.146 A 
ATOM      9  C8  DT2 d   1      12.245  -9.742  10.518  0.00  0.00     0.007 A 
ATOM     10  H8  DT2 d   1      12.934 -10.686  15.948  0.00  0.00     0.150 H 
ATOM     11  H9  DT2 d   1      11.796  -9.847   9.531  0.00  0.00     0.095 H 
ENDROOT
BRANCH   8  12
ATOM     12  N7  DT2 d   1      13.963  -8.245   9.675  0.00  0.00    -0.370 N 
ATOM     13  H10 DT2 d   1      14.963  -8.008   9.746  0.00  0.00     0.161 HD
BRANCH  12  14
ATOM     14  C1  DT2 d   1      13.234  -7.860   8.473  0.00  0.00     0.011 C 
ATOM     15  C2  DT2 d   1      13.301  -9.080   7.562  0.00  0.00    -0.046 C 
ATOM     16  C3  DT2 d   1      12.735  -8.723   6.190  0.00  0.00    -0.063 C 
ATOM     17  H12 DT2 d   1      12.710  -9.898   8.001  0.00  0.00     0.035 H 
ATOM     18  H13 DT2 d   1      14.348  -9.400   7.455  0.00  0.00     0.035 H 
ATOM     19  C4  DT2 d   1      13.555  -7.590   5.579  0.00  0.00    -0.065 C 
ATOM     20  H14 DT2 d   1      11.689  -8.401   6.298  0.00  0.00     0.033 H 
ATOM     21  H15 DT2 d   1      12.782  -9.604   5.534  0.00  0.00     0.033 H 
ATOM     22  C5  DT2 d   1      13.494  -6.368   6.491  0.00  0.00    -0.063 C 
ATOM     23  H16 DT2 d   1      13.144  -7.331   4.592  0.00  0.00     0.033 H 
ATOM     24  H17 DT2 d   1      14.601  -7.913   5.468  0.00  0.00     0.033 H 
ATOM     25  C6  DT2 d   1      14.057  -6.727   7.863  0.00  0.00    -0.046 C 
ATOM     26  H18 DT2 d   1      12.449  -6.042   6.598  0.00  0.00     0.033 H 
ATOM     27  H19 DT2 d   1      14.089  -5.553   6.053  0.00  0.00     0.033 H 
ATOM     28  H20 DT2 d   1      15.103  -7.050   7.756  0.00  0.00     0.035 H 
ATOM     29  H21 DT2 d   1      14.011  -5.846   8.520  0.00  0.00     0.035 H 
ATOM     30  H11 DT2 d   1      12.197  -7.554   8.678  0.00  0.00     0.072 H 
ENDBRANCH  12  14
ENDBRANCH   8  12
BRANCH   1  31
ATOM     31  N5  DT2 d   1      10.632 -11.255  11.514  0.00  0.00    -0.340 N 
ATOM     32  H7  DT2 d   1      10.488 -11.995  12.216  0.00  0.00     0.167 HD
BRANCH  31  33
ATOM     33  C13 DT2 d   1       9.740 -11.125  10.504  0.00  0.00     0.033 A 
ATOM     34  C14 DT2 d   1       9.090 -12.259  10.012  0.00  0.00    -0.056 A 
ATOM     35  C15 DT2 d   1       8.150 -12.135   8.994  0.00  0.00    -0.058 A 
ATOM     36  H4  DT2 d   1       9.318 -13.236  10.423  0.00  0.00     0.087 H 
ATOM     37  C16 DT2 d   1       7.848 -10.885   8.468  0.00  0.00     0.079 A 
ATOM     38  H3  DT2 d   1       7.651 -13.017   8.610  0.00  0.00     0.086 H 
ATOM     39  C17 DT2 d   1       8.490  -9.739   8.960  0.00  0.00    -0.058 A 
ATOM     40  C18 DT2 d   1       9.424  -9.854   9.988  0.00  0.00    -0.056 A 
ATOM     41  H6  DT2 d   1       8.260  -8.766   8.541  0.00  0.00     0.086 H 
ATOM     42  H5  DT2 d   1       9.905  -8.969  10.388  0.00  0.00     0.087 H 
BRANCH  37  43
ATOM     43  S1  DT2 d   1       6.656 -10.751   7.171  0.00  0.00     0.256 S 
ATOM     44  O2  DT2 d   1       6.240 -12.047   6.859  0.00  0.00    -0.201 OA
ATOM     45  O3  DT2 d   1       5.604  -9.993   7.648  0.00  0.00    -0.201 OA
BRANCH  43  46
ATOM     46  N6  DT2 d   1       7.348 -10.078   5.965  0.00  0.00    -0.324 N 
ATOM     47  H1  DT2 d   1       8.127 -10.523   5.523  0.00  0.00     0.169 HD
ATOM     48  H2  DT2 d   1       7.017  -9.197   5.626  0.00  0.00     0.169 HD
ENDBRANCH  43  46
ENDBRANCH  37  43
ENDBRANCH  31  33
ENDBRANCH   1  31
TORSDOF 6
