REMARK  7 active torsions:
REMARK  status: ('A' for Active; 'I' for Inactive)
REMARK    1  A    between atoms: S1_2  and  N6_4 
REMARK    2  A    between atoms: S1_2  and  C16_5 
REMARK    3  A    between atoms: C13_8  and  N5_11 
REMARK    4  A    between atoms: N5_11  and  C9_12 
REMARK    5  A    between atoms: C7_19  and  N7_21 
REMARK    6  A    between atoms: N7_21  and  C1_22 
REMARK    7  A    between atoms: C4_25  and  N8_26 
ROOT
ATOM      1  C9  DT4 d   1      11.607 -10.724  11.380  0.00  0.00     0.149 A 
ATOM      2  N2  DT4 d   1      12.205 -10.555  12.557  0.00  0.00    -0.065 N 
ATOM      3  N3  DT4 d   1      11.877 -11.047  13.732  0.00  0.00    -0.271 N 
ATOM      4  C11 DT4 d   1      12.790 -10.582  14.634  0.00  0.00     0.098 A 
ATOM      5  C10 DT4 d   1      13.285  -9.811  12.679  0.00  0.00     0.752 A 
ATOM      6  N4  DT4 d   1      13.673  -9.806  13.958  0.00  0.00    -0.055 NA
ATOM      7  N1  DT4 d   1      13.837  -9.182  11.619  0.00  0.00    -0.043 NA
ATOM      8  C7  DT4 d   1      13.253  -9.303  10.395  0.00  0.00     0.146 A 
ATOM      9  C8  DT4 d   1      12.139 -10.110  10.255  0.00  0.00     0.006 A 
ATOM     10  H8  DT4 d   1      11.080 -11.667  13.934  0.00  0.00     0.189 HD
ATOM     11  H9  DT4 d   1      12.806 -10.795  15.702  0.00  0.00     0.146 H 
ATOM     12  H10 DT4 d   1      11.688 -10.261   9.281  0.00  0.00     0.095 H 
ENDROOT
BRANCH   8  13
ATOM     13  N7  DT4 d   1      13.837  -8.768   9.305  0.00  0.00    -0.370 N 
ATOM     14  H11 DT4 d   1      14.376  -9.381   8.677  0.00  0.00     0.161 HD
BRANCH  13  15
ATOM     15  C1  DT4 d   1      13.731  -7.360   8.988  0.00  0.00     0.011 C 
ATOM     16  C2  DT4 d   1      14.475  -7.205   7.663  0.00  0.00    -0.044 C 
ATOM     17  C3  DT4 d   1      14.601  -5.725   7.321  0.00  0.00    -0.037 C 
ATOM     18  H13 DT4 d   1      13.917  -7.719   6.867  0.00  0.00     0.036 H 
ATOM     19  H14 DT4 d   1      15.478  -7.647   7.752  0.00  0.00     0.036 H 
ATOM     20  C4  DT4 d   1      15.379  -5.015   8.421  0.00  0.00     0.100 C 
ATOM     21  H15 DT4 d   1      13.598  -5.281   7.236  0.00  0.00     0.036 H 
ATOM     22  H16 DT4 d   1      15.133  -5.614   6.365  0.00  0.00     0.036 H 
ATOM     23  C5  DT4 d   1      14.635  -5.162   9.746  0.00  0.00    -0.037 C 
ATOM     24  H17 DT4 d   1      16.379  -5.465   8.511  0.00  0.00     0.083 H 
ATOM     25  C6  DT4 d   1      14.502  -6.643  10.095  0.00  0.00    -0.044 C 
ATOM     26  H21 DT4 d   1      13.634  -4.715   9.656  0.00  0.00     0.036 H 
ATOM     27  H22 DT4 d   1      15.196  -4.647  10.540  0.00  0.00     0.036 H 
ATOM     28  H23 DT4 d   1      15.503  -7.088  10.192  0.00  0.00     0.036 H 
ATOM     29  H24 DT4 d   1      13.960  -6.748  11.046  0.00  0.00     0.036 H 
ATOM     30  H12 DT4 d   1      12.690  -7.012   8.920  0.00  0.00     0.072 H 
BRANCH  20  31
ATOM     31  N8  DT4 d   1      15.514  -3.588   8.086  0.00  0.00    -0.075 N 
ATOM     32  H18 DT4 d   1      16.029  -3.119   8.815  0.00  0.00     0.274 HD
ATOM     33  H19 DT4 d   1      14.599  -3.175   8.002  0.00  0.00     0.274 HD
ATOM     34  H20 DT4 d   1      16.007  -3.493   7.212  0.00  0.00     0.274 HD
ENDBRANCH  20  31
ENDBRANCH  13  15
ENDBRANCH   8  13
BRANCH   1  35
ATOM     35  N5  DT4 d   1      10.508 -11.497  11.285  0.00  0.00    -0.340 N 
ATOM     36  H7  DT4 d   1      10.345 -12.233  11.987  0.00  0.00     0.167 HD
BRANCH  35  37
ATOM     37  C13 DT4 d   1       9.607 -11.323  10.276  0.00  0.00     0.033 A 
ATOM     38  C14 DT4 d   1       8.959 -12.436   9.732  0.00  0.00    -0.056 A 
ATOM     39  C15 DT4 d   1       8.015 -12.270   8.739  0.00  0.00    -0.058 A 
ATOM     40  H4  DT4 d   1       9.198 -13.431  10.091  0.00  0.00     0.087 H 
ATOM     41  C16 DT4 d   1       7.703 -10.997   8.272  0.00  0.00     0.079 A 
ATOM     42  H3  DT4 d   1       7.514 -13.136   8.321  0.00  0.00     0.086 H 
ATOM     43  C17 DT4 d   1       8.334  -9.872   8.819  0.00  0.00    -0.058 A 
ATOM     44  C18 DT4 d   1       9.279 -10.033   9.828  0.00  0.00    -0.056 A 
ATOM     45  H6  DT4 d   1       8.087  -8.880   8.458  0.00  0.00     0.086 H 
ATOM     46  H5  DT4 d   1       9.760  -9.166  10.266  0.00  0.00     0.087 H 
BRANCH  41  47
ATOM     47  S1  DT4 d   1       6.473 -10.802   7.015  0.00  0.00     0.256 S 
ATOM     48  O2  DT4 d   1       5.878 -12.037   6.832  0.00  0.00    -0.201 OA
ATOM     49  O3  DT4 d   1       5.568  -9.872   7.471  0.00  0.00    -0.201 OA
BRANCH  47  50
ATOM     50  N6  DT4 d   1       7.182 -10.325   5.727  0.00  0.00    -0.324 N 
ATOM     51  H1  DT4 d   1       7.867 -10.907   5.288  0.00  0.00     0.169 HD
ATOM     52  H2  DT4 d   1       6.956  -9.434   5.332  0.00  0.00     0.169 HD
ENDBRANCH  47  50
ENDBRANCH  41  47
ENDBRANCH  35  37
ENDBRANCH   1  35
TORSDOF 7
