REMARK  6 active torsions:
REMARK  status: ('A' for Active; 'I' for Inactive)
REMARK    1  A    between atoms: N6_1  and  S1_2 
REMARK    2  A    between atoms: S1_2  and  C16_5 
REMARK    3  A    between atoms: C13_10  and  N5_11 
REMARK    4  A    between atoms: N5_11  and  C9_12 
REMARK    5  A    between atoms: C7_20  and  O1_21 
REMARK    6  A    between atoms: O1_21  and  C1_22 
ROOT
ATOM      1  C9  DT5 d   1      11.760 -10.245  11.810  0.00  0.00     0.152 A 
ATOM      2  N2  DT5 d   1      12.341 -10.242  13.015  0.00  0.00    -0.042 N 
ATOM      3  C10 DT5 d   1      13.441  -9.551  13.263  0.00  0.00     0.754 A 
ATOM      4  N1  DT5 d   1      14.034  -8.799  12.331  0.00  0.00    -0.036 NA
ATOM      5  N4  DT5 d   1      13.752  -9.674  14.551  0.00  0.00    -0.052 NA
ATOM      6  C11 DT5 d   1      12.813 -10.492  15.105  0.00  0.00     0.126 A 
ATOM      7  N3  DT5 d   1      11.955 -10.854  14.115  0.00  0.00    -0.143 NA
ATOM      8  C8  DT5 d   1      12.389  -9.516  10.748  0.00  0.00     0.014 A 
ATOM      9  C7  DT5 d   1      13.549  -8.762  11.064  0.00  0.00     0.187 A 
ATOM     10  H8  DT5 d   1      12.760 -10.799  16.148  0.00  0.00     0.150 H 
ATOM     11  H9  DT5 d   1      11.991  -9.540   9.735  0.00  0.00     0.096 H 
ENDROOT
BRANCH   1  12
ATOM     12  N5  DT5 d   1      10.610 -11.031  11.625  0.00  0.00    -0.340 N 
ATOM     13  H7  DT5 d   1      10.406 -11.749  12.334  0.00  0.00     0.167 HD
BRANCH  12  14
ATOM     14  C13 DT5 d   1       9.742 -10.915  10.576  0.00  0.00     0.033 A 
ATOM     15  C18 DT5 d   1       9.419  -9.666  10.039  0.00  0.00    -0.056 A 
ATOM     16  C17 DT5 d   1       8.457  -9.571   9.041  0.00  0.00    -0.058 A 
ATOM     17  H5  DT5 d   1       9.918  -8.774  10.400  0.00  0.00     0.087 H 
ATOM     18  C16 DT5 d   1       7.793 -10.720   8.589  0.00  0.00     0.079 A 
ATOM     19  H4  DT5 d   1       8.219  -8.605   8.610  0.00  0.00     0.086 H 
ATOM     20  C15 DT5 d   1       8.091 -11.957   9.130  0.00  0.00    -0.058 A 
ATOM     21  C14 DT5 d   1       9.040 -12.058  10.143  0.00  0.00    -0.056 A 
ATOM     22  H3  DT5 d   1       7.587 -12.845   8.766  0.00  0.00     0.086 H 
ATOM     23  H6  DT5 d   1       9.240 -13.020  10.601  0.00  0.00     0.087 H 
BRANCH  18  24
ATOM     24  S1  DT5 d   1       6.611 -10.582   7.335  0.00  0.00     0.256 S 
ATOM     25  O2  DT5 d   1       7.232  -9.908   6.189  0.00  0.00    -0.201 OA
ATOM     26  O3  DT5 d   1       5.482  -9.794   7.817  0.00  0.00    -0.201 OA
BRANCH  24  27
ATOM     27  N6  DT5 d   1       6.114 -12.021   6.900  0.00  0.00    -0.324 N 
ATOM     28  H1  DT5 d   1       6.767 -12.689   6.544  0.00  0.00     0.169 HD
ATOM     29  H2  DT5 d   1       5.147 -12.262   6.981  0.00  0.00     0.169 HD
ENDBRANCH  24  27
ENDBRANCH  18  24
ENDBRANCH  12  14
ENDBRANCH   1  12
BRANCH   9  30
ATOM     30  O1  DT5 d   1      14.254  -8.035  10.123  0.00  0.00    -0.328 OA
BRANCH  30  31
ATOM     31  C1  DT5 d   1      13.609  -7.877   8.924  0.00  0.00     0.047 C 
ATOM     32  C2  DT5 d   1      14.205  -8.876   7.924  0.00  0.00    -0.040 C 
ATOM     33  C3  DT5 d   1      13.627  -8.640   6.520  0.00  0.00    -0.063 C 
ATOM     34  H11 DT5 d   1      13.964  -9.899   8.247  0.00  0.00     0.036 H 
ATOM     35  H12 DT5 d   1      15.297  -8.749   7.892  0.00  0.00     0.036 H 
ATOM     36  C4  DT5 d   1      13.955  -7.218   6.058  0.00  0.00    -0.065 C 
ATOM     37  H13 DT5 d   1      12.535  -8.773   6.547  0.00  0.00     0.033 H 
ATOM     38  H14 DT5 d   1      14.067  -9.363   5.817  0.00  0.00     0.033 H 
ATOM     39  C5  DT5 d   1      13.332  -6.218   7.033  0.00  0.00    -0.063 C 
ATOM     40  H15 DT5 d   1      13.545  -7.054   5.051  0.00  0.00     0.033 H 
ATOM     41  H16 DT5 d   1      15.046  -7.080   6.037  0.00  0.00     0.033 H 
ATOM     42  C6  DT5 d   1      13.901  -6.447   8.437  0.00  0.00    -0.040 C 
ATOM     43  H17 DT5 d   1      12.241  -6.357   7.053  0.00  0.00     0.033 H 
ATOM     44  H18 DT5 d   1      13.565  -5.194   6.706  0.00  0.00     0.033 H 
ATOM     45  H19 DT5 d   1      14.989  -6.290   8.414  0.00  0.00     0.036 H 
ATOM     46  H20 DT5 d   1      13.442  -5.729   9.133  0.00  0.00     0.036 H 
ATOM     47  H10 DT5 d   1      12.527  -8.039   9.035  0.00  0.00     0.084 H 
ENDBRANCH  30  31
ENDBRANCH   9  30
TORSDOF 6
