REMARK  13 active torsions:
REMARK  status: ('A' for Active; 'I' for Inactive)
REMARK    1  A    between atoms: C4_4  and  C3_3 
REMARK    2  A    between atoms: C4_4  and  C14_5 
REMARK    3  A    between atoms: N1_13  and  C4_4 
REMARK    4  A    between atoms: C14_5  and  C15_6 
REMARK    5  A    between atoms: C15_6  and  C16_7 
REMARK    6  A    between atoms: C2_16  and  N1_13 
REMARK    7  A    between atoms: C13_21  and  N3_14 
REMARK    8  A    between atoms: C1_15  and  C2_16 
REMARK       I    between atoms: N2_24  and  C1_15 
REMARK    9  A    between atoms: C2_16  and  C10_18 
REMARK   10  A    between atoms: C10_18  and  C11_19 
REMARK   11  A    between atoms: C11_19  and  C12_20 
REMARK   12  A    between atoms: C12_20  and  C13_21 
REMARK   13  A    between atoms: C5_25  and  C9_29 
ROOT
ATOM      1  C2  LPR d   1     -27.261 -17.522 -35.334  0.00  0.00     0.179 C 
ATOM      2  H16 LPR d   1     -27.729 -18.252 -36.010  0.00  0.00     0.099 H 
ENDROOT
BRANCH   1   3
ATOM      3  N1  LPR d   1     -27.119 -18.138 -33.969  0.00  0.00    -0.048 N 
ATOM      4  H11 LPR d   1     -26.699 -17.412 -33.410  0.00  0.00     0.279 HD
ATOM      5  H12 LPR d   1     -28.067 -18.291 -33.664  0.00  0.00     0.279 HD
BRANCH   3   6
ATOM      6  C4  LPR d   1     -26.542 -19.129 -33.648  0.00  0.00     0.185 C 
ATOM      7  H1  LPR d   1     -25.508 -18.928 -33.965  0.00  0.00     0.101 H 
BRANCH   6   8
ATOM      8  C3  LPR d   1     -27.074 -20.350 -34.439  0.00  0.00     0.204 C 
ATOM      9  O2  LPR d   1     -28.303 -20.408 -34.774  0.00  0.00    -0.646 OA
ATOM     10  O3  LPR d   1     -26.289 -21.236 -34.776  0.00  0.00    -0.646 OA
ENDBRANCH   6   8
BRANCH   6  11
ATOM     11  C14 LPR d   1     -26.418 -19.721 -32.300  0.00  0.00    -0.025 C 
ATOM     12  H2  LPR d   1     -27.203 -20.488 -32.224  0.00  0.00     0.037 H 
ATOM     13  H3  LPR d   1     -26.625 -18.912 -31.584  0.00  0.00     0.037 H 
BRANCH  11  14
ATOM     14  C15 LPR d   1     -25.138 -20.374 -31.846  0.00  0.00    -0.039 C 
ATOM     15  H4  LPR d   1     -24.354 -19.611 -31.960  0.00  0.00     0.040 H 
ATOM     16  H5  LPR d   1     -24.954 -21.197 -32.552  0.00  0.00     0.040 H 
BRANCH  14  17
ATOM     17  C16 LPR d   1     -24.948 -20.949 -30.496  0.00  0.00    -0.058 A 
ATOM     18  C17 LPR d   1     -25.516 -20.316 -29.288  0.00  0.00    -0.077 A 
ATOM     19  C18 LPR d   1     -25.275 -20.912 -27.995  0.00  0.00    -0.082 A 
ATOM     20  H6  LPR d   1     -26.108 -19.412 -29.372  0.00  0.00     0.084 H 
ATOM     21  C19 LPR d   1     -24.470 -22.138 -27.880  0.00  0.00    -0.083 A 
ATOM     22  H7  LPR d   1     -25.689 -20.454 -27.104  0.00  0.00     0.083 H 
ATOM     23  C20 LPR d   1     -23.909 -22.767 -29.080  0.00  0.00    -0.082 A 
ATOM     24  H8  LPR d   1     -24.291 -22.578 -26.905  0.00  0.00     0.083 H 
ATOM     25  C21 LPR d   1     -24.150 -22.168 -30.382  0.00  0.00    -0.077 A 
ATOM     26  H9  LPR d   1     -23.319 -23.672 -28.997  0.00  0.00     0.083 H 
ATOM     27  H10 LPR d   1     -23.736 -22.627 -31.272  0.00  0.00     0.084 H 
ENDBRANCH  14  17
ENDBRANCH  11  14
ENDBRANCH   6  11
ENDBRANCH   3   6
ENDBRANCH   1   3
BRANCH   1  28
ATOM     28  C1  LPR d   1     -25.807 -17.152 -35.884  0.00  0.00     0.252 C 
ATOM     29  O1  LPR d   1     -24.852 -17.038 -35.047  0.00  0.00    -0.271 OA
ATOM     30  N2  LPR d   1     -25.610 -16.968 -37.244  0.00  0.00    -0.329 N 
ATOM     31  C5  LPR d   1     -24.249 -16.619 -37.857  0.00  0.00     0.115 A 
ATOM     32  C8  LPR d   1     -26.648 -17.077 -38.305  0.00  0.00     0.014 A 
ATOM     33  C6  LPR d   1     -24.601 -16.559 -39.342  0.00  0.00    -0.073 A 
ATOM     34  H25 LPR d   1     -23.483 -17.374 -37.624  0.00  0.00     0.096 H 
ATOM     35  C7  LPR d   1     -25.919 -16.808 -39.536  0.00  0.00    -0.087 A 
ATOM     36  H26 LPR d   1     -23.889 -16.345 -40.138  0.00  0.00     0.080 H 
ATOM     37  H27 LPR d   1     -26.388 -16.807 -40.519  0.00  0.00     0.079 H 
ATOM     38  H28 LPR d   1     -27.444 -16.334 -38.151  0.00  0.00     0.070 H 
ATOM     39  H29 LPR d   1     -27.086 -18.086 -38.322  0.00  0.00     0.070 H 
BRANCH  31  40
ATOM     40  C9  LPR d   1     -23.770 -15.186 -37.440  0.00  0.00     0.200 C 
ATOM     41  O4  LPR d   1     -22.570 -15.182 -36.996  0.00  0.00    -0.646 OA
ATOM     42  O5  LPR d   1     -24.474 -14.225 -37.547  0.00  0.00    -0.646 OA
ENDBRANCH  31  40
ENDBRANCH   1  28
BRANCH   1  43
ATOM     43  C10 LPR d   1     -28.122 -16.285 -35.284  0.00  0.00    -0.030 C 
ATOM     44  H17 LPR d   1     -29.001 -16.562 -34.684  0.00  0.00     0.036 H 
ATOM     45  H18 LPR d   1     -28.431 -16.099 -36.323  0.00  0.00     0.036 H 
BRANCH  43  46
ATOM     46  C11 LPR d   1     -27.692 -15.004 -34.773  0.00  0.00    -0.061 C 
ATOM     47  H19 LPR d   1     -26.594 -14.956 -34.810  0.00  0.00     0.033 H 
ATOM     48  H20 LPR d   1     -28.028 -14.905 -33.730  0.00  0.00     0.033 H 
BRANCH  46  49
ATOM     49  C12 LPR d   1     -28.281 -13.818 -35.611  0.00  0.00    -0.043 C 
ATOM     50  H21 LPR d   1     -29.378 -13.904 -35.602  0.00  0.00     0.035 H 
ATOM     51  H22 LPR d   1     -27.914 -13.914 -36.644  0.00  0.00     0.035 H 
BRANCH  49  52
ATOM     52  C13 LPR d   1     -27.941 -12.542 -35.145  0.00  0.00     0.080 C 
ATOM     53  H23 LPR d   1     -28.303 -12.412 -34.114  0.00  0.00     0.075 H 
ATOM     54  H24 LPR d   1     -26.849 -12.415 -35.169  0.00  0.00     0.075 H 
BRANCH  52  55
ATOM     55  N3  LPR d   1     -28.584 -11.543 -36.034  0.00  0.00    -0.079 N 
ATOM     56  H13 LPR d   1     -28.353 -10.614 -35.718  0.00  0.00     0.274 HD
ATOM     57  H14 LPR d   1     -29.584 -11.667 -36.011  0.00  0.00     0.274 HD
ATOM     58  H15 LPR d   1     -28.252 -11.669 -36.977  0.00  0.00     0.274 HD
ENDBRANCH  52  55
ENDBRANCH  49  52
ENDBRANCH  46  49
ENDBRANCH  43  46
ENDBRANCH   1  43
TORSDOF 13
