REMARK  6 active torsions:
REMARK  status: ('A' for Active; 'I' for Inactive)
REMARK    1  A    between atoms: C10_3  and  C11_4 
REMARK    2  A    between atoms: O6_17  and  C10_3 
REMARK    3  A    between atoms: C20_11  and  S23_26 
REMARK    4  A    between atoms: S23_26  and  N26_14 
REMARK    5  A    between atoms: C6_16  and  O6_17 
REMARK    6  A    between atoms: N2_23  and  C17_24 
ROOT
ATOM      1  C2  4SP d   1      11.161 -10.921  12.030  0.00  0.00     0.731 A 
ATOM      2  C8  4SP d   1      14.513  -9.338  14.324  0.00  0.00     0.067 A 
ATOM      3  N1  4SP d   1      11.766 -10.161  11.043  0.00  0.00    -0.036 NA
ATOM      4  C6  4SP d   1      12.864  -9.425  11.283  0.00  0.00     0.214 A 
ATOM      5  C5  4SP d   1      13.410  -9.519  12.537  0.00  0.00     0.136 A 
ATOM      6  N7  4SP d   1      14.469  -8.960  13.055  0.00  0.00    -0.344 N 
ATOM      7  N9  4SP d   1      13.484 -10.164  14.574  0.00  0.00    -0.222 NA
ATOM      8  C4  4SP d   1      12.774 -10.285  13.530  0.00  0.00     0.201 A 
ATOM      9  N3  4SP d   1      11.677 -10.988  13.290  0.00  0.00    -0.040 NA
ATOM     10  N2  4SP d   1      10.033 -11.613  11.730  0.00  0.00    -0.188 N 
ATOM     11  H1  4SP d   1      15.264  -9.028  15.049  0.00  0.00     0.143 H 
ATOM     12  H20 4SP d   1      15.139  -8.345  12.572  0.00  0.00     0.167 HD
ATOM     13  H21 4SP d   1       9.734 -12.367  12.364  0.00  0.00     0.184 HD
ENDROOT
BRANCH   4  14
ATOM     14  O6  4SP d   1      13.502  -8.682  10.384  0.00  0.00    -0.332 OA
BRANCH  14  15
ATOM     15  C10 4SP d   1      12.799  -8.239   9.134  0.00  0.00     0.031 C 
ATOM     16  H2  4SP d   1      12.799  -9.034   8.374  0.00  0.00     0.075 H 
ATOM     17  H3  4SP d   1      11.764  -7.934   9.346  0.00  0.00     0.075 H 
BRANCH  15  18
ATOM     18  C11 4SP d   1      13.649  -7.045   8.687  0.00  0.00    -0.033 C 
ATOM     19  C12 4SP d   1      13.031  -6.032   7.741  0.00  0.00    -0.060 C 
ATOM     20  C13 4SP d   1      13.702  -4.662   7.973  0.00  0.00    -0.065 C 
ATOM     21  H5  4SP d   1      11.952  -5.953   7.937  0.00  0.00     0.033 H 
ATOM     22  H6  4SP d   1      13.192  -6.351   6.701  0.00  0.00     0.033 H 
ATOM     23  C14 4SP d   1      15.221  -4.753   7.732  0.00  0.00    -0.065 C 
ATOM     24  H7  4SP d   1      13.519  -4.341   9.009  0.00  0.00     0.033 H 
ATOM     25  H8  4SP d   1      13.270  -3.926   7.279  0.00  0.00     0.033 H 
ATOM     26  C15 4SP d   1      15.820  -6.155   8.127  0.00  0.00    -0.065 C 
ATOM     27  H9  4SP d   1      15.719  -3.977   8.332  0.00  0.00     0.033 H 
ATOM     28  H10 4SP d   1      15.419  -4.575   6.665  0.00  0.00     0.033 H 
ATOM     29  C16 4SP d   1      14.910  -7.413   7.972  0.00  0.00    -0.060 C 
ATOM     30  H11 4SP d   1      16.119  -6.096   9.184  0.00  0.00     0.033 H 
ATOM     31  H12 4SP d   1      16.711  -6.317   7.502  0.00  0.00     0.033 H 
ATOM     32  H13 4SP d   1      14.710  -7.621   6.911  0.00  0.00     0.033 H 
ATOM     33  H14 4SP d   1      15.379  -8.293   8.436  0.00  0.00     0.033 H 
ATOM     34  H4  4SP d   1      13.916  -6.516   9.614  0.00  0.00     0.043 H 
ENDBRANCH  15  18
ENDBRANCH  14  15
ENDBRANCH   4  14
BRANCH  10  35
ATOM     35  C17 4SP d   1       9.289 -11.356  10.639  0.00  0.00     0.049 A 
ATOM     36  C22 4SP d   1       9.462 -10.211   9.848  0.00  0.00    -0.055 A 
ATOM     37  C21 4SP d   1       8.627  -9.970   8.732  0.00  0.00    -0.058 A 
ATOM     38  H17 4SP d   1      10.245  -9.503  10.095  0.00  0.00     0.087 H 
ATOM     39  C20 4SP d   1       7.626 -10.882   8.383  0.00  0.00     0.079 A 
ATOM     40  H16 4SP d   1       8.764  -9.071   8.142  0.00  0.00     0.086 H 
ATOM     41  C19 4SP d   1       7.455 -12.030   9.155  0.00  0.00    -0.058 A 
ATOM     42  C18 4SP d   1       8.274 -12.253  10.260  0.00  0.00    -0.055 A 
ATOM     43  H15 4SP d   1       6.686 -12.748   8.896  0.00  0.00     0.086 H 
ATOM     44  H22 4SP d   1       8.123 -13.150  10.849  0.00  0.00     0.087 H 
BRANCH  39  45
ATOM     45  S23 4SP d   1       6.567 -10.561   6.988  0.00  0.00     0.256 S 
ATOM     46  O24 4SP d   1       5.387  -9.920   7.614  0.00  0.00    -0.201 OA
ATOM     47  O25 4SP d   1       6.222 -11.797   6.281  0.00  0.00    -0.201 OA
BRANCH  45  48
ATOM     48  N26 4SP d   1       7.246  -9.605   5.807  0.00  0.00    -0.324 N 
ATOM     49  H18 4SP d   1       6.721  -9.374   4.988  0.00  0.00     0.169 HD
ATOM     50  H19 4SP d   1       8.179  -9.261   5.917  0.00  0.00     0.169 HD
ENDBRANCH  45  48
ENDBRANCH  39  45
ENDBRANCH  10  35
TORSDOF 6
