REMARK  14 active torsions:
REMARK  status: ('A' for Active; 'I' for Inactive)
REMARK    1  A    between atoms: C1_1  and  O2_2 
REMARK    2  A    between atoms: O2_2  and  C3_3 
REMARK    3  A    between atoms: C6_6  and  S9_9 
REMARK    4  A    between atoms: S9_9  and  N12_12 
REMARK    5  A    between atoms: N12_12  and  C13_13 
REMARK    6  A    between atoms: C13_13  and  C14_14 
REMARK    7  A    between atoms: C14_14  and  O16_15 
REMARK    8  A    between atoms: C14_14  and  C17_16 
REMARK    9  A    between atoms: C17_16  and  C19_17 
REMARK   10  A    between atoms: C17_16  and  N26_24 
REMARK   11  A    between atoms: C19_17  and  C20_18 
REMARK   12  A    between atoms: N26_24  and  C29_25 
REMARK   13  A    between atoms: C29_25  and  C30_26 
REMARK   14  A    between atoms: C36_32  and  N37_33 
ROOT
ATOM      1  C17 C7M d   1       6.074  20.923  50.029  0.00  0.00     0.132 C 
ATOM      2  H13 C7M d   1       6.469  20.894  51.055  0.00  0.00     0.088 H 
ENDROOT
BRANCH   1   3
ATOM      3  C14 C7M d   1       5.660  19.495  49.635  0.00  0.00     0.079 C 
ATOM      4  H11 C7M d   1       4.871  19.146  50.317  0.00  0.00     0.088 H 
BRANCH   3   5
ATOM      5  C13 C7M d   1       5.150  19.413  48.190  0.00  0.00     0.029 C 
ATOM      6  H9  C7M d   1       4.291  20.090  48.068  0.00  0.00     0.069 H 
ATOM      7  H10 C7M d   1       5.954  19.713  47.502  0.00  0.00     0.069 H 
BRANCH   5   8
ATOM      8  N12 C7M d   1       4.735  18.042  47.882  0.00  0.00    -0.313 N 
ATOM      9  H8  C7M d   1       4.808  17.308  48.558  0.00  0.00     0.172 HD
BRANCH   8  10
ATOM     10  S9  C7M d   1       4.137  17.764  46.357  0.00  0.00     0.258 S 
ATOM     11  O10 C7M d   1       3.773  16.387  46.386  0.00  0.00    -0.201 OA
ATOM     12  O11 C7M d   1       4.980  18.366  45.388  0.00  0.00    -0.201 OA
BRANCH  10  13
ATOM     13  C6  C7M d   1       2.618  18.630  46.290  0.00  0.00     0.079 A 
ATOM     14  C5  C7M d   1       2.418  19.668  45.399  0.00  0.00    -0.058 A 
ATOM     15  C4  C7M d   1       1.214  20.307  45.369  0.00  0.00    -0.049 A 
ATOM     16  H5  C7M d   1       3.214  19.972  44.728  0.00  0.00     0.086 H 
ATOM     17  C3  C7M d   1       0.191  19.944  46.230  0.00  0.00     0.068 A 
ATOM     18  H4  C7M d   1       1.055  21.112  44.660  0.00  0.00     0.087 H 
ATOM     19  C8  C7M d   1       0.397  18.909  47.125  0.00  0.00    -0.049 A 
ATOM     20  C7  C7M d   1       1.610  18.252  47.155  0.00  0.00    -0.058 A 
ATOM     21  H7  C7M d   1      -0.395  18.614  47.803  0.00  0.00     0.087 H 
ATOM     22  H6  C7M d   1       1.771  17.441  47.856  0.00  0.00     0.086 H 
BRANCH  17  23
ATOM     23  O2  C7M d   1      -0.995  20.625  46.134  0.00  0.00    -0.356 OA
BRANCH  23  24
ATOM     24  C1  C7M d   1      -2.102  20.251  46.957  0.00  0.00     0.010 C 
ATOM     25  H1  C7M d   1      -2.958  20.906  46.740  0.00  0.00     0.066 H 
ATOM     26  H2  C7M d   1      -1.822  20.352  48.016  0.00  0.00     0.066 H 
ATOM     27  H3  C7M d   1      -2.377  19.207  46.749  0.00  0.00     0.066 H 
ENDBRANCH  23  24
ENDBRANCH  17  23
ENDBRANCH  10  13
ENDBRANCH   8  10
ENDBRANCH   5   8
ENDBRANCH   3   5
BRANCH   3  28
ATOM     28  O16 C7M d   1       6.809  18.659  49.747  0.00  0.00    -0.392 OA
ATOM     29  H12 C7M d   1       7.141  18.696  50.636  0.00  0.00     0.210 HD
ENDBRANCH   3  28
ENDBRANCH   1   3
BRANCH   1  30
ATOM     30  C19 C7M d   1       4.880  21.878  49.998  0.00  0.00    -0.012 C 
ATOM     31  H14 C7M d   1       4.491  21.925  48.970  0.00  0.00     0.043 H 
ATOM     32  H15 C7M d   1       5.218  22.878  50.309  0.00  0.00     0.043 H 
BRANCH  30  33
ATOM     33  C20 C7M d   1       3.773  21.435  50.914  0.00  0.00    -0.056 A 
ATOM     34  C21 C7M d   1       2.528  21.123  50.397  0.00  0.00    -0.077 A 
ATOM     35  C22 C7M d   1       1.515  20.723  51.244  0.00  0.00    -0.082 A 
ATOM     36  H16 C7M d   1       2.349  21.193  49.330  0.00  0.00     0.084 H 
ATOM     37  C23 C7M d   1       1.734  20.644  52.608  0.00  0.00    -0.083 A 
ATOM     38  H17 C7M d   1       0.542  20.469  50.839  0.00  0.00     0.083 H 
ATOM     39  C24 C7M d   1       2.984  20.952  53.126  0.00  0.00    -0.082 A 
ATOM     40  H18 C7M d   1       0.931  20.342  53.270  0.00  0.00     0.083 H 
ATOM     41  C25 C7M d   1       4.005  21.353  52.276  0.00  0.00    -0.077 A 
ATOM     42  H19 C7M d   1       3.163  20.880  54.193  0.00  0.00     0.083 H 
ATOM     43  H20 C7M d   1       4.981  21.601  52.677  0.00  0.00     0.084 H 
ENDBRANCH  30  33
ENDBRANCH   1  30
BRANCH   1  44
ATOM     44  N26 C7M d   1       7.137  21.429  49.131  0.00  0.00    -0.064 N 
ATOM     45  H21 C7M d   1       6.715  21.776  48.284  0.00  0.00     0.278 HD
ATOM     46  H22 C7M d   1       7.767  20.674  48.908  0.00  0.00     0.278 HD
BRANCH  44  47
ATOM     47  C29 C7M d   1       7.915  22.543  49.788  0.00  0.00     0.108 C 
ATOM     48  H23 C7M d   1       8.261  22.223  50.782  0.00  0.00     0.083 H 
ATOM     49  H24 C7M d   1       7.278  23.434  49.891  0.00  0.00     0.083 H 
BRANCH  47  50
ATOM     50  C30 C7M d   1       9.104  22.859  48.906  0.00  0.00    -0.002 A 
ATOM     51  C31 C7M d   1       9.073  23.992  48.094  0.00  0.00    -0.052 A 
ATOM     52  C32 C7M d   1      10.139  24.269  47.244  0.00  0.00     0.034 A 
ATOM     53  H25 C7M d   1       8.218  24.657  48.125  0.00  0.00     0.087 H 
ATOM     54 CL33 C7M d   1      10.110  25.689  46.237  0.00  0.00    -0.084 Cl
ATOM     55  C34 C7M d   1      11.223  23.401  47.198  0.00  0.00    -0.060 A 
ATOM     56  C35 C7M d   1      11.250  22.259  47.987  0.00  0.00    -0.053 A 
ATOM     57  H26 C7M d   1      12.056  23.618  46.539  0.00  0.00     0.086 H 
ATOM     58  C36 C7M d   1      10.185  21.982  48.835  0.00  0.00     0.069 A 
ATOM     59  H27 C7M d   1      12.099  21.586  47.942  0.00  0.00     0.087 H 
BRANCH  58  60
ATOM     60  N37 C7M d   1      10.256  20.842  49.664  0.00  0.00    -0.206 N 
ATOM     61  C38 C7M d   1      10.223  19.531  49.342  0.00  0.00     0.113 A 
ATOM     62  N39 C7M d   1      10.351  18.855  50.458  0.00  0.00    -0.122 NA
ATOM     63  H28 C7M d   1      10.111  19.113  48.343  0.00  0.00     0.149 H 
ATOM     64  N40 C7M d   1      10.479  19.642  51.464  0.00  0.00    -0.023 NA
ATOM     65  N41 C7M d   1      10.416  20.863  51.063  0.00  0.00    -0.040 NA
ENDBRANCH  58  60
ENDBRANCH  47  50
ENDBRANCH  44  47
ENDBRANCH   1  44
TORSDOF 14
