REMARK  16 active torsions:
REMARK  status: ('A' for Active; 'I' for Inactive)
REMARK    1  A    between atoms: C1_1  and  O2_2 
REMARK    2  A    between atoms: O2_2  and  C3_3 
REMARK    3  A    between atoms: C5_5  and  C6_6 
REMARK    4  A    between atoms: C7_7  and  S12_12 
REMARK    5  A    between atoms: C8_8  and  C9_9 
REMARK    6  A    between atoms: C10_10  and  C11_11 
REMARK    7  A    between atoms: S12_12  and  N15_15 
REMARK    8  A    between atoms: N15_15  and  C16_16 
REMARK    9  A    between atoms: C16_16  and  C17_17 
REMARK   10  A    between atoms: C17_17  and  O18_18 
REMARK   11  A    between atoms: C17_17  and  C19_19 
REMARK   12  A    between atoms: C19_19  and  C20_20 
REMARK   13  A    between atoms: C19_19  and  N27_27 
REMARK   14  A    between atoms: C20_20  and  C21_21 
REMARK   15  A    between atoms: N27_27  and  C28_28 
REMARK   16  A    between atoms: C28_28  and  C29_29 
ROOT
ATOM      1  C17 C5M d   1       6.102  19.639  49.937  0.00  0.00     0.079 C 
ATOM      2  H17 C5M d   1       5.473  19.241  50.747  0.00  0.00     0.088 H 
ENDROOT
BRANCH   1   3
ATOM      3  C16 C5M d   1       5.314  19.627  48.619  0.00  0.00     0.029 C 
ATOM      4  H15 C5M d   1       4.252  19.825  48.828  0.00  0.00     0.069 H 
ATOM      5  H16 C5M d   1       5.708  20.409  47.953  0.00  0.00     0.069 H 
BRANCH   3   6
ATOM      6  N15 C5M d   1       5.444  18.320  47.963  0.00  0.00    -0.313 N 
ATOM      7  H14 C5M d   1       6.308  18.083  47.518  0.00  0.00     0.172 HD
BRANCH   6   8
ATOM      8  S12 C5M d   1       4.203  17.230  47.939  0.00  0.00     0.260 S 
ATOM      9  O13 C5M d   1       4.022  16.871  49.309  0.00  0.00    -0.201 OA
ATOM     10  O14 C5M d   1       4.537  16.298  46.920  0.00  0.00    -0.201 OA
BRANCH   8  11
ATOM     11  C7  C5M d   1       2.719  18.080  47.423  0.00  0.00     0.092 A 
ATOM     12  C5  C5M d   1       1.610  18.239  48.269  0.00  0.00    -0.035 A 
ATOM     13  C4  C5M d   1       0.483  18.890  47.798  0.00  0.00    -0.043 A 
ATOM     14  C3  C5M d   1       0.430  19.426  46.517  0.00  0.00     0.075 A 
ATOM     15  H4  C5M d   1      -0.381  18.984  48.446  0.00  0.00     0.088 H 
ATOM     16  C10 C5M d   1       1.517  19.287  45.673  0.00  0.00    -0.021 A 
ATOM     17  C8  C5M d   1       2.651  18.615  46.122  0.00  0.00    -0.029 A 
BRANCH  12  18
ATOM     18  C6  C5M d   1       1.535  17.712  49.689  0.00  0.00    -0.050 C 
ATOM     19  H5  C5M d   1       0.560  17.973  50.126  0.00  0.00     0.033 H 
ATOM     20  H6  C5M d   1       2.338  18.163  50.290  0.00  0.00     0.033 H 
ATOM     21  H7  C5M d   1       1.652  16.618  49.681  0.00  0.00     0.033 H 
ENDBRANCH  12  18
BRANCH  14  22
ATOM     22  O2  C5M d   1      -0.695  20.055  46.072  0.00  0.00    -0.355 OA
BRANCH  22  23
ATOM     23  C1  C5M d   1      -1.723  19.972  47.077  0.00  0.00     0.010 C 
ATOM     24  H1  C5M d   1      -2.630  20.480  46.717  0.00  0.00     0.066 H 
ATOM     25  H2  C5M d   1      -1.373  20.457  48.000  0.00  0.00     0.066 H 
ATOM     26  H3  C5M d   1      -1.951  18.916  47.282  0.00  0.00     0.066 H 
ENDBRANCH  22  23
ENDBRANCH  14  22
BRANCH  16  27
ATOM     27  C11 C5M d   1       1.447  19.846  44.268  0.00  0.00    -0.048 C 
ATOM     28  H11 C5M d   1       0.473  20.335  44.116  0.00  0.00     0.033 H 
ATOM     29  H12 C5M d   1       1.564  19.028  43.542  0.00  0.00     0.033 H 
ATOM     30  H13 C5M d   1       2.253  20.581  44.125  0.00  0.00     0.033 H 
ENDBRANCH  16  27
BRANCH  17  31
ATOM     31  C9  C5M d   1       3.814  18.469  45.171  0.00  0.00    -0.049 C 
ATOM     32  H8  C5M d   1       4.627  17.920  45.668  0.00  0.00     0.033 H 
ATOM     33  H9  C5M d   1       4.173  19.466  44.874  0.00  0.00     0.033 H 
ATOM     34  H10 C5M d   1       3.490  17.915  44.278  0.00  0.00     0.033 H 
ENDBRANCH  17  31
ENDBRANCH   8  11
ENDBRANCH   6   8
ENDBRANCH   3   6
ENDBRANCH   1   3
BRANCH   1  35
ATOM     35  O18 C5M d   1       7.264  18.816  49.769  0.00  0.00    -0.392 OA
ATOM     36  H18 C5M d   1       7.798  19.164  49.065  0.00  0.00     0.210 HD
ENDBRANCH   1  35
BRANCH   1  37
ATOM     37  C19 C5M d   1       6.552  21.067  50.293  0.00  0.00     0.132 C 
ATOM     38  H19 C5M d   1       6.964  21.069  51.313  0.00  0.00     0.088 H 
BRANCH  37  39
ATOM     39  C20 C5M d   1       5.382  22.065  50.214  0.00  0.00    -0.012 C 
ATOM     40  H20 C5M d   1       5.098  22.188  49.158  0.00  0.00     0.043 H 
ATOM     41  H21 C5M d   1       5.719  23.031  50.618  0.00  0.00     0.043 H 
BRANCH  39  42
ATOM     42  C21 C5M d   1       4.158  21.618  50.993  0.00  0.00    -0.056 A 
ATOM     43  C22 C5M d   1       2.904  21.646  50.378  0.00  0.00    -0.077 A 
ATOM     44  C23 C5M d   1       1.771  21.245  51.075  0.00  0.00    -0.082 A 
ATOM     45  H22 C5M d   1       2.814  21.982  49.351  0.00  0.00     0.084 H 
ATOM     46  C24 C5M d   1       1.874  20.834  52.391  0.00  0.00    -0.083 A 
ATOM     47  H23 C5M d   1       0.804  21.254  50.586  0.00  0.00     0.083 H 
ATOM     48  C25 C5M d   1       3.121  20.814  53.013  0.00  0.00    -0.082 A 
ATOM     49  H24 C5M d   1       0.989  20.529  52.937  0.00  0.00     0.083 H 
ATOM     50  C26 C5M d   1       4.261  21.203  52.317  0.00  0.00    -0.077 A 
ATOM     51  H25 C5M d   1       3.203  20.493  54.045  0.00  0.00     0.083 H 
ATOM     52  H26 C5M d   1       5.228  21.183  52.806  0.00  0.00     0.084 H 
ENDBRANCH  39  42
ENDBRANCH  37  39
BRANCH  37  53
ATOM     53  N27 C5M d   1       7.582  21.504  49.340  0.00  0.00    -0.064 N 
ATOM     54  H27 C5M d   1       7.129  21.950  48.558  0.00  0.00     0.278 HD
ATOM     55  H28 C5M d   1       8.088  20.694  49.018  0.00  0.00     0.278 HD
BRANCH  53  56
ATOM     56  C28 C5M d   1       8.561  22.473  49.946  0.00  0.00     0.106 C 
ATOM     57  H29 C5M d   1       9.112  22.002  50.773  0.00  0.00     0.083 H 
ATOM     58  H30 C5M d   1       8.042  23.370  50.315  0.00  0.00     0.083 H 
BRANCH  56  59
ATOM     59  C29 C5M d   1       9.493  22.824  48.819  0.00  0.00    -0.031 A 
ATOM     60  C30 C5M d   1      10.517  21.939  48.495  0.00  0.00    -0.075 A 
ATOM     61  C31 C5M d   1      11.373  22.206  47.418  0.00  0.00    -0.081 A 
ATOM     62  H31 C5M d   1      10.653  21.037  49.080  0.00  0.00     0.084 H 
ATOM     63  C32 C5M d   1      11.166  23.368  46.665  0.00  0.00    -0.062 A 
ATOM     64  H32 C5M d   1      12.180  21.526  47.172  0.00  0.00     0.083 H 
ATOM     65  C33 C5M d   1      10.131  24.257  46.974  0.00  0.00     0.034 A 
ATOM     66  H33 C5M d   1      11.820  23.583  45.827  0.00  0.00     0.086 H 
ATOM     67 CL34 C5M d   1       9.916  25.721  46.022  0.00  0.00    -0.084 Cl
ATOM     68  C35 C5M d   1       9.290  23.983  48.066  0.00  0.00    -0.054 A 
ATOM     69  H34 C5M d   1       8.489  24.667  48.322  0.00  0.00     0.086 H 
ENDBRANCH  56  59
ENDBRANCH  53  56
ENDBRANCH  37  53
ENDBRANCH   1  37
TORSDOF 16
