REMARK  9 active torsions:
REMARK  status: ('A' for Active; 'I' for Inactive)
REMARK    1  A    between atoms: N1_1  and  C2_2 
REMARK    2  A    between atoms: C2_2  and  C3_3 
REMARK    3  A    between atoms: C2_2  and  C10_10 
REMARK    4  A    between atoms: C3_3  and  C4_4 
REMARK    5  A    between atoms: C10_10  and  O11_11 
REMARK    6  A    between atoms: C10_10  and  C12_12 
REMARK    7  A    between atoms: C12_12  and  N13_13 
REMARK    8  A    between atoms: N13_13  and  S14_14 
REMARK    9  A    between atoms: S14_14  and  C17_17 
ROOT
ATOM      1  C12 C3M d   1       5.592  19.103  49.801  0.00  0.00     0.029 C 
ATOM      2  H14 C3M d   1       4.851  19.788  49.363  0.00  0.00     0.069 H 
ATOM      3  H15 C3M d   1       5.159  18.610  50.684  0.00  0.00     0.069 H 
ENDROOT
BRANCH   1   4
ATOM      4  C10 C3M d   1       6.855  19.861  50.183  0.00  0.00     0.079 C 
ATOM      5  H12 C3M d   1       7.671  19.160  50.413  0.00  0.00     0.088 H 
BRANCH   4   6
ATOM      6  C2  C3M d   1       6.552  20.707  51.402  0.00  0.00     0.129 C 
ATOM      7  H4  C3M d   1       6.122  20.098  52.210  0.00  0.00     0.088 H 
BRANCH   6   8
ATOM      8  N1  C3M d   1       7.829  21.306  51.810  0.00  0.00    -0.072 N 
ATOM      9  H1  C3M d   1       7.684  21.884  52.623  0.00  0.00     0.274 HD
ATOM     10  H2  C3M d   1       8.191  21.870  51.057  0.00  0.00     0.274 HD
ATOM     11  H3  C3M d   1       8.488  20.576  52.030  0.00  0.00     0.274 HD
ENDBRANCH   6   8
BRANCH   6  12
ATOM     12  C3  C3M d   1       5.598  21.824  51.007  0.00  0.00    -0.012 C 
ATOM     13  H5  C3M d   1       5.773  22.071  49.950  0.00  0.00     0.043 H 
ATOM     14  H6  C3M d   1       5.817  22.703  51.630  0.00  0.00     0.043 H 
BRANCH  12  15
ATOM     15  C4  C3M d   1       4.140  21.472  51.178  0.00  0.00    -0.056 A 
ATOM     16  C5  C3M d   1       3.248  21.758  50.159  0.00  0.00    -0.077 A 
ATOM     17  C6  C3M d   1       1.909  21.436  50.308  0.00  0.00    -0.082 A 
ATOM     18  H7  C3M d   1       3.596  22.232  49.248  0.00  0.00     0.084 H 
ATOM     19  C7  C3M d   1       1.447  20.849  51.472  0.00  0.00    -0.083 A 
ATOM     20  H8  C3M d   1       1.215  21.647  49.502  0.00  0.00     0.083 H 
ATOM     21  C8  C3M d   1       2.335  20.570  52.484  0.00  0.00    -0.082 A 
ATOM     22  H9  C3M d   1       0.396  20.611  51.585  0.00  0.00     0.083 H 
ATOM     23  C9  C3M d   1       3.670  20.898  52.356  0.00  0.00    -0.077 A 
ATOM     24  H10 C3M d   1       1.984  20.089  53.390  0.00  0.00     0.083 H 
ATOM     25  H11 C3M d   1       4.354  20.708  53.175  0.00  0.00     0.084 H 
ENDBRANCH  12  15
ENDBRANCH   6  12
ENDBRANCH   4   6
BRANCH   4  26
ATOM     26  O11 C3M d   1       7.210  20.672  49.057  0.00  0.00    -0.392 OA
ATOM     27  H13 C3M d   1       7.394  20.113  48.311  0.00  0.00     0.210 HD
ENDBRANCH   4  26
ENDBRANCH   1   4
BRANCH   1  28
ATOM     28  N13 C3M d   1       6.010  18.107  48.815  0.00  0.00    -0.313 N 
ATOM     29  H16 C3M d   1       6.965  18.043  48.527  0.00  0.00     0.172 HD
BRANCH  28  30
ATOM     30  S14 C3M d   1       4.877  17.097  48.192  0.00  0.00     0.258 S 
ATOM     31  O15 C3M d   1       5.517  16.442  47.100  0.00  0.00    -0.201 OA
ATOM     32  O16 C3M d   1       4.379  16.448  49.355  0.00  0.00    -0.201 OA
BRANCH  30  33
ATOM     33  C17 C3M d   1       3.576  18.014  47.415  0.00  0.00     0.080 A 
ATOM     34  C18 C3M d   1       3.868  18.648  46.192  0.00  0.00    -0.059 A 
ATOM     35  C19 C3M d   1       2.943  19.390  45.494  0.00  0.00    -0.071 A 
ATOM     36  H17 C3M d   1       4.866  18.547  45.782  0.00  0.00     0.085 H 
ATOM     37  C20 C3M d   1       1.645  19.513  46.028  0.00  0.00    -0.026 A 
ATOM     38  H18 C3M d   1       3.206  19.868  44.557  0.00  0.00     0.084 H 
ATOM     39  C21 C3M d   1       0.661  20.240  45.346  0.00  0.00    -0.072 A 
ATOM     40  C25 C3M d   1       1.331  18.872  47.281  0.00  0.00    -0.025 A 
ATOM     41  C22 C3M d   1      -0.590  20.333  45.896  0.00  0.00    -0.082 A 
ATOM     42  H19 C3M d   1       0.885  20.720  44.400  0.00  0.00     0.084 H 
ATOM     43  C23 C3M d   1      -0.909  19.717  47.107  0.00  0.00    -0.082 A 
ATOM     44  H20 C3M d   1      -1.353  20.901  45.376  0.00  0.00     0.083 H 
ATOM     45  C24 C3M d   1       0.031  18.998  47.788  0.00  0.00    -0.072 A 
ATOM     46  H21 C3M d   1      -1.911  19.810  47.510  0.00  0.00     0.083 H 
ATOM     47  H22 C3M d   1      -0.230  18.522  48.726  0.00  0.00     0.084 H 
ATOM     48  C26 C3M d   1       2.321  18.116  47.972  0.00  0.00    -0.050 A 
ATOM     49  H23 C3M d   1       2.092  17.632  48.914  0.00  0.00     0.087 H 
ENDBRANCH  30  33
ENDBRANCH  28  30
ENDBRANCH   1  28
TORSDOF 9
