REMARK  1 active torsions:
REMARK  status: ('A' for Active; 'I' for Inactive)
REMARK    1  A    between atoms: C5_5  and  N8_8 
ROOT
ATOM      1 CL1  C1M d   1       9.976  25.561  46.475  0.00  0.00    -0.084 Cl
ATOM      2  C2  C1M d   1       9.965  24.157  47.511  0.00  0.00     0.034 A 
ATOM      3  C3  C1M d   1      10.872  23.134  47.298  0.00  0.00    -0.060 A 
ATOM      4  C4  C1M d   1      10.886  22.018  48.134  0.00  0.00    -0.053 A 
ATOM      5  C5  C1M d   1       9.998  21.922  49.203  0.00  0.00     0.061 A 
ATOM      6  C6  C1M d   1       9.089  22.960  49.410  0.00  0.00    -0.053 A 
ATOM      7  C7  C1M d   1       9.074  24.061  48.572  0.00  0.00    -0.060 A 
ATOM      8  H1  C1M d   1      11.576  23.201  46.476  0.00  0.00     0.086 H 
ATOM      9  H2  C1M d   1      11.594  21.218  47.950  0.00  0.00     0.087 H 
ATOM     10  H3  C1M d   1       8.388  22.903  50.235  0.00  0.00     0.087 H 
ATOM     11  H4  C1M d   1       8.359  24.857  48.745  0.00  0.00     0.086 H 
ENDROOT
BRANCH   5  12
ATOM     12  N8  C1M d   1       9.998  20.776  50.047  0.00  0.00    -0.206 N 
ATOM     13  C9  C1M d   1       9.539  19.530  49.764  0.00  0.00     0.113 A 
ATOM     14  N10 C1M d   1       9.715  18.774  50.817  0.00  0.00    -0.122 NA
ATOM     15  H5  C1M d   1       9.099  19.213  48.820  0.00  0.00     0.149 H 
ATOM     16  N11 C1M d   1      10.277  19.444  51.745  0.00  0.00    -0.023 NA
ATOM     17  N12 C1M d   1      10.472  20.661  51.367  0.00  0.00    -0.040 NA
ENDBRANCH   5  12
TORSDOF 1
