REMARK  14 active torsions:
REMARK  status: ('A' for Active; 'I' for Inactive)
REMARK    1  A    between atoms: C1_1  and  O2_2 
REMARK    2  A    between atoms: O2_2  and  C3_3 
REMARK    3  A    between atoms: C5_5  and  C6_6 
REMARK    4  A    between atoms: C7_7  and  S12_12 
REMARK    5  A    between atoms: C8_8  and  C9_9 
REMARK    6  A    between atoms: C10_10  and  C11_11 
REMARK    7  A    between atoms: S12_12  and  N15_15 
REMARK    8  A    between atoms: N15_15  and  C16_16 
REMARK    9  A    between atoms: C16_16  and  C17_17 
REMARK   10  A    between atoms: C17_17  and  O18_18 
REMARK   11  A    between atoms: C17_17  and  C19_19 
REMARK   12  A    between atoms: C19_19  and  N20_20 
REMARK   13  A    between atoms: C19_19  and  C21_21 
REMARK   14  A    between atoms: C21_21  and  C22_22 
ROOT
ATOM      1  N15 C4M d   1       5.331  18.501  48.352  0.00  0.00    -0.313 N 
ATOM      2  H14 C4M d   1       6.167  18.524  47.804  0.00  0.00     0.172 HD
ENDROOT
BRANCH   1   3
ATOM      3  S12 C4M d   1       4.177  17.378  48.028  0.00  0.00     0.260 S 
ATOM      4  O13 C4M d   1       3.865  16.831  49.314  0.00  0.00    -0.201 OA
ATOM      5  O14 C4M d   1       4.620  16.588  46.941  0.00  0.00    -0.201 OA
BRANCH   3   6
ATOM      6  C7  C4M d   1       2.695  18.184  47.468  0.00  0.00     0.092 A 
ATOM      7  C5  C4M d   1       1.607  18.338  48.318  0.00  0.00    -0.035 A 
ATOM      8  C4  C4M d   1       0.451  18.958  47.875  0.00  0.00    -0.043 A 
ATOM      9  C3  C4M d   1       0.337  19.453  46.592  0.00  0.00     0.075 A 
ATOM     10  H4  C4M d   1      -0.388  19.057  48.555  0.00  0.00     0.088 H 
ATOM     11  C10 C4M d   1       1.422  19.306  45.726  0.00  0.00    -0.021 A 
ATOM     12  C8  C4M d   1       2.596  18.682  46.164  0.00  0.00    -0.029 A 
BRANCH   7  13
ATOM     13  C6  C4M d   1       1.588  17.843  49.751  0.00  0.00    -0.050 C 
ATOM     14  H5  C4M d   1       0.618  18.085  50.210  0.00  0.00     0.033 H 
ATOM     15  H6  C4M d   1       2.394  18.331  50.318  0.00  0.00     0.033 H 
ATOM     16  H7  C4M d   1       1.738  16.753  49.765  0.00  0.00     0.033 H 
ENDBRANCH   7  13
BRANCH   9  17
ATOM     17  O2  C4M d   1      -0.829  20.048  46.185  0.00  0.00    -0.355 OA
BRANCH  17  18
ATOM     18  C1  C4M d   1      -1.833  20.049  47.224  0.00  0.00     0.010 C 
ATOM     19  H1  C4M d   1      -2.746  20.535  46.851  0.00  0.00     0.066 H 
ATOM     20  H2  C4M d   1      -1.456  20.600  48.098  0.00  0.00     0.066 H 
ATOM     21  H3  C4M d   1      -2.062  19.013  47.514  0.00  0.00     0.066 H 
ENDBRANCH  17  18
ENDBRANCH   9  17
BRANCH  11  22
ATOM     22  C11 C4M d   1       1.334  19.828  44.309  0.00  0.00    -0.048 C 
ATOM     23  H11 C4M d   1       0.346  20.283  44.147  0.00  0.00     0.033 H 
ATOM     24  H12 C4M d   1       1.476  18.997  43.603  0.00  0.00     0.033 H 
ATOM     25  H13 C4M d   1       2.116  20.584  44.148  0.00  0.00     0.033 H 
ENDBRANCH  11  22
BRANCH  12  26
ATOM     26  C9  C4M d   1       3.755  18.547  45.191  0.00  0.00    -0.049 C 
ATOM     27  H8  C4M d   1       4.594  18.038  45.688  0.00  0.00     0.033 H 
ATOM     28  H9  C4M d   1       4.076  19.546  44.862  0.00  0.00     0.033 H 
ATOM     29  H10 C4M d   1       3.435  17.959  44.318  0.00  0.00     0.033 H 
ENDBRANCH  12  26
ENDBRANCH   3   6
ENDBRANCH   1   3
BRANCH   1  30
ATOM     30  C16 C4M d   1       5.146  19.470  49.437  0.00  0.00     0.029 C 
ATOM     31  H15 C4M d   1       4.667  18.980  50.297  0.00  0.00     0.069 H 
ATOM     32  H16 C4M d   1       4.515  20.302  49.091  0.00  0.00     0.069 H 
BRANCH  30  33
ATOM     33  C17 C4M d   1       6.532  20.000  49.843  0.00  0.00     0.079 C 
ATOM     34  H17 C4M d   1       7.209  19.145  49.990  0.00  0.00     0.088 H 
BRANCH  33  35
ATOM     35  O18 C4M d   1       7.070  20.840  48.808  0.00  0.00    -0.392 OA
ATOM     36  H18 C4M d   1       7.153  20.338  48.006  0.00  0.00     0.210 HD
ENDBRANCH  33  35
BRANCH  33  37
ATOM     37  C19 C4M d   1       6.426  20.773  51.153  0.00  0.00     0.129 C 
ATOM     38  H19 C4M d   1       6.028  20.114  51.939  0.00  0.00     0.088 H 
BRANCH  37  39
ATOM     39  N20 C4M d   1       7.758  21.245  51.519  0.00  0.00    -0.072 N 
ATOM     40  H20 C4M d   1       7.706  21.759  52.385  0.00  0.00     0.274 HD
ATOM     41  H21 C4M d   1       8.113  21.846  50.792  0.00  0.00     0.274 HD
ATOM     42  H22 C4M d   1       8.374  20.456  51.633  0.00  0.00     0.274 HD
ENDBRANCH  37  39
BRANCH  37  43
ATOM     43  C21 C4M d   1       5.515  21.995  50.995  0.00  0.00    -0.012 C 
ATOM     44  H23 C4M d   1       5.601  22.367  49.963  0.00  0.00     0.043 H 
ATOM     45  H24 C4M d   1       5.848  22.775  51.695  0.00  0.00     0.043 H 
BRANCH  43  46
ATOM     46  C22 C4M d   1       4.058  21.678  51.278  0.00  0.00    -0.056 A 
ATOM     47  C23 C4M d   1       3.077  22.077  50.366  0.00  0.00    -0.077 A 
ATOM     48  C24 C4M d   1       1.738  21.816  50.595  0.00  0.00    -0.082 A 
ATOM     49  H25 C4M d   1       3.371  22.600  49.463  0.00  0.00     0.084 H 
ATOM     50  C25 C4M d   1       1.363  21.155  51.752  0.00  0.00    -0.083 A 
ATOM     51  H26 C4M d   1       0.989  22.126  49.875  0.00  0.00     0.083 H 
ATOM     52  C26 C4M d   1       2.329  20.750  52.661  0.00  0.00    -0.082 A 
ATOM     53  H27 C4M d   1       0.316  20.954  51.947  0.00  0.00     0.083 H 
ATOM     54  C27 C4M d   1       3.678  21.013  52.434  0.00  0.00    -0.077 A 
ATOM     55  H28 C4M d   1       2.030  20.222  53.559  0.00  0.00     0.083 H 
ATOM     56  H29 C4M d   1       4.425  20.700  53.155  0.00  0.00     0.084 H 
ENDBRANCH  43  46
ENDBRANCH  37  43
ENDBRANCH  33  37
ENDBRANCH  30  33
ENDBRANCH   1  30
TORSDOF 14
