REMARK  9 active torsions:
REMARK  status: ('A' for Active; 'I' for Inactive)
REMARK    1  A    between atoms: N7_10  and  C10_13 
REMARK    2  A    between atoms: C10_13  and  C11_14 
REMARK    3  A    between atoms: C11_14  and  O19_15 
REMARK    4  A    between atoms: C11_14  and  C12_16 
REMARK    5  A    between atoms: C12_16  and  O21_17 
REMARK    6  A    between atoms: C12_16  and  C13_18 
REMARK    7  A    between atoms: C13_18  and  O23_19 
REMARK    8  A    between atoms: C13_18  and  C14_20 
REMARK    9  A    between atoms: C14_20  and  O26_21 
ROOT
ATOM      1  C10 PUG d   1     -19.661   2.798   3.536  0.00  0.00     0.032 C 
ATOM      2  H4  PUG d   1     -20.613   2.956   4.064  0.00  0.00     0.069 H 
ATOM      3  H5  PUG d   1     -19.403   3.704   2.967  0.00  0.00     0.069 H 
ENDROOT
BRANCH   1   4
ATOM      4  N7  PUG d   1     -19.846   1.695   2.580  0.00  0.00    -0.281 N 
ATOM      5  C8  PUG d   1     -19.850   0.363   2.790  0.00  0.00     0.148 A 
ATOM      6  N1  PUG d   1     -19.672  -0.402   3.899  0.00  0.00    -0.292 N 
ATOM      7  C9  PUG d   1     -20.081  -0.277   1.566  0.00  0.00     0.150 A 
ATOM      8  C2  PUG d   1     -19.709  -1.759   3.863  0.00  0.00     0.328 A 
ATOM      9  H2  PUG d   1     -19.508   0.052   4.775  0.00  0.00     0.172 HD
ATOM     10  O1  PUG d   1     -19.536  -2.411   4.914  0.00  0.00    -0.247 OA
ATOM     11  N3  PUG d   1     -19.933  -2.429   2.712  0.00  0.00    -0.273 N 
ATOM     12  C4  PUG d   1     -20.121  -1.767   1.552  0.00  0.00     0.280 A 
ATOM     13  H1  PUG d   1     -19.960  -3.429   2.720  0.00  0.00     0.173 HD
ATOM     14  O2  PUG d   1     -20.329  -2.407   0.498  0.00  0.00    -0.265 OA
ATOM     15  N5  PUG d   1     -20.227   0.664   0.605  0.00  0.00    -0.301 N 
ATOM     16  C6  PUG d   1     -20.081   1.821   1.273  0.00  0.00     0.329 A 
ATOM     17  H3  PUG d   1     -20.402   0.530  -0.370  0.00  0.00     0.171 HD
ATOM     18  O4  PUG d   1     -20.159   2.966   0.683  0.00  0.00    -0.246 OA
ENDBRANCH   1   4
BRANCH   1  19
ATOM     19  C11 PUG d   1     -18.568   2.567   4.584  0.00  0.00     0.078 C 
ATOM     20  H6  PUG d   1     -18.972   1.854   5.318  0.00  0.00     0.089 H 
BRANCH  19  21
ATOM     21  O19 PUG d   1     -17.411   1.973   3.982  0.00  0.00    -0.391 OA
ATOM     22  H7  PUG d   1     -16.745   1.837   4.645  0.00  0.00     0.210 HD
ENDBRANCH  19  21
BRANCH  19  23
ATOM     23  C12 PUG d   1     -18.155   3.829   5.356  0.00  0.00     0.088 C 
ATOM     24  H8  PUG d   1     -17.087   3.733   5.599  0.00  0.00     0.091 H 
BRANCH  23  25
ATOM     25  O21 PUG d   1     -18.903   3.866   6.581  0.00  0.00    -0.390 OA
ATOM     26  H9  PUG d   1     -19.832   3.892   6.383  0.00  0.00     0.210 HD
ENDBRANCH  23  25
BRANCH  23  27
ATOM     27  C13 PUG d   1     -18.330   5.153   4.596  0.00  0.00     0.083 C 
ATOM     28  H10 PUG d   1     -19.367   5.199   4.233  0.00  0.00     0.090 H 
BRANCH  27  29
ATOM     29  O23 PUG d   1     -17.449   5.217   3.469  0.00  0.00    -0.391 OA
ATOM     30  H11 PUG d   1     -17.575   6.043   3.016  0.00  0.00     0.210 HD
ENDBRANCH  27  29
BRANCH  27  31
ATOM     31  C14 PUG d   1     -18.079   6.372   5.484  0.00  0.00     0.043 C 
ATOM     32  H12 PUG d   1     -18.704   6.293   6.385  0.00  0.00     0.078 H 
ATOM     33  H13 PUG d   1     -18.351   7.282   4.928  0.00  0.00     0.078 H 
BRANCH  31  34
ATOM     34  O26 PUG d   1     -16.702   6.460   5.878  0.00  0.00    -0.398 OA
ATOM     35  H14 PUG d   1     -16.462   5.679   6.363  0.00  0.00     0.209 HD
ENDBRANCH  31  34
ENDBRANCH  27  31
ENDBRANCH  23  27
ENDBRANCH  19  23
ENDBRANCH   1  19
TORSDOF 9
