REMARK  17 active torsions:
REMARK  status: ('A' for Active; 'I' for Inactive)
REMARK    1  A    between atoms: P_2  and  O27_5 
REMARK    2  A    between atoms: O27_5  and  C20_6 
REMARK    3  A    between atoms: C20_6  and  C19_7 
REMARK    4  A    between atoms: C19_7  and  C18_8 
REMARK    5  A    between atoms: C18_8  and  C17_9 
REMARK    6  A    between atoms: C17_9  and  C16_10 
REMARK    7  A    between atoms: C16_10  and  C15_11 
REMARK    8  A    between atoms: C15_11  and  N5_12 
REMARK    9  A    between atoms: N7_19  and  C10_24 
REMARK   10  A    between atoms: C10_24  and  C11_25 
REMARK   11  A    between atoms: C11_25  and  O19_26 
REMARK   12  A    between atoms: C11_25  and  C12_27 
REMARK   13  A    between atoms: C12_27  and  O21_28 
REMARK   14  A    between atoms: C12_27  and  C13_29 
REMARK   15  A    between atoms: C13_29  and  O23_30 
REMARK   16  A    between atoms: C13_29  and  C14_31 
REMARK   17  A    between atoms: C14_31  and  O26_32 
ROOT
ATOM      1  N5  PHR d   1     -18.180  10.342 -26.183  0.00  0.00    -0.291 N 
ATOM      2  C9  PHR d   1     -18.770  10.485 -24.985  0.00  0.00     0.152 A 
ATOM      3  C4  PHR d   1     -20.140  10.151 -24.526  0.00  0.00     0.280 A 
ATOM      4  O2  PHR d   1     -20.992   9.649 -25.289  0.00  0.00    -0.265 OA
ATOM      5  N3  PHR d   1     -20.432  10.424 -23.232  0.00  0.00    -0.273 N 
ATOM      6  C6  PHR d   1     -16.950  10.825 -25.962  0.00  0.00     0.331 A 
ATOM      7  O4  PHR d   1     -16.074  10.851 -26.904  0.00  0.00    -0.246 OA
ATOM      8  N7  PHR d   1     -16.673  11.272 -24.719  0.00  0.00    -0.280 N 
ATOM      9  C8  PHR d   1     -17.815  11.082 -24.026  0.00  0.00     0.148 A 
ATOM     10  N1  PHR d   1     -18.253  11.294 -22.753  0.00  0.00    -0.292 N 
ATOM     11  C2  PHR d   1     -19.525  10.974 -22.373  0.00  0.00     0.328 A 
ATOM     12  O1  PHR d   1     -19.880  11.193 -21.190  0.00  0.00    -0.247 OA
ATOM     13  H13 PHR d   1     -21.349  10.214 -22.892  0.00  0.00     0.173 HD
ATOM     14  H14 PHR d   1     -17.628  11.693 -22.082  0.00  0.00     0.172 HD
ENDROOT
BRANCH   1  15
ATOM     15  C15 PHR d   1     -18.716   9.810 -27.441  0.00  0.00     0.005 C 
ATOM     16  H11 PHR d   1     -19.677  10.300 -27.657  0.00  0.00     0.065 H 
ATOM     17  H12 PHR d   1     -18.005  10.023 -28.253  0.00  0.00     0.065 H 
BRANCH  15  18
ATOM     18  C16 PHR d   1     -18.934   8.303 -27.352  0.00  0.00    -0.050 C 
ATOM     19  H9  PHR d   1     -19.168   8.033 -26.312  0.00  0.00     0.035 H 
ATOM     20  H10 PHR d   1     -19.775   8.021 -28.002  0.00  0.00     0.035 H 
BRANCH  18  21
ATOM     21  C17 PHR d   1     -17.686   7.554 -27.795  0.00  0.00    -0.064 C 
ATOM     22  H7  PHR d   1     -16.919   8.283 -28.096  0.00  0.00     0.033 H 
ATOM     23  H8  PHR d   1     -17.311   6.953 -26.953  0.00  0.00     0.033 H 
BRANCH  21  24
ATOM     24  C18 PHR d   1     -17.982   6.631 -28.971  0.00  0.00    -0.063 C 
ATOM     25  H5  PHR d   1     -17.201   5.858 -29.024  0.00  0.00     0.033 H 
ATOM     26  H6  PHR d   1     -18.960   6.154 -28.813  0.00  0.00     0.033 H 
BRANCH  24  27
ATOM     27  C19 PHR d   1     -18.011   7.397 -30.290  0.00  0.00    -0.044 C 
ATOM     28  H3  PHR d   1     -18.509   6.779 -31.051  0.00  0.00     0.036 H 
ATOM     29  H4  PHR d   1     -18.576   8.330 -30.148  0.00  0.00     0.036 H 
BRANCH  27  30
ATOM     30  C20 PHR d   1     -16.605   7.738 -30.772  0.00  0.00     0.032 C 
ATOM     31  H1  PHR d   1     -16.151   8.480 -30.099  0.00  0.00     0.075 H 
ATOM     32  H2  PHR d   1     -15.986   6.829 -30.787  0.00  0.00     0.075 H 
BRANCH  30  33
ATOM     33  O27 PHR d   1     -16.704   8.275 -32.086  0.00  0.00    -0.283 OA
BRANCH  33  34
ATOM     34  P   PHR d   1     -16.595   7.346 -33.397  0.00  0.00     0.422 P 
ATOM     35  O2P PHR d   1     -17.804   7.713 -34.227  0.00  0.00    -0.617 OA
ATOM     36  O3P PHR d   1     -16.603   5.925 -32.888  0.00  0.00    -0.617 OA
ATOM     37  O1P PHR d   1     -15.278   7.782 -33.992  0.00  0.00    -0.617 OA
ENDBRANCH  33  34
ENDBRANCH  30  33
ENDBRANCH  27  30
ENDBRANCH  24  27
ENDBRANCH  21  24
ENDBRANCH  18  21
ENDBRANCH  15  18
ENDBRANCH   1  15
BRANCH   8  38
ATOM     38  C10 PHR d   1     -15.393  11.845 -24.275  0.00  0.00     0.032 C 
ATOM     39  H15 PHR d   1     -15.404  12.924 -24.491  0.00  0.00     0.069 H 
ATOM     40  H16 PHR d   1     -14.584  11.365 -24.845  0.00  0.00     0.069 H 
BRANCH  38  41
ATOM     41  C11 PHR d   1     -15.107  11.657 -22.784  0.00  0.00     0.078 C 
ATOM     42  H17 PHR d   1     -15.950  12.091 -22.227  0.00  0.00     0.089 H 
BRANCH  41  43
ATOM     43  O19 PHR d   1     -15.044  10.259 -22.487  0.00  0.00    -0.391 OA
ATOM     44  H18 PHR d   1     -14.350   9.859 -22.997  0.00  0.00     0.210 HD
ENDBRANCH  41  43
BRANCH  41  45
ATOM     45  C12 PHR d   1     -13.828  12.357 -22.300  0.00  0.00     0.088 C 
ATOM     46  H19 PHR d   1     -13.427  11.777 -21.456  0.00  0.00     0.091 H 
BRANCH  45  47
ATOM     47  O21 PHR d   1     -14.190  13.662 -21.833  0.00  0.00    -0.390 OA
ATOM     48  H20 PHR d   1     -13.413  14.115 -21.528  0.00  0.00     0.210 HD
ENDBRANCH  45  47
BRANCH  45  49
ATOM     49  C13 PHR d   1     -12.712  12.473 -23.351  0.00  0.00     0.083 C 
ATOM     50  H21 PHR d   1     -13.128  12.973 -24.238  0.00  0.00     0.090 H 
BRANCH  49  51
ATOM     51  O23 PHR d   1     -12.259  11.166 -23.727  0.00  0.00    -0.391 OA
ATOM     52  H22 PHR d   1     -11.923  10.716 -22.961  0.00  0.00     0.210 HD
ENDBRANCH  49  51
BRANCH  49  53
ATOM     53  C14 PHR d   1     -11.520  13.292 -22.854  0.00  0.00     0.043 C 
ATOM     54  H23 PHR d   1     -11.886  14.239 -22.430  0.00  0.00     0.078 H 
ATOM     55  H24 PHR d   1     -10.851  13.504 -23.701  0.00  0.00     0.078 H 
BRANCH  53  56
ATOM     56  O26 PHR d   1     -10.788  12.577 -21.844  0.00  0.00    -0.398 OA
ATOM     57  H25 PHR d   1     -10.467  11.760 -22.206  0.00  0.00     0.209 HD
ENDBRANCH  53  56
ENDBRANCH  49  53
ENDBRANCH  45  49
ENDBRANCH  41  45
ENDBRANCH  38  41
ENDBRANCH   8  38
TORSDOF 17
