REMARK  19 active torsions:
REMARK  status: ('A' for Active; 'I' for Inactive)
REMARK    1  A    between atoms: N_1  and  CA_2 
REMARK    2  A    between atoms: CA_2  and  C_3 
REMARK       I    between atoms: C_3  and  N_5 
REMARK    3  A    between atoms: N_5  and  CA_6 
REMARK    4  A    between atoms: CA_18  and  CB_21 
REMARK    5  A    between atoms: CB_21  and  OG_22 
REMARK    6  A    between atoms: CA_24  and  CB_27 
REMARK    7  A    between atoms: CB_27  and  CG_28 
REMARK    8  A    between atoms: CA_39  and  CB_42 
REMARK    9  A    between atoms: CB_42  and  CG_43 
REMARK   10  A    between atoms: CG_43  and  CD_44 
REMARK   11  A    between atoms: CD_44  and  NE_45 
REMARK       I    between atoms: NE_45  and  CZ_46 
REMARK       I    between atoms: CZ_46  and  NH1_47 
REMARK       I    between atoms: CZ_46  and  NH2_48 
REMARK   12  A    between atoms: CA_56  and  CB_59 
REMARK   13  A    between atoms: CA_61  and  CB_64 
REMARK   14  A    between atoms: CB_64  and  CG_65 
REMARK   15  A    between atoms: CA_75  and  CB_78 
REMARK   16  A    between atoms: CB_78  and  CG_79 
REMARK   17  A    between atoms: CG_79  and  CD_80 
REMARK   18  A    between atoms: CD_80  and  NE_81 
REMARK       I    between atoms: NE_81  and  CZ_82 
REMARK       I    between atoms: CZ_82  and  NH1_83 
REMARK   19  A    between atoms: CA_86  and  C_87 
REMARK       I    between atoms: C_87  and  N_91 
ROOT
ATOM      1  CA  CYS d   1      58.896  -3.485  24.557  0.00  0.00     0.098 C 
ATOM      2  C   CYS d   1      58.529  -2.048  24.914  0.00  0.00     0.242 C 
ATOM      3  O   CYS d   1      57.458  -1.577  24.590  0.00  0.00    -0.271 OA
ATOM      4  CB  CYS d   1      58.825  -4.306  25.836  0.00  0.00     0.013 C 
ATOM      5  SG  CYS d   1      57.187  -4.235  26.613  0.00  0.00    -0.095 SA
ATOM      6  N   CYS d   1      59.443  -1.357  25.577  0.00  0.00    -0.345 N 
ATOM      7  CA  CYS d   1      59.137  -0.072  26.161  0.00  0.00     0.098 C 
ATOM      8  C   CYS d   1      59.134   1.084  25.200  0.00  0.00     0.242 C 
ATOM      9  O   CYS d   1      58.769   2.174  25.589  0.00  0.00    -0.271 OA
ATOM     10  CB  CYS d   1      60.089   0.207  27.319  0.00  0.00     0.013 C 
ATOM     11  SG  CYS d   1      60.035  -1.163  28.486  0.00  0.00    -0.095 SA
ATOM     12  N   CYS d   1      53.251  -2.633  23.630  0.00  0.00    -0.345 N 
ATOM     13  CA  CYS d   1      53.879  -3.315  24.751  0.00  0.00     0.098 C 
ATOM     14  C   CYS d   1      54.204  -2.392  25.929  0.00  0.00     0.241 C 
ATOM     15  O   CYS d   1      54.313  -2.843  27.045  0.00  0.00    -0.271 OA
ATOM     16  CB  CYS d   1      55.170  -3.987  24.236  0.00  0.00     0.013 C 
ATOM     17  SG  CYS d   1      55.997  -5.242  25.318  0.00  0.00    -0.095 SA
ATOM     18  N   CYS d   1      55.691  -1.848  30.970  0.00  0.00    -0.345 N 
ATOM     19  CA  CYS d   1      56.833  -1.195  31.585  0.00  0.00     0.098 C 
ATOM     20  CB  CYS d   1      57.680  -0.446  30.515  0.00  0.00     0.013 C 
ATOM     21  SG  CYS d   1      58.021  -1.418  29.008  0.00  0.00    -0.095 SA
ATOM     22  H7  CYS d   1      58.154  -3.862  23.837  0.00  0.00     0.088 H 
ATOM     23  H8  CYS d   1      59.570  -3.918  26.546  0.00  0.00     0.053 H 
ATOM     24  H9  CYS d   1      59.057  -5.354  25.596  0.00  0.00     0.053 H 
ATOM     25  H10 CYS d   1      60.364  -1.733  25.675  0.00  0.00     0.163 HD
ATOM     26  H11 CYS d   1      58.119  -0.144  26.572  0.00  0.00     0.088 H 
ATOM     27  H12 CYS d   1      59.785   1.134  27.828  0.00  0.00     0.053 H 
ATOM     28  H13 CYS d   1      61.113   0.319  26.933  0.00  0.00     0.053 H 
ATOM     29  H43 CYS d   1      53.786  -1.948  23.136  0.00  0.00     0.163 HD
ATOM     30  H44 CYS d   1      53.190  -4.093  25.112  0.00  0.00     0.088 H 
ATOM     31  H45 CYS d   1      55.901  -3.187  24.048  0.00  0.00     0.053 H 
ATOM     32  H46 CYS d   1      54.921  -4.487  23.288  0.00  0.00     0.053 H 
ATOM     33  H75 CYS d   1      55.333  -1.476  30.114  0.00  0.00     0.163 HD
ATOM     34  H76 CYS d   1      57.459  -1.955  32.075  0.00  0.00     0.088 H 
ATOM     35  H77 CYS d   1      58.642  -0.168  30.970  0.00  0.00     0.053 H 
ATOM     36  H78 CYS d   1      57.137   0.464  30.222  0.00  0.00     0.053 H 
ATOM     37  N   SER d   1      59.536   0.838  23.961  0.00  0.00    -0.344 N 
ATOM     38  CA  SER d   1      59.328   1.783  22.858  0.00  0.00     0.109 C 
ATOM     39  C   SER d   1      58.178   1.358  21.907  0.00  0.00     0.243 C 
ATOM     40  O   SER d   1      57.850   2.088  20.978  0.00  0.00    -0.271 OA
ATOM     41  H14 SER d   1      60.000  -0.027  23.770  0.00  0.00     0.163 HD
ATOM     42  H15 SER d   1      59.084   2.768  23.284  0.00  0.00     0.090 H 
ATOM     43  N   ASP d   1      57.625   0.166  22.121  0.00  0.00    -0.345 N 
ATOM     44  CA  ASP d   1      56.552  -0.334  21.307  0.00  0.00     0.099 C 
ATOM     45  C   ASP d   1      55.264   0.093  22.035  0.00  0.00     0.243 C 
ATOM     46  O   ASP d   1      55.028  -0.351  23.147  0.00  0.00    -0.271 OA
ATOM     47  H19 ASP d   1      57.967  -0.399  22.872  0.00  0.00     0.163 HD
ATOM     48  H20 ASP d   1      56.591   0.110  20.301  0.00  0.00     0.088 H 
ATOM     49  N   PRO d   1      54.438   0.943  21.395  0.00  0.00    -0.337 N 
ATOM     50  CA  PRO d   1      53.160   1.353  21.939  0.00  0.00     0.091 C 
ATOM     51  C   PRO d   1      52.195   0.216  22.305  0.00  0.00     0.241 C 
ATOM     52  O   PRO d   1      51.360   0.393  23.202  0.00  0.00    -0.271 OA
ATOM     53  CB  PRO d   1      52.585   2.208  20.805  0.00  0.00    -0.036 C 
ATOM     54  CG  PRO d   1      53.270   1.738  19.593  0.00  0.00    -0.048 C 
ATOM     55  CD  PRO d   1      54.653   1.560  20.069  0.00  0.00    -0.001 C 
ATOM     56  H23 PRO d   1      53.322   1.963  22.840  0.00  0.00     0.087 H 
ATOM     57  H24 PRO d   1      52.794   3.274  20.979  0.00  0.00     0.036 H 
ATOM     58  H25 PRO d   1      51.499   2.057  20.719  0.00  0.00     0.036 H 
ATOM     59  H26 PRO d   1      53.218   2.487  18.789  0.00  0.00     0.035 H 
ATOM     60  H27 PRO d   1      52.845   0.788  19.237  0.00  0.00     0.035 H 
ATOM     61  H28 PRO d   1      55.223   0.894  19.405  0.00  0.00     0.064 H 
ATOM     62  H29 PRO d   1      55.174   2.525  20.156  0.00  0.00     0.064 H 
ATOM     63  N   ARG d   1      52.316  -0.935  21.630  0.00  0.00    -0.346 N 
ATOM     64  CA  ARG d   1      51.543  -2.141  21.952  0.00  0.00     0.089 C 
ATOM     65  C   ARG d   1      51.999  -2.869  23.222  0.00  0.00     0.241 C 
ATOM     66  O   ARG d   1      51.240  -3.640  23.801  0.00  0.00    -0.271 OA
ATOM     67  N   ARG d   1      53.149  -2.376  29.955  0.00  0.00    -0.346 N 
ATOM     68  CA  ARG d   1      53.713  -3.279  30.968  0.00  0.00     0.089 C 
ATOM     69  C   ARG d   1      55.104  -2.911  31.490  0.00  0.00     0.241 C 
ATOM     70  O   ARG d   1      55.598  -3.562  32.379  0.00  0.00    -0.271 OA
ATOM     71  H30 ARG d   1      52.965  -0.975  20.870  0.00  0.00     0.163 HD
ATOM     72  H31 ARG d   1      50.496  -1.837  22.094  0.00  0.00     0.087 H 
ATOM     73  H62 ARG d   1      53.286  -2.571  28.984  0.00  0.00     0.163 HD
ATOM     74  H63 ARG d   1      53.043  -3.184  31.835  0.00  0.00     0.087 H 
ATOM     75  N   ALA d   1      54.378  -1.106  25.682  0.00  0.00    -0.346 N 
ATOM     76  CA  ALA d   1      54.863  -0.167  26.719  0.00  0.00     0.086 C 
ATOM     77  C   ALA d   1      54.084  -0.160  28.057  0.00  0.00     0.240 C 
ATOM     78  O   ALA d   1      54.671   0.100  29.094  0.00  0.00    -0.271 OA
ATOM     79  H47 ALA d   1      54.176  -0.756  24.767  0.00  0.00     0.163 HD
ATOM     80  H48 ALA d   1      55.894  -0.471  26.954  0.00  0.00     0.086 H 
ATOM     81  N   TRP d   1      52.780  -0.379  28.017  0.00  0.00    -0.346 N 
ATOM     82  CA  TRP d   1      51.948  -0.373  29.220  0.00  0.00     0.093 C 
ATOM     83  C   TRP d   1      52.456  -1.299  30.324  0.00  0.00     0.241 C 
ATOM     84  O   TRP d   1      52.216  -1.033  31.496  0.00  0.00    -0.271 OA
ATOM     85  H52 TRP d   1      52.348  -0.555  27.133  0.00  0.00     0.163 HD
ATOM     86  H53 TRP d   1      51.959   0.652  29.619  0.00  0.00     0.088 H 
ENDROOT
BRANCH  64  87
ATOM     87  CB  ARG d   1      51.617  -3.121  20.797  0.00  0.00    -0.036 C 
ATOM     88  H32 ARG d   1      51.078  -4.034  21.090  0.00  0.00     0.036 H 
ATOM     89  H33 ARG d   1      52.676  -3.361  20.622  0.00  0.00     0.036 H 
BRANCH  87  90
ATOM     90  CG  ARG d   1      51.037  -2.635  19.515  0.00  0.00    -0.048 C 
ATOM     91  H34 ARG d   1      51.381  -1.605  19.337  0.00  0.00     0.035 H 
ATOM     92  H35 ARG d   1      49.940  -2.646  19.595  0.00  0.00     0.035 H 
BRANCH  90  93
ATOM     93  CD  ARG d   1      51.442  -3.480  18.366  0.00  0.00     0.009 C 
ATOM     94  H36 ARG d   1      50.900  -3.146  17.469  0.00  0.00     0.064 H 
ATOM     95  H37 ARG d   1      51.181  -4.526  18.584  0.00  0.00     0.064 H 
BRANCH  93  96
ATOM     96  NE  ARG d   1      52.881  -3.394  18.110  0.00  0.00    -0.227 N 
ATOM     97  CZ  ARG d   1      53.509  -3.977  17.075  0.00  0.00     0.665 C 
ATOM     98  NH1 ARG d   1      52.841  -4.605  16.132  0.00  0.00    -0.235 N 
ATOM     99  NH2 ARG d   1      54.813  -3.871  16.943  0.00  0.00    -0.235 N 
ATOM    100  H39 ARG d   1      53.346  -5.044  15.349  0.00  0.00     0.174 HD
ATOM    101  H40 ARG d   1      51.813  -4.658  16.177  0.00  0.00     0.174 HD
ATOM    102  H41 ARG d   1      55.366  -3.385  17.664  0.00  0.00     0.174 HD
ATOM    103  H42 ARG d   1      55.282  -4.274  16.119  0.00  0.00     0.174 HD
ATOM    104  H38 ARG d   1      53.453  -2.848  18.770  0.00  0.00     0.177 HD
ENDBRANCH  93  96
ENDBRANCH  90  93
ENDBRANCH  87  90
ENDBRANCH  64  87
BRANCH  44 105
ATOM    105  CB  ASP d   1      56.635  -1.876  21.193  0.00  0.00     0.043 C 
ATOM    106  H21 ASP d   1      56.374  -2.311  22.169  0.00  0.00     0.052 H 
ATOM    107  H22 ASP d   1      57.668  -2.150  20.934  0.00  0.00     0.052 H 
BRANCH 105 108
ATOM    108  CG  ASP d   1      55.702  -2.462  20.139  0.00  0.00     0.175 C 
ATOM    109  OD1 ASP d   1      54.563  -2.026  19.937  0.00  0.00    -0.648 OA
ATOM    110  OD2 ASP d   1      56.120  -3.408  19.483  0.00  0.00    -0.648 OA
ENDBRANCH 105 108
ENDBRANCH  44 105
BRANCH  76 111
ATOM    111  CB  ALA d   1      54.908   1.279  26.164  0.00  0.00    -0.049 C 
ATOM    112  H49 ALA d   1      55.270   1.961  26.947  0.00  0.00     0.030 H 
ATOM    113  H50 ALA d   1      53.898   1.583  25.851  0.00  0.00     0.030 H 
ATOM    114  H51 ALA d   1      55.587   1.319  25.300  0.00  0.00     0.030 H 
ENDBRANCH  76 111
BRANCH   1 115
ATOM    115  N   CYS d   1      60.216  -3.647  23.969  0.00  0.00    -0.346 N 
ATOM    116  C   GLY d   1      60.708  -2.889  22.988  0.00  0.00     0.243 C 
ATOM    117  O   GLY d   1      60.110  -1.936  22.459  0.00  0.00    -0.272 OA
ATOM    118  H6  CYS d   1      60.796  -4.379  24.326  0.00  0.00     0.163 HD
BRANCH 116 119
ATOM    119  CA  GLY d   1      62.105  -3.290  22.550  0.00  0.00     0.152 C 
ATOM    120  H4  GLY d   1      62.707  -3.483  23.450  0.00  0.00     0.090 H 
ATOM    121  H5  GLY d   1      62.029  -4.212  21.955  0.00  0.00     0.090 H 
BRANCH 119 122
ATOM    122  N   GLY d   1      62.805  -2.265  21.733  0.00  0.00    -0.071 N 
ATOM    123  H1  GLY d   1      63.721  -2.603  21.483  0.00  0.00     0.274 HD
ATOM    124  H2  GLY d   1      62.895  -1.414  22.266  0.00  0.00     0.274 HD
ATOM    125  H3  GLY d   1      62.274  -2.082  20.896  0.00  0.00     0.274 HD
ENDBRANCH 119 122
ENDBRANCH 116 119
ENDBRANCH   1 115
BRANCH  38 126
ATOM    126  CB  SER d   1      60.617   1.888  22.050  0.00  0.00     0.044 C 
ATOM    127  H16 SER d   1      60.622   2.832  21.485  0.00  0.00     0.077 H 
ATOM    128  H17 SER d   1      60.684   1.041  21.351  0.00  0.00     0.077 H 
BRANCH 126 129
ATOM    129  OG  SER d   1      61.715   1.860  22.931  0.00  0.00    -0.398 OA
ATOM    130  H18 SER d   1      61.708   1.045  23.419  0.00  0.00     0.209 HD
ENDBRANCH 126 129
ENDBRANCH  38 126
BRANCH  82 131
ATOM    131  CB  TRP d   1      50.498  -0.732  28.868  0.00  0.00    -0.012 C 
ATOM    132  H54 TRP d   1      50.118   0.005  28.145  0.00  0.00     0.044 H 
ATOM    133  H55 TRP d   1      49.893  -0.692  29.785  0.00  0.00     0.044 H 
BRANCH 131 134
ATOM    134  CG  TRP d   1      50.373  -2.071  28.282  0.00  0.00    -0.028 A 
ATOM    135  CD1 TRP d   1      50.677  -2.438  27.004  0.00  0.00    -0.015 A 
ATOM    136  NE1 TRP d   1      50.465  -3.768  26.838  0.00  0.00    -0.365 N 
ATOM    137  H56 TRP d   1      51.037  -1.762  26.230  0.00  0.00     0.112 H 
ATOM    138  CE2 TRP d   1      50.018  -4.292  28.016  0.00  0.00     0.042 A 
ATOM    139  H57 TRP d   1      50.617  -4.295  25.966  0.00  0.00     0.165 HD
ATOM    140  CD2 TRP d   1      49.946  -3.241  28.945  0.00  0.00    -0.002 A 
ATOM    141  CZ2 TRP d   1      49.658  -5.580  28.330  0.00  0.00    -0.056 A 
ATOM    142  CE3 TRP d   1      49.497  -3.510  30.237  0.00  0.00    -0.070 A 
ATOM    143  CZ3 TRP d   1      49.145  -4.780  30.551  0.00  0.00    -0.082 A 
ATOM    144  H58 TRP d   1      49.431  -2.719  30.975  0.00  0.00     0.084 H 
ATOM    145  CH2 TRP d   1      49.238  -5.809  29.607  0.00  0.00    -0.081 A 
ATOM    146  H60 TRP d   1      48.786  -5.003  31.549  0.00  0.00     0.083 H 
ATOM    147  H61 TRP d   1      48.968  -6.817  29.899  0.00  0.00     0.083 H 
ATOM    148  H59 TRP d   1      49.706  -6.377  27.597  0.00  0.00     0.086 H 
ENDBRANCH 131 134
ENDBRANCH  82 131
BRANCH  68 149
ATOM    149  CB  ARG d   1      53.657  -4.760  30.554  0.00  0.00    -0.036 C 
ATOM    150  H64 ARG d   1      52.600  -5.061  30.522  0.00  0.00     0.036 H 
ATOM    151  H65 ARG d   1      54.182  -5.345  31.323  0.00  0.00     0.036 H 
BRANCH 149 152
ATOM    152  CG  ARG d   1      54.263  -5.089  29.240  0.00  0.00    -0.048 C 
ATOM    153  H66 ARG d   1      55.003  -5.891  29.379  0.00  0.00     0.035 H 
ATOM    154  H67 ARG d   1      54.763  -4.193  28.843  0.00  0.00     0.035 H 
BRANCH 152 155
ATOM    155  CD  ARG d   1      53.217  -5.551  28.243  0.00  0.00     0.009 C 
ATOM    156  H68 ARG d   1      53.356  -5.019  27.290  0.00  0.00     0.064 H 
ATOM    157  H69 ARG d   1      52.212  -5.339  28.638  0.00  0.00     0.064 H 
BRANCH 155 158
ATOM    158  NE  ARG d   1      53.364  -6.973  28.030  0.00  0.00    -0.227 N 
ATOM    159  CZ  ARG d   1      52.859  -7.909  28.817  0.00  0.00     0.665 C 
ATOM    160  NH1 ARG d   1      52.129  -7.594  29.873  0.00  0.00    -0.235 N 
ATOM    161  NH2 ARG d   1      53.085  -9.194  28.549  0.00  0.00    -0.235 N 
ATOM    162  H71 ARG d   1      51.745  -8.337  30.474  0.00  0.00     0.174 HD
ATOM    163  H72 ARG d   1      51.945  -6.605  30.095  0.00  0.00     0.174 HD
ATOM    164  H73 ARG d   1      53.652  -9.457  27.730  0.00  0.00     0.174 HD
ATOM    165  H74 ARG d   1      52.693  -9.924  29.160  0.00  0.00     0.174 HD
ATOM    166  H70 ARG d   1      53.901  -7.280  27.206  0.00  0.00     0.177 HD
ENDBRANCH 155 158
ENDBRANCH 152 155
ENDBRANCH 149 152
ENDBRANCH  68 149
BRANCH  19 167
ATOM    167  C   CYS d   1      56.347  -0.180  32.632  0.00  0.00     0.239 C 
ATOM    168  O   CYS d   1      57.153   0.482  33.250  0.00  0.00    -0.271 OA
ATOM    169  N   NH2 d   1      55.038  -0.021  32.790  0.00  0.00    -0.368 N 
ATOM    170  H79 NH2 d   1      54.691   0.632  33.463  0.00  0.00     0.159 HD
ATOM    171  H80 NH2 d   1      54.399  -0.554  32.236  0.00  0.00     0.159 HD
ENDBRANCH  19 167
TORSDOF 19
