REMARK  7 active torsions:
REMARK  status: ('A' for Active; 'I' for Inactive)
REMARK    1  A    between atoms: C1_1  and  C20_20 
REMARK    2  A    between atoms: C1_1  and  C21_21 
REMARK    3  A    between atoms: C4_4  and  C22_22 
REMARK    4  A    between atoms: C4_4  and  C23_23 
REMARK    5  A    between atoms: C8_8  and  N11_11 
REMARK       I    between atoms: N11_11  and  C12_12 
REMARK    6  A    between atoms: C12_12  and  C13_13 
REMARK    7  A    between atoms: C16_16  and  C19_19 
ROOT
ATOM      1  C1  A80 d   1      29.076  81.955   5.470  0.00  0.00    -0.020 C 
ATOM      2  C2  A80 d   1      29.393  82.331   4.009  0.00  0.00    -0.054 C 
ATOM      3  C3  A80 d   1      28.465  83.473   3.493  0.00  0.00    -0.054 C 
ATOM      4  C4  A80 d   1      27.004  83.007   3.391  0.00  0.00    -0.020 C 
ATOM      5  C5  A80 d   1      26.534  82.256   4.697  0.00  0.00    -0.043 A 
ATOM      6  C6  A80 d   1      25.159  82.075   4.984  0.00  0.00    -0.073 A 
ATOM      7  C7  A80 d   1      24.738  81.432   6.156  0.00  0.00    -0.057 A 
ATOM      8  C8  A80 d   1      25.680  80.939   7.110  0.00  0.00     0.035 A 
ATOM      9  C9  A80 d   1      27.062  81.126   6.881  0.00  0.00    -0.050 A 
ATOM     10  C10 A80 d   1      27.533  81.775   5.702  0.00  0.00    -0.041 A 
ATOM     11  H1  A80 d   1      29.253  81.444   3.374  0.00  0.00     0.034 H 
ATOM     12  H2  A80 d   1      30.439  82.666   3.946  0.00  0.00     0.034 H 
ATOM     13  H3  A80 d   1      28.809  83.791   2.498  0.00  0.00     0.034 H 
ATOM     14  H4  A80 d   1      28.522  84.322   4.190  0.00  0.00     0.034 H 
ATOM     15  H5  A80 d   1      24.417  82.441   4.283  0.00  0.00     0.084 H 
ATOM     16  H6  A80 d   1      23.677  81.306   6.342  0.00  0.00     0.086 H 
ATOM     17  H7  A80 d   1      27.776  80.770   7.614  0.00  0.00     0.087 H 
ENDROOT
BRANCH   8  18
ATOM     18  N11 A80 d   1      25.285  80.239   8.301  0.00  0.00    -0.323 N 
ATOM     19  C12 A80 d   1      24.004  79.995   8.707  0.00  0.00     0.256 C 
ATOM     20  O24 A80 d   1      23.030  80.396   8.050  0.00  0.00    -0.267 OA
ATOM     21  H8  A80 d   1      26.018  79.898   8.889  0.00  0.00     0.169 HD
BRANCH  19  22
ATOM     22  C13 A80 d   1      23.755  79.212   9.955  0.00  0.00     0.032 A 
ATOM     23  C14 A80 d   1      24.839  78.747  10.741  0.00  0.00    -0.067 A 
ATOM     24  C15 A80 d   1      24.588  77.972  11.892  0.00  0.00    -0.066 A 
ATOM     25  H9  A80 d   1      25.858  78.986  10.458  0.00  0.00     0.085 H 
ATOM     26  C16 A80 d   1      23.255  77.658  12.265  0.00  0.00     0.040 A 
ATOM     27  H10 A80 d   1      25.416  77.615  12.494  0.00  0.00     0.085 H 
ATOM     28  C17 A80 d   1      22.172  78.130  11.487  0.00  0.00    -0.066 A 
ATOM     29  C18 A80 d   1      22.416  78.898  10.338  0.00  0.00    -0.067 A 
ATOM     30  H11 A80 d   1      21.154  77.898  11.778  0.00  0.00     0.085 H 
ATOM     31  H12 A80 d   1      21.585  79.254   9.739  0.00  0.00     0.085 H 
BRANCH  26  32
ATOM     32  C19 A80 d   1      22.998  76.848  13.432  0.00  0.00     0.209 C 
ATOM     33  O25 A80 d   1      23.259  75.616  13.409  0.00  0.00    -0.644 OA
ATOM     34  O26 A80 d   1      22.295  77.300  14.345  0.00  0.00    -0.644 OA
ENDBRANCH  26  32
ENDBRANCH  19  22
ENDBRANCH   8  18
BRANCH   1  35
ATOM     35  C20 A80 d   1      29.636  83.062   6.371  0.00  0.00    -0.065 C 
ATOM     36  H13 A80 d   1      29.424  82.821   7.423  0.00  0.00     0.028 H 
ATOM     37  H14 A80 d   1      29.162  84.020   6.112  0.00  0.00     0.028 H 
ATOM     38  H15 A80 d   1      30.723  83.139   6.224  0.00  0.00     0.028 H 
ENDBRANCH   1  35
BRANCH   1  39
ATOM     39  C21 A80 d   1      29.801  80.662   5.844  0.00  0.00    -0.065 C 
ATOM     40  H16 A80 d   1      29.427  79.838   5.218  0.00  0.00     0.028 H 
ATOM     41  H17 A80 d   1      29.616  80.431   6.903  0.00  0.00     0.028 H 
ATOM     42  H18 A80 d   1      30.881  80.787   5.679  0.00  0.00     0.028 H 
ENDBRANCH   1  39
BRANCH   4  43
ATOM     43  C22 A80 d   1      26.102  84.218   3.113  0.00  0.00    -0.065 C 
ATOM     44  H19 A80 d   1      25.056  83.887   3.040  0.00  0.00     0.028 H 
ATOM     45  H20 A80 d   1      26.404  84.691   2.167  0.00  0.00     0.028 H 
ATOM     46  H21 A80 d   1      26.200  84.944   3.933  0.00  0.00     0.028 H 
ENDBRANCH   4  43
BRANCH   4  47
ATOM     47  C23 A80 d   1      26.894  82.064   2.186  0.00  0.00    -0.065 C 
ATOM     48  H22 A80 d   1      27.530  81.182   2.352  0.00  0.00     0.028 H 
ATOM     49  H23 A80 d   1      27.225  82.589   1.278  0.00  0.00     0.028 H 
ATOM     50  H24 A80 d   1      25.848  81.745   2.064  0.00  0.00     0.028 H 
ENDBRANCH   4  47
TORSDOF 7
