REMARK  10 active torsions:
REMARK  status: ('A' for Active; 'I' for Inactive)
REMARK    1  A    between atoms: C1_1  and  C21_21 
REMARK    2  A    between atoms: C1_1  and  C20_20 
REMARK    3  A    between atoms: C4_4  and  C19_19 
REMARK    4  A    between atoms: C4_4  and  C18_18 
REMARK    5  A    between atoms: C8_8  and  C11_11 
REMARK    6  A    between atoms: C11_11  and  C22_22 
REMARK    7  A    between atoms: C12_12  and  C13_13 
REMARK    8  A    between atoms: C14_14  and  C15_15 
REMARK    9  A    between atoms: C15_15  and  C23_23 
REMARK   10  A    between atoms: C16_16  and  C17_17 
ROOT
ATOM      1  C1  R13 d   1      22.032  30.598  16.095  0.00  0.00    -0.020 C 
ATOM      2  C2  R13 d   1      21.069  31.269  15.088  0.00  0.00    -0.054 C 
ATOM      3  C3  R13 d   1      20.410  30.244  14.110  0.00  0.00    -0.054 C 
ATOM      4  C4  R13 d   1      19.538  29.196  14.844  0.00  0.00    -0.020 C 
ATOM      5  C5  R13 d   1      20.269  28.607  16.104  0.00  0.00    -0.043 A 
ATOM      6  C6  R13 d   1      19.776  27.401  16.706  0.00  0.00    -0.075 A 
ATOM      7  C7  R13 d   1      20.403  26.855  17.848  0.00  0.00    -0.072 A 
ATOM      8  C8  R13 d   1      21.545  27.493  18.403  0.00  0.00    -0.030 A 
ATOM      9  C9  R13 d   1      22.061  28.678  17.821  0.00  0.00    -0.065 A 
ATOM     10  C10 R13 d   1      21.440  29.264  16.685  0.00  0.00    -0.042 A 
ATOM     11  H1  R13 d   1      21.634  32.005  14.498  0.00  0.00     0.034 H 
ATOM     12  H2  R13 d   1      20.274  31.781  15.649  0.00  0.00     0.034 H 
ATOM     13  H3  R13 d   1      21.206  29.718  13.562  0.00  0.00     0.034 H 
ATOM     14  H4  R13 d   1      19.776  30.794  13.399  0.00  0.00     0.034 H 
ATOM     15  H5  R13 d   1      18.913  26.903  16.279  0.00  0.00     0.084 H 
ATOM     16  H6  R13 d   1      20.013  25.950  18.300  0.00  0.00     0.084 H 
ATOM     17  H7  R13 d   1      22.942  29.144  18.248  0.00  0.00     0.085 H 
ENDROOT
BRANCH   8  18
ATOM     18  C11 R13 d   1      22.247  26.918  19.674  0.00  0.00    -0.052 C 
ATOM     19  C12 R13 d   1      21.660  25.863  20.309  0.00  0.00    -0.076 C 
ATOM     20  H8  R13 d   1      20.756  25.438  19.875  0.00  0.00     0.084 H 
BRANCH  18  21
ATOM     21  C22 R13 d   1      23.557  27.555  20.197  0.00  0.00    -0.050 C 
ATOM     22  H24 R13 d   1      23.850  28.385  19.537  0.00  0.00     0.033 H 
ATOM     23  H25 R13 d   1      24.354  26.797  20.209  0.00  0.00     0.033 H 
ATOM     24  H26 R13 d   1      23.398  27.936  21.217  0.00  0.00     0.033 H 
ENDBRANCH  18  21
BRANCH  19  25
ATOM     25  C13 R13 d   1      22.154  25.303  21.478  0.00  0.00    -0.082 C 
ATOM     26  C14 R13 d   1      21.458  24.285  22.112  0.00  0.00    -0.077 C 
ATOM     27  H10 R13 d   1      20.535  23.920  21.664  0.00  0.00     0.084 H 
ATOM     28  H9  R13 d   1      23.091  25.664  21.899  0.00  0.00     0.083 H 
BRANCH  26  29
ATOM     29  C15 R13 d   1      21.904  23.709  23.314  0.00  0.00    -0.056 C 
ATOM     30  C16 R13 d   1      21.119  22.708  23.900  0.00  0.00    -0.004 C 
ATOM     31  H11 R13 d   1      20.216  22.425  23.360  0.00  0.00     0.094 H 
BRANCH  29  32
ATOM     32  C23 R13 d   1      23.224  24.181  23.991  0.00  0.00    -0.051 C 
ATOM     33  H27 R13 d   1      23.689  24.967  23.379  0.00  0.00     0.033 H 
ATOM     34  H28 R13 d   1      23.915  23.330  24.081  0.00  0.00     0.033 H 
ATOM     35  H29 R13 d   1      23.001  24.579  24.992  0.00  0.00     0.033 H 
ENDBRANCH  29  32
BRANCH  30  36
ATOM     36  C17 R13 d   1      21.375  21.995  25.162  0.00  0.00     0.199 C 
ATOM     37  O2  R13 d   1      20.549  22.095  26.090  0.00  0.00    -0.644 OA
ATOM     38  O1  R13 d   1      22.418  21.323  25.282  0.00  0.00    -0.644 OA
ENDBRANCH  30  36
ENDBRANCH  26  29
ENDBRANCH  19  25
ENDBRANCH   8  18
BRANCH   1  39
ATOM     39  C21 R13 d   1      23.381  30.321  15.428  0.00  0.00    -0.065 C 
ATOM     40  H21 R13 d   1      24.057  29.844  16.153  0.00  0.00     0.028 H 
ATOM     41  H22 R13 d   1      23.821  31.268  15.084  0.00  0.00     0.028 H 
ATOM     42  H23 R13 d   1      23.234  29.651  14.568  0.00  0.00     0.028 H 
ENDBRANCH   1  39
BRANCH   1  43
ATOM     43  C20 R13 d   1      22.280  31.607  17.223  0.00  0.00    -0.065 C 
ATOM     44  H18 R13 d   1      22.963  31.167  17.965  0.00  0.00     0.028 H 
ATOM     45  H19 R13 d   1      21.325  31.857  17.708  0.00  0.00     0.028 H 
ATOM     46  H20 R13 d   1      22.730  32.520  16.806  0.00  0.00     0.028 H 
ENDBRANCH   1  43
BRANCH   4  47
ATOM     47  C19 R13 d   1      19.206  28.087  13.843  0.00  0.00    -0.065 C 
ATOM     48  H15 R13 d   1      20.136  27.606  13.507  0.00  0.00     0.028 H 
ATOM     49  H16 R13 d   1      18.683  28.519  12.977  0.00  0.00     0.028 H 
ATOM     50  H17 R13 d   1      18.560  27.339  14.326  0.00  0.00     0.028 H 
ENDBRANCH   4  47
BRANCH   4  51
ATOM     51  C18 R13 d   1      18.211  29.824  15.273  0.00  0.00    -0.065 C 
ATOM     52  H12 R13 d   1      17.600  29.071  15.793  0.00  0.00     0.028 H 
ATOM     53  H13 R13 d   1      17.671  30.184  14.385  0.00  0.00     0.028 H 
ATOM     54  H14 R13 d   1      18.407  30.669  15.950  0.00  0.00     0.028 H 
ENDBRANCH   4  51
TORSDOF 10
