REMARK  4 active torsions:
REMARK  status: ('A' for Active; 'I' for Inactive)
REMARK    1  A    between atoms: C2_3  and  O2_4 
REMARK    2  A    between atoms: C4_6  and  O4_7 
REMARK    3  A    between atoms: C6_9  and  C7_10 
REMARK    4  A    between atoms: C9_14  and  N3_15 
ROOT
ATOM      1  C7  4BH d   1      30.491   9.603  26.343  0.00  0.00     0.091 A 
ATOM      2  N1  4BH d   1      29.690   9.649  27.380  0.00  0.00    -0.275 N 
ATOM      3  N2  4BH d   1      29.962   8.610  28.163  0.00  0.00    -0.184 NA
ATOM      4  C8  4BH d   1      30.923   7.814  27.691  0.00  0.00     0.049 A 
ATOM      5  C9  4BH d   1      31.286   8.441  26.496  0.00  0.00     0.079 A 
ATOM      6  H5  4BH d   1      28.973  10.367  27.557  0.00  0.00     0.189 HD
ATOM      7  H6  4BH d   1      31.325   6.902  28.129  0.00  0.00     0.121 H 
ENDROOT
BRANCH   5   8
ATOM      8  N3  4BH d   1      32.199   7.809  25.681  0.00  0.00    -0.375 N 
ATOM      9  C11 4BH d   1      31.817   7.356  24.343  0.00  0.00     0.018 C 
ATOM     10  C12 4BH d   1      32.993   7.164  23.371  0.00  0.00     0.096 C 
ATOM     11  H7  4BH d   1      31.133   8.101  23.911  0.00  0.00     0.066 H 
ATOM     12  H8  4BH d   1      31.294   6.393  24.443  0.00  0.00     0.066 H 
ATOM     13  N4  4BH d   1      34.134   6.439  24.018  0.00  0.00    -0.072 N 
ATOM     14  H9  4BH d   1      33.343   8.151  23.035  0.00  0.00     0.078 H 
ATOM     15  H10 4BH d   1      32.647   6.583  22.503  0.00  0.00     0.078 H 
ATOM     16  C14 4BH d   1      34.603   7.189  25.226  0.00  0.00     0.096 C 
ATOM     17  H15 4BH d   1      34.894   6.359  23.360  0.00  0.00     0.277 HD
ATOM     18  H16 4BH d   1      33.830   5.519  24.295  0.00  0.00     0.277 HD
ATOM     19  C15 4BH d   1      33.483   7.388  26.254  0.00  0.00     0.018 C 
ATOM     20  H13 4BH d   1      35.421   6.625  25.698  0.00  0.00     0.078 H 
ATOM     21  H14 4BH d   1      34.973   8.175  24.909  0.00  0.00     0.078 H 
ATOM     22  H11 4BH d   1      33.328   6.436  26.782  0.00  0.00     0.066 H 
ATOM     23  H12 4BH d   1      33.808   8.156  26.971  0.00  0.00     0.066 H 
ENDBRANCH   5   8
BRANCH   1  24
ATOM     24  C6  4BH d   1      30.566  10.478  25.142  0.00  0.00     0.029 A 
ATOM     25  C4  4BH d   1      29.414  10.744  24.403  0.00  0.00     0.081 A 
ATOM     26  C3  4BH d   1      29.478  11.476  23.229  0.00  0.00    -0.017 A 
ATOM     27  C2  4BH d   1      30.728  11.971  22.870  0.00  0.00     0.090 A 
ATOM     28  H2  4BH d   1      28.599  11.654  22.620  0.00  0.00     0.092 H 
ATOM     29  C1  4BH d   1      31.858  11.732  23.593  0.00  0.00     0.068 A 
ATOM     30 CL   4BH d   1      33.418  12.412  23.068  0.00  0.00    -0.081 Cl
ATOM     31  C5  4BH d   1      31.822  10.956  24.730  0.00  0.00    -0.044 A 
ATOM     32  H4  4BH d   1      32.724  10.724  25.284  0.00  0.00     0.087 H 
BRANCH  25  33
ATOM     33  O4  4BH d   1      28.168  10.257  24.808  0.00  0.00    -0.360 OA
ATOM     34  H3  4BH d   1      27.572  10.985  24.939  0.00  0.00     0.217 HD
ENDBRANCH  25  33
BRANCH  27  35
ATOM     35  O2  4BH d   1      30.854  12.717  21.686  0.00  0.00    -0.359 OA
ATOM     36  H1  4BH d   1      30.000  12.812  21.280  0.00  0.00     0.217 HD
ENDBRANCH  27  35
ENDBRANCH   1  24
TORSDOF 4
