REMARK  6 active torsions:
REMARK  status: ('A' for Active; 'I' for Inactive)
REMARK    1  A    between atoms: N21_5  and  C3_6 
REMARK    2  A    between atoms: C2_7  and  C8_8 
REMARK       I    between atoms: C8_8  and  N10_11 
REMARK    3  A    between atoms: N10_11  and  C26_12 
REMARK    4  A    between atoms: C26_12  and  C27_13 
REMARK    5  A    between atoms: C4_16  and  C6_17 
REMARK    6  A    between atoms: C13_21  and  O24_22 
ROOT
ATOM      1  C3  2E1 d   1      31.787   8.609  26.399  0.00  0.00     0.096 A 
ATOM      2  C2  2E1 d   1      31.377   8.336  27.676  0.00  0.00     0.146 A 
ATOM      3  N1  2E1 d   1      30.541   9.270  28.114  0.00  0.00    -0.270 N 
ATOM      4  N5  2E1 d   1      30.349  10.164  27.135  0.00  0.00    -0.171 NA
ATOM      5  C4  2E1 d   1      31.092   9.812  26.068  0.00  0.00     0.119 A 
ATOM      6  H17 2E1 d   1      30.112   9.302  29.050  0.00  0.00     0.189 HD
ENDROOT
BRANCH   1   7
ATOM      7  N21 2E1 d   1      32.698   8.035  25.588  0.00  0.00    -0.374 N 
ATOM      8  C20 2E1 d   1      34.094   8.219  25.923  0.00  0.00     0.018 C 
ATOM      9  C19 2E1 d   1      35.030   7.158  25.361  0.00  0.00     0.096 C 
ATOM     10  H3  2E1 d   1      34.413   9.197  25.535  0.00  0.00     0.066 H 
ATOM     11  H4  2E1 d   1      34.187   8.211  27.019  0.00  0.00     0.066 H 
ATOM     12  N24 2E1 d   1      34.692   6.919  23.921  0.00  0.00    -0.072 N 
ATOM     13  H1  2E1 d   1      34.910   6.223  25.928  0.00  0.00     0.078 H 
ATOM     14  H2  2E1 d   1      36.071   7.505  25.442  0.00  0.00     0.078 H 
ATOM     15  C16 2E1 d   1      33.295   6.358  23.872  0.00  0.00     0.096 C 
ATOM     16  H9  2E1 d   1      35.342   6.261  23.520  0.00  0.00     0.277 HD
ATOM     17  H10 2E1 d   1      34.733   7.786  23.409  0.00  0.00     0.277 HD
ATOM     18  C17 2E1 d   1      32.302   7.421  24.339  0.00  0.00     0.018 C 
ATOM     19  H7  2E1 d   1      33.056   6.061  22.840  0.00  0.00     0.078 H 
ATOM     20  H8  2E1 d   1      33.229   5.480  24.531  0.00  0.00     0.078 H 
ATOM     21  H5  2E1 d   1      31.317   6.950  24.474  0.00  0.00     0.066 H 
ATOM     22  H6  2E1 d   1      32.232   8.202  23.568  0.00  0.00     0.066 H 
ENDBRANCH   1   7
BRANCH   2  23
ATOM     23  C8  2E1 d   1      31.848   7.224  28.437  0.00  0.00     0.272 C 
ATOM     24  O9  2E1 d   1      32.381   6.291  27.843  0.00  0.00    -0.266 OA
ATOM     25  N10 2E1 d   1      31.717   7.295  29.765  0.00  0.00    -0.356 N 
ATOM     26  H11 2E1 d   1      31.437   8.149  30.204  0.00  0.00     0.162 HD
BRANCH  25  27
ATOM     27  C26 2E1 d   1      31.974   6.174  30.517  0.00  0.00    -0.008 C 
ATOM     28  H12 2E1 d   1      31.535   5.313  29.992  0.00  0.00     0.063 H 
ATOM     29  H13 2E1 d   1      31.477   6.304  31.489  0.00  0.00     0.063 H 
BRANCH  27  30
ATOM     30  C27 2E1 d   1      33.454   5.848  30.790  0.00  0.00    -0.061 C 
ATOM     31  H14 2E1 d   1      33.522   4.934  31.398  0.00  0.00     0.029 H 
ATOM     32  H15 2E1 d   1      33.920   6.684  31.332  0.00  0.00     0.029 H 
ATOM     33  H16 2E1 d   1      33.978   5.693  29.835  0.00  0.00     0.029 H 
ENDBRANCH  27  30
ENDBRANCH  25  27
ENDBRANCH   2  23
BRANCH   5  34
ATOM     34  C6  2E1 d   1      31.126  10.617  24.836  0.00  0.00     0.045 A 
ATOM     35  C11 2E1 d   1      32.341  11.103  24.370  0.00  0.00    -0.044 A 
ATOM     36  C12 2E1 d   1      32.374  11.865  23.207  0.00  0.00     0.064 A 
ATOM     37  H18 2E1 d   1      33.261  10.889  24.912  0.00  0.00     0.087 H 
ATOM     38 CL25 2E1 d   1      33.873  12.500  22.640  0.00  0.00    -0.082 Cl
ATOM     39  C13 2E1 d   1      31.239  12.195  22.490  0.00  0.00     0.072 A 
ATOM     40  C14 2E1 d   1      30.008  11.700  22.967  0.00  0.00     0.040 A 
ATOM     41  C15 2E1 d   1      29.978  10.926  24.138  0.00  0.00     0.168 A 
ATOM     42  H20 2E1 d   1      29.580  11.082  22.164  0.00  0.00     0.055 H 
ATOM     43  H21 2E1 d   1      29.360  12.571  23.143  0.00  0.00     0.055 H 
ATOM     44  O23 2E1 d   1      28.837  10.516  24.597  0.00  0.00    -0.292 OA
BRANCH  39  45
ATOM     45  O24 2E1 d   1      31.341  12.944  21.348  0.00  0.00    -0.363 OA
ATOM     46  H19 2E1 d   1      30.475  13.079  20.981  0.00  0.00     0.217 HD
ENDBRANCH  39  45
ENDBRANCH   5  34
TORSDOF 6
