REMARK  8 active torsions:
REMARK  status: ('A' for Active; 'I' for Inactive)
REMARK    1  A    between atoms: C31_1  and  S28_2 
REMARK    2  A    between atoms: S28_2  and  C25_5 
REMARK    3  A    between atoms: C19_10  and  C18_11 
REMARK    4  A    between atoms: C18_11  and  N15_12 
REMARK    5  A    between atoms: N12_17  and  C3_18 
REMARK    6  A    between atoms: C4_22  and  C6_23 
REMARK    7  A    between atoms: C9_27  and  O21_28 
REMARK    8  A    between atoms: C11_30  and  O22_31 
ROOT
ATOM      1  N15 2D9 d   1      34.447   6.608  24.087  0.00  0.00    -0.064 N 
ATOM      2  C16 2D9 d   1      33.108   7.014  23.563  0.00  0.00     0.098 C 
ATOM      3  C17 2D9 d   1      31.984   6.951  24.611  0.00  0.00     0.018 C 
ATOM      4  C14 2D9 d   1      34.460   6.097  25.499  0.00  0.00     0.098 C 
ATOM      5  C13 2D9 d   1      33.637   6.940  26.524  0.00  0.00     0.018 C 
ATOM      6  N12 2D9 d   1      32.358   7.414  25.951  0.00  0.00    -0.374 N 
ATOM      7  H10 2D9 d   1      34.977   7.465  24.114  0.00  0.00     0.280 HD
ATOM      8  H11 2D9 d   1      32.844   6.345  22.731  0.00  0.00     0.078 H 
ATOM      9  H12 2D9 d   1      33.179   8.048  23.193  0.00  0.00     0.078 H 
ATOM     10  H13 2D9 d   1      31.651   5.906  24.692  0.00  0.00     0.066 H 
ATOM     11  H14 2D9 d   1      31.151   7.574  24.255  0.00  0.00     0.066 H 
ATOM     12  H15 2D9 d   1      35.505   6.072  25.841  0.00  0.00     0.078 H 
ATOM     13  H16 2D9 d   1      34.052   5.076  25.494  0.00  0.00     0.078 H 
ATOM     14  H17 2D9 d   1      34.235   7.812  26.828  0.00  0.00     0.066 H 
ATOM     15  H18 2D9 d   1      33.422   6.317  27.405  0.00  0.00     0.066 H 
ENDROOT
BRANCH   1  16
ATOM     16  C18 2D9 d   1      35.222   5.690  23.169  0.00  0.00     0.107 C 
ATOM     17  H8  2D9 d   1      36.066   6.268  22.764  0.00  0.00     0.083 H 
ATOM     18  H9  2D9 d   1      35.606   4.862  23.782  0.00  0.00     0.083 H 
BRANCH  16  19
ATOM     19  C19 2D9 d   1      34.463   5.056  21.951  0.00  0.00    -0.033 A 
ATOM     20  C27 2D9 d   1      34.435   5.607  20.651  0.00  0.00    -0.074 A 
ATOM     21  C26 2D9 d   1      33.742   4.972  19.582  0.00  0.00    -0.061 A 
ATOM     22  H5  2D9 d   1      34.955   6.539  20.462  0.00  0.00     0.084 H 
ATOM     23  C25 2D9 d   1      33.055   3.753  19.776  0.00  0.00     0.058 A 
ATOM     24  H4  2D9 d   1      33.741   5.433  18.601  0.00  0.00     0.085 H 
ATOM     25  C24 2D9 d   1      33.120   3.208  21.065  0.00  0.00    -0.061 A 
ATOM     26  C23 2D9 d   1      33.807   3.836  22.124  0.00  0.00    -0.074 A 
ATOM     27  H6  2D9 d   1      32.621   2.264  21.256  0.00  0.00     0.085 H 
ATOM     28  H7  2D9 d   1      33.826   3.359  23.097  0.00  0.00     0.084 H 
BRANCH  23  29
ATOM     29  S28 2D9 d   1      32.102   2.840  18.483  0.00  0.00     0.171 S 
ATOM     30  O29 2D9 d   1      32.181   1.358  18.705  0.00  0.00    -0.223 OA
ATOM     31  O30 2D9 d   1      32.415   3.223  17.048  0.00  0.00    -0.223 OA
BRANCH  29  32
ATOM     32  C31 2D9 d   1      30.325   3.080  18.589  0.00  0.00     0.020 C 
ATOM     33  H1  2D9 d   1      29.981   2.828  19.603  0.00  0.00     0.049 H 
ATOM     34  H2  2D9 d   1      29.823   2.428  17.859  0.00  0.00     0.049 H 
ATOM     35  H3  2D9 d   1      30.083   4.130  18.370  0.00  0.00     0.049 H 
ENDBRANCH  29  32
ENDBRANCH  23  29
ENDBRANCH  16  19
ENDBRANCH   1  16
BRANCH   6  36
ATOM     36  C3  2D9 d   1      31.504   8.257  26.703  0.00  0.00     0.079 A 
ATOM     37  C2  2D9 d   1      31.169   7.902  27.924  0.00  0.00     0.049 A 
ATOM     38  N1  2D9 d   1      30.376   8.875  28.398  0.00  0.00    -0.184 NA
ATOM     39  H19 2D9 d   1      31.475   6.997  28.447  0.00  0.00     0.121 H 
ATOM     40  N5  2D9 d   1      30.170   9.795  27.577  0.00  0.00    -0.275 N 
ATOM     41  C4  2D9 d   1      30.858   9.543  26.463  0.00  0.00     0.091 A 
ATOM     42  H20 2D9 d   1      29.567  10.615  27.735  0.00  0.00     0.189 HD
BRANCH  41  43
ATOM     43  C6  2D9 d   1      30.897  10.370  25.302  0.00  0.00     0.029 A 
ATOM     44  C7  2D9 d   1      32.104  10.816  24.805  0.00  0.00    -0.044 A 
ATOM     45  C8  2D9 d   1      32.180  11.620  23.654  0.00  0.00     0.068 A 
ATOM     46  H21 2D9 d   1      33.019  10.539  25.316  0.00  0.00     0.087 H 
ATOM     47 CL20 2D9 d   1      33.764  12.118  23.154  0.00  0.00    -0.081 Cl
ATOM     48  C9  2D9 d   1      31.022  12.010  22.921  0.00  0.00     0.090 A 
ATOM     49  C10 2D9 d   1      29.781  11.566  23.459  0.00  0.00    -0.017 A 
ATOM     50  C11 2D9 d   1      29.743  10.767  24.618  0.00  0.00     0.081 A 
ATOM     51  H23 2D9 d   1      28.855  11.846  22.971  0.00  0.00     0.092 H 
BRANCH  48  52
ATOM     52  O21 2D9 d   1      31.094  12.788  21.737  0.00  0.00    -0.359 OA
ATOM     53  H22 2D9 d   1      30.217  12.938  21.404  0.00  0.00     0.217 HD
ENDBRANCH  48  52
BRANCH  50  54
ATOM     54  O22 2D9 d   1      28.544  10.348  25.067  0.00  0.00    -0.360 OA
ATOM     55  H24 2D9 d   1      28.003  11.101  25.272  0.00  0.00     0.217 HD
ENDBRANCH  50  54
ENDBRANCH  41  43
ENDBRANCH   6  36
TORSDOF 8
