REMARK  20 active torsions:
REMARK  status: ('A' for Active; 'I' for Inactive)
REMARK    1  A    between atoms: C1_1  and  C2_2 
REMARK    2  A    between atoms: C1_1  and  C24_15 
REMARK    3  A    between atoms: C1_1  and  O36_22 
REMARK    4  A    between atoms: C41_23  and  C1_1 
REMARK       I    between atoms: C2_2  and  N4_4 
REMARK    5  A    between atoms: N4_4  and  C5_5 
REMARK    6  A    between atoms: C13_13  and  O14_14 
REMARK    7  A    between atoms: C24_15  and  C25_16 
REMARK    8  A    between atoms: N42_24  and  C41_23 
REMARK    9  A    between atoms: N42_24  and  N43_25 
REMARK   10  A    between atoms: C44_26  and  N42_24 
REMARK       I    between atoms: N43_25  and  C45_27 
REMARK   11  A    between atoms: C78_37  and  C44_26 
REMARK   12  A    between atoms: C45_27  and  C47_29 
REMARK   13  A    between atoms: C47_29  and  C48_30 
REMARK   14  A    between atoms: C47_29  and  N51_33 
REMARK   15  A    between atoms: C48_30  and  C49_31 
REMARK   16  A    between atoms: C48_30  and  C50_32 
REMARK   17  A    between atoms: C48_30  and  C92_44 
REMARK       I    between atoms: N51_33  and  C54_34 
REMARK   18  A    between atoms: C54_34  and  O56_36 
REMARK   19  A    between atoms: O56_36  and  C91_43 
REMARK   20  A    between atoms: C96_48  and  C81_40 
ROOT
ATOM      1  N42 2AH d   1      11.958  24.057   4.214  0.00  0.00     0.018 N 
ATOM      2  H21 2AH d   1      12.579  24.783   3.893  0.00  0.00     0.309 HD
ENDROOT
BRANCH   1   3
ATOM      3  C41 2AH d   1      12.905  23.030   4.576  0.00  0.00     0.141 C 
ATOM      4  H19 2AH d   1      12.269  22.240   5.001  0.00  0.00     0.085 H 
ATOM      5  H20 2AH d   1      13.301  22.699   3.605  0.00  0.00     0.085 H 
BRANCH   3   6
ATOM      6  C1  2AH d   1      14.170  23.012   5.505  0.00  0.00     0.168 C 
BRANCH   6   7
ATOM      7  C2  2AH d   1      14.511  21.491   5.291  0.00  0.00     0.255 C 
ATOM      8  O3  2AH d   1      13.595  20.650   5.255  0.00  0.00    -0.270 OA
ATOM      9  N4  2AH d   1      15.791  21.087   5.164  0.00  0.00    -0.347 N 
ATOM     10  H1  2AH d   1      16.520  21.771   5.199  0.00  0.00     0.163 HD
BRANCH   9  11
ATOM     11  C5  2AH d   1      16.152  19.671   4.976  0.00  0.00     0.063 C 
ATOM     12  C6  2AH d   1      16.136  19.161   3.563  0.00  0.00    -0.027 A 
ATOM     13  C7  2AH d   1      15.283  19.532   2.472  0.00  0.00    -0.074 A 
ATOM     14  C11 2AH d   1      17.140  18.188   3.409  0.00  0.00    -0.047 A 
ATOM     15  C8  2AH d   1      15.486  18.881   1.209  0.00  0.00    -0.082 A 
ATOM     16  H3  2AH d   1      14.509  20.281   2.597  0.00  0.00     0.084 H 
ATOM     17  C9  2AH d   1      16.512  17.890   1.059  0.00  0.00    -0.082 A 
ATOM     18  H4  2AH d   1      14.860  19.140   0.363  0.00  0.00     0.083 H 
ATOM     19  C10 2AH d   1      17.354  17.529   2.164  0.00  0.00    -0.076 A 
ATOM     20  H5  2AH d   1      16.653  17.407   0.099  0.00  0.00     0.083 H 
ATOM     21  H6  2AH d   1      18.128  16.779   2.055  0.00  0.00     0.084 H 
ATOM     22  C12 2AH d   1      17.892  17.987   4.704  0.00  0.00    -0.014 C 
ATOM     23  C13 2AH d   1      17.568  19.278   5.496  0.00  0.00     0.063 C 
ATOM     24  H7  2AH d   1      18.973  17.894   4.524  0.00  0.00     0.044 H 
ATOM     25  H8  2AH d   1      17.531  17.095   5.237  0.00  0.00     0.044 H 
ATOM     26  H9  2AH d   1      17.571  19.122   6.585  0.00  0.00     0.087 H 
ATOM     27  H2  2AH d   1      15.408  19.097   5.548  0.00  0.00     0.084 H 
BRANCH  23  28
ATOM     28  O14 2AH d   1      18.552  20.230   5.114  0.00  0.00    -0.393 OA
ATOM     29  H10 2AH d   1      18.397  21.046   5.575  0.00  0.00     0.210 HD
ENDBRANCH  23  28
ENDBRANCH   9  11
ENDBRANCH   6   7
BRANCH   6  30
ATOM     30  C24 2AH d   1      13.917  23.322   7.015  0.00  0.00    -0.002 C 
ATOM     31  H11 2AH d   1      12.879  23.037   7.242  0.00  0.00     0.045 H 
ATOM     32  H12 2AH d   1      14.039  24.406   7.156  0.00  0.00     0.045 H 
BRANCH  30  33
ATOM     33  C25 2AH d   1      14.816  22.624   8.027  0.00  0.00    -0.055 A 
ATOM     34  C26 2AH d   1      14.303  21.517   8.796  0.00  0.00    -0.077 A 
ATOM     35  C27 2AH d   1      15.137  20.847   9.738  0.00  0.00    -0.082 A 
ATOM     36  H13 2AH d   1      13.278  21.193   8.657  0.00  0.00     0.084 H 
ATOM     37  C28 2AH d   1      16.491  21.277   9.920  0.00  0.00    -0.083 A 
ATOM     38  H14 2AH d   1      14.748  20.015  10.314  0.00  0.00     0.083 H 
ATOM     39  C29 2AH d   1      17.007  22.376   9.159  0.00  0.00    -0.082 A 
ATOM     40  H15 2AH d   1      17.128  20.769  10.636  0.00  0.00     0.083 H 
ATOM     41  C30 2AH d   1      16.171  23.051   8.213  0.00  0.00    -0.077 A 
ATOM     42  H16 2AH d   1      18.033  22.697   9.300  0.00  0.00     0.083 H 
ATOM     43  H17 2AH d   1      16.562  23.883   7.639  0.00  0.00     0.084 H 
ENDBRANCH  30  33
ENDBRANCH   6  30
BRANCH   6  44
ATOM     44  O36 2AH d   1      15.239  23.864   5.117  0.00  0.00    -0.378 OA
ATOM     45  H18 2AH d   1      14.984  24.770   5.248  0.00  0.00     0.211 HD
ENDBRANCH   6  44
ENDBRANCH   3   6
ENDBRANCH   1   3
BRANCH   1  46
ATOM     46  N43 2AH d   1      11.306  24.808   5.177  0.00  0.00    -0.184 N 
ATOM     47  C45 2AH d   1      10.463  24.559   6.207  0.00  0.00     0.265 C 
ATOM     48  O46 2AH d   1      10.301  23.428   6.700  0.00  0.00    -0.269 OA
ATOM     49  H22 2AH d   1      11.509  25.783   5.090  0.00  0.00     0.197 HD
BRANCH  47  50
ATOM     50  C47 2AH d   1       9.698  25.794   6.743  0.00  0.00     0.099 C 
ATOM     51  H25 2AH d   1      10.180  26.679   6.302  0.00  0.00     0.088 H 
BRANCH  50  52
ATOM     52  C48 2AH d   1       9.664  26.038   8.297  0.00  0.00    -0.022 C 
BRANCH  52  53
ATOM     53  C49 2AH d   1       8.908  27.336   8.676  0.00  0.00    -0.067 C 
ATOM     54  H26 2AH d   1       8.914  27.458   9.769  0.00  0.00     0.028 H 
ATOM     55  H27 2AH d   1       7.869  27.273   8.320  0.00  0.00     0.028 H 
ATOM     56  H28 2AH d   1       9.404  28.199   8.208  0.00  0.00     0.028 H 
ENDBRANCH  52  53
BRANCH  52  57
ATOM     57  C50 2AH d   1      11.065  26.142   8.926  0.00  0.00    -0.067 C 
ATOM     58  H29 2AH d   1      11.644  25.238   8.684  0.00  0.00     0.028 H 
ATOM     59  H30 2AH d   1      10.971  26.235  10.018  0.00  0.00     0.028 H 
ATOM     60  H31 2AH d   1      11.582  27.027   8.526  0.00  0.00     0.028 H 
ENDBRANCH  52  57
BRANCH  52  61
ATOM     61  C92 2AH d   1       8.902  24.900   8.981  0.00  0.00    -0.067 C 
ATOM     62  H40 2AH d   1       7.898  24.814   8.540  0.00  0.00     0.028 H 
ATOM     63  H41 2AH d   1       8.814  25.112  10.057  0.00  0.00     0.028 H 
ATOM     64  H42 2AH d   1       9.447  23.955   8.837  0.00  0.00     0.028 H 
ENDBRANCH  52  61
ENDBRANCH  50  52
BRANCH  50  65
ATOM     65  N51 2AH d   1       8.314  25.711   6.235  0.00  0.00    -0.323 N 
ATOM     66  C54 2AH d   1       7.699  26.606   5.445  0.00  0.00     0.360 C 
ATOM     67  O55 2AH d   1       8.306  27.630   5.076  0.00  0.00    -0.239 OA
ATOM     68  H32 2AH d   1       7.782  24.909   6.506  0.00  0.00     0.165 HD
BRANCH  66  69
ATOM     69  O56 2AH d   1       6.418  26.334   5.085  0.00  0.00    -0.309 OA
BRANCH  69  70
ATOM     70  C91 2AH d   1       5.662  27.208   4.251  0.00  0.00     0.015 C 
ATOM     71  H37 2AH d   1       4.658  26.787   4.094  0.00  0.00     0.067 H 
ATOM     72  H38 2AH d   1       6.169  27.319   3.281  0.00  0.00     0.067 H 
ATOM     73  H39 2AH d   1       5.575  28.192   4.734  0.00  0.00     0.067 H 
ENDBRANCH  69  70
ENDBRANCH  66  69
ENDBRANCH  50  65
ENDBRANCH  47  50
ENDBRANCH   1  46
BRANCH   1  74
ATOM     74  C44 2AH d   1      11.383  23.615   2.911  0.00  0.00     0.128 C 
ATOM     75  H23 2AH d   1      11.838  22.652   2.635  0.00  0.00     0.086 H 
ATOM     76  H24 2AH d   1      11.626  24.368   2.147  0.00  0.00     0.086 H 
BRANCH  74  77
ATOM     77  C78 2AH d   1       9.876  23.442   2.957  0.00  0.00    -0.030 A 
ATOM     78  C79 2AH d   1       9.033  24.459   2.405  0.00  0.00    -0.074 A 
ATOM     79  C80 2AH d   1       7.607  24.329   2.466  0.00  0.00    -0.070 A 
ATOM     80  H33 2AH d   1       9.476  25.332   1.939  0.00  0.00     0.084 H 
ATOM     81  C81 2AH d   1       7.014  23.178   3.089  0.00  0.00    -0.007 A 
ATOM     82  H34 2AH d   1       6.975  25.100   2.041  0.00  0.00     0.084 H 
ATOM     83  C83 2AH d   1       7.867  22.159   3.630  0.00  0.00    -0.070 A 
ATOM     84  C82 2AH d   1       9.290  22.287   3.565  0.00  0.00    -0.074 A 
ATOM     85  H36 2AH d   1       7.428  21.283   4.093  0.00  0.00     0.084 H 
ATOM     86  H35 2AH d   1       9.924  21.510   3.976  0.00  0.00     0.084 H 
BRANCH  81  87
ATOM     87  C96 2AH d   1       5.533  23.063   3.172  0.00  0.00     0.066 A 
ATOM     88  C95 2AH d   1       4.913  21.939   3.806  0.00  0.00    -0.054 A 
ATOM     89  C94 2AH d   1       3.491  21.861   3.878  0.00  0.00    -0.079 A 
ATOM     90  H45 2AH d   1       5.523  21.149   4.230  0.00  0.00     0.087 H 
ATOM     91  C93 2AH d   1       2.672  22.888   3.326  0.00  0.00    -0.066 A 
ATOM     92  H44 2AH d   1       3.026  21.008   4.360  0.00  0.00     0.083 H 
ATOM     93  C98 2AH d   1       3.279  24.004   2.696  0.00  0.00     0.003 A 
ATOM     94  H43 2AH d   1       1.592  22.817   3.387  0.00  0.00     0.085 H 
ATOM     95  N97 2AH d   1       4.703  24.088   2.623  0.00  0.00    -0.260 NA
ATOM     96  H46 2AH d   1       2.665  24.790   2.272  0.00  0.00     0.114 H 
ENDBRANCH  81  87
ENDBRANCH  74  77
ENDBRANCH   1  74
TORSDOF 20
