REMARK  7 active torsions:
REMARK  status: ('A' for Active; 'I' for Inactive)
REMARK    1  A    between atoms: C1_1  and  C7_7 
REMARK    2  A    between atoms: O4_17  and  C4_4 
REMARK    3  A    between atoms: C7_7  and  C8_8 
REMARK    4  A    between atoms: C8_8  and  C9_9 
REMARK    5  A    between atoms: C8_8  and  N8_16 
REMARK    6  A    between atoms: C1'_10  and  O4_17 
REMARK    7  A    between atoms: C4'_13  and  O4'_18 
ROOT
ATOM      1  C1  T44 d   1      20.333   1.961 -20.544  0.00  0.00    -0.053 A 
ATOM      2  C2  T44 d   1      20.989   1.389 -21.647  0.00  0.00    -0.058 A 
ATOM      3  C3  T44 d   1      20.750   1.819 -22.949  0.00  0.00     0.042 A 
ATOM      4  C4  T44 d   1      19.769   2.901 -23.151  0.00  0.00     0.109 A 
ATOM      5  C5  T44 d   1      19.101   3.467 -21.969  0.00  0.00     0.042 A 
ATOM      6  C6  T44 d   1      19.394   2.985 -20.695  0.00  0.00    -0.058 A 
ATOM      7  I3  T44 d   1      21.716   0.990 -24.608  0.00  0.00    -0.042 I 
ATOM      8  I5  T44 d   1      17.741   4.989 -22.352  0.00  0.00    -0.042 I 
ATOM      9  H1  T44 d   1      21.702   0.590 -21.479  0.00  0.00     0.086 H 
ATOM     10  H2  T44 d   1      18.897   3.402 -19.826  0.00  0.00     0.086 H 
ENDROOT
BRANCH   4  11
ATOM     11  O4  T44 d   1      19.474   3.390 -24.396  0.00  0.00    -0.308 OA
BRANCH  11  12
ATOM     12  C1' T44 d   1      20.289   4.307 -25.020  0.00  0.00     0.078 A 
ATOM     13  C2' T44 d   1      21.170   5.100 -24.277  0.00  0.00    -0.032 A 
ATOM     14  C3' T44 d   1      22.003   6.032 -24.892  0.00  0.00     0.043 A 
ATOM     15  H6  T44 d   1      21.205   4.987 -23.200  0.00  0.00     0.089 H 
ATOM     16  C4' T44 d   1      21.957   6.187 -26.360  0.00  0.00     0.098 A 
ATOM     17  I3' T44 d   1      23.319   7.212 -23.789  0.00  0.00    -0.042 I 
ATOM     18  C5' T44 d   1      21.014   5.329 -27.094  0.00  0.00     0.043 A 
ATOM     19  C6' T44 d   1      20.215   4.418 -26.411  0.00  0.00    -0.032 A 
ATOM     20  I5' T44 d   1      20.932   5.535 -29.155  0.00  0.00    -0.042 I 
ATOM     21  H7  T44 d   1      19.528   3.788 -26.964  0.00  0.00     0.089 H 
BRANCH  16  22
ATOM     22  O4' T44 d   1      22.747   7.075 -27.027  0.00  0.00    -0.358 OA
ATOM     23  H11 T44 d   1      23.291   7.543 -26.404  0.00  0.00     0.217 HD
ENDBRANCH  16  22
ENDBRANCH  11  12
ENDBRANCH   4  11
BRANCH   1  24
ATOM     24  C7  T44 d   1      20.631   1.445 -19.154  0.00  0.00    -0.005 C 
ATOM     25  H3  T44 d   1      20.773   0.355 -19.206  0.00  0.00     0.044 H 
ATOM     26  H4  T44 d   1      19.775   1.673 -18.502  0.00  0.00     0.044 H 
BRANCH  24  27
ATOM     27  C8  T44 d   1      21.887   2.074 -18.550  0.00  0.00     0.186 C 
ATOM     28  H5  T44 d   1      22.133   1.518 -17.633  0.00  0.00     0.101 H 
BRANCH  27  29
ATOM     29  C9  T44 d   1      23.081   1.965 -19.475  0.00  0.00     0.204 C 
ATOM     30  O9  T44 d   1      23.641   3.007 -19.885  0.00  0.00    -0.646 OA
ATOM     31  O10 T44 d   1      23.489   0.826 -19.803  0.00  0.00    -0.646 OA
ENDBRANCH  27  29
BRANCH  27  32
ATOM     32  N8  T44 d   1      21.608   3.451 -18.173  0.00  0.00    -0.065 N 
ATOM     33  H8  T44 d   1      22.436   3.865 -17.775  0.00  0.00     0.275 HD
ATOM     34  H9  T44 d   1      20.864   3.469 -17.494  0.00  0.00     0.275 HD
ATOM     35  H10 T44 d   1      21.331   3.973 -18.989  0.00  0.00     0.275 HD
ENDBRANCH  27  32
ENDBRANCH  24  27
ENDBRANCH   1  24
TORSDOF 7
