REMARK  9 active torsions:
REMARK  status: ('A' for Active; 'I' for Inactive)
REMARK    1  A    between atoms: NNG_2  and  CM2_1 
REMARK    2  A    between atoms: NNG_2  and  CM1_3 
REMARK    3  A    between atoms: CNE_4  and  NNG_2 
REMARK    4  A    between atoms: OL5_10  and  CNA_6 
REMARK    5  A    between atoms: CL4_11  and  OL5_10 
REMARK    6  A    between atoms: CL3_12  and  CL4_11 
REMARK    7  A    between atoms: CL2_13  and  CL3_12 
REMARK    8  A    between atoms: CL1_14  and  CL2_13 
REMARK    9  A    between atoms: CAL_15  and  CL1_14 
ROOT
ATOM      1  CAL R4A d   1      26.724   6.990   3.450  0.00  0.00    -0.044 A 
ATOM      2  CAK R4A d   1      26.872   8.053   2.429  0.00  0.00     0.001 A 
ATOM      3  CAJ R4A d   1      26.787   7.906   1.031  0.00  0.00    -0.069 A 
ATOM      4  CAB R4A d   1      27.132   9.378   2.973  0.00  0.00     0.096 A 
ATOM      5  CAC R4A d   1      27.293  10.497   2.060  0.00  0.00     0.096 A 
ATOM      6  CAH R4A d   1      27.193  10.285   0.616  0.00  0.00    -0.005 A 
ATOM      7  CAI R4A d   1      26.941   8.993   0.148  0.00  0.00    -0.070 A 
ATOM      8  CAG R4A d   1      27.366  11.413  -0.182  0.00  0.00    -0.069 A 
ATOM      9  CAF R4A d   1      27.612  12.647   0.441  0.00  0.00    -0.065 A 
ATOM     10  CAE R4A d   1      27.702  12.794   1.839  0.00  0.00     0.003 A 
ATOM     11  NAD R4A d   1      27.548  11.733   2.650  0.00  0.00    -0.258 N 
ATOM     12  NAA R4A d   1      27.235   9.661   4.334  0.00  0.00    -0.258 N 
ATOM     13  CAN R4A d   1      27.100   8.669   5.225  0.00  0.00     0.004 A 
ATOM     14  CAM R4A d   1      26.843   7.354   4.808  0.00  0.00    -0.059 A 
ATOM     15  NCL R4A d   1      28.162  13.637   4.922  0.00  0.00    -0.259 N 
ATOM     16  CCK R4A d   1      27.301  14.659   5.086  0.00  0.00     0.003 A 
ATOM     17  CCJ R4A d   1      27.792  15.963   5.207  0.00  0.00    -0.066 A 
ATOM     18  CCI R4A d   1      29.168  16.207   5.148  0.00  0.00    -0.079 A 
ATOM     19  CCG R4A d   1      29.540  13.860   4.861  0.00  0.00     0.085 A 
ATOM     20  CCH R4A d   1      30.055  15.151   4.976  0.00  0.00    -0.053 A 
ATOM     21  CCF R4A d   1      30.334  12.606   4.663  0.00  0.00     0.085 A 
ATOM     22  CCE R4A d   1      31.803  12.576   4.585  0.00  0.00    -0.053 A 
ATOM     23  CCD R4A d   1      32.419  11.413   4.444  0.00  0.00    -0.079 A 
ATOM     24  CCC R4A d   1      31.567  10.242   4.354  0.00  0.00    -0.066 A 
ATOM     25  CCB R4A d   1      30.236  10.386   4.414  0.00  0.00     0.003 A 
ATOM     26  NCA R4A d   1      29.668  11.517   4.562  0.00  0.00    -0.259 N 
ATOM     27  NBL R4A d   1      27.563  11.429   6.772  0.00  0.00    -0.259 N 
ATOM     28  CBK R4A d   1      28.620  11.151   7.551  0.00  0.00     0.003 A 
ATOM     29  CBJ R4A d   1      28.448  11.004   8.933  0.00  0.00    -0.066 A 
ATOM     30  CBI R4A d   1      27.182  11.145   9.495  0.00  0.00    -0.079 A 
ATOM     31  CBG R4A d   1      26.279  11.572   7.312  0.00  0.00     0.085 A 
ATOM     32  CBH R4A d   1      26.087  11.431   8.682  0.00  0.00    -0.053 A 
ATOM     33  CBF R4A d   1      25.216  11.878   6.300  0.00  0.00     0.085 A 
ATOM     34  CBE R4A d   1      23.785  12.082   6.647  0.00  0.00    -0.053 A 
ATOM     35  CBD R4A d   1      22.942  12.368   5.657  0.00  0.00    -0.079 A 
ATOM     36  CBC R4A d   1      23.492  12.446   4.308  0.00  0.00    -0.066 A 
ATOM     37  CBB R4A d   1      24.800  12.227   4.110  0.00  0.00     0.003 A 
ATOM     38  NBA R4A d   1      25.601  11.968   5.077  0.00  0.00    -0.259 N 
ATOM     39 RU   R4A d   1      27.612  11.659   4.719  0.00  0.00     0.000 Ru
ATOM     40  H19 R4A d   1      26.596   6.921   0.620  0.00  0.00     0.085 H 
ATOM     41  H20 R4A d   1      26.862   8.823  -0.920  0.00  0.00     0.084 H 
ATOM     42  H21 R4A d   1      27.312  11.340  -1.262  0.00  0.00     0.085 H 
ATOM     43  H22 R4A d   1      27.738  13.525  -0.181  0.00  0.00     0.085 H 
ATOM     44  H23 R4A d   1      27.897  13.772   2.265  0.00  0.00     0.114 H 
ATOM     45  H24 R4A d   1      27.191   8.886   6.283  0.00  0.00     0.114 H 
ATOM     46  H25 R4A d   1      26.731   6.584   5.562  0.00  0.00     0.086 H 
ATOM     47  H26 R4A d   1      26.234  14.472   5.124  0.00  0.00     0.114 H 
ATOM     48  H27 R4A d   1      27.103  16.788   5.347  0.00  0.00     0.085 H 
ATOM     49  H28 R4A d   1      29.543  17.220   5.237  0.00  0.00     0.083 H 
ATOM     50  H29 R4A d   1      31.124  15.327   4.932  0.00  0.00     0.087 H 
ATOM     51  H30 R4A d   1      32.374  13.496   4.642  0.00  0.00     0.087 H 
ATOM     52  H31 R4A d   1      33.499  11.339   4.398  0.00  0.00     0.083 H 
ATOM     53  H32 R4A d   1      32.004   9.257   4.239  0.00  0.00     0.085 H 
ATOM     54  H33 R4A d   1      29.615   9.501   4.333  0.00  0.00     0.114 H 
ATOM     55  H34 R4A d   1      29.605  11.040   7.111  0.00  0.00     0.114 H 
ATOM     56  H35 R4A d   1      29.300  10.781   9.565  0.00  0.00     0.085 H 
ATOM     57  H36 R4A d   1      27.048  11.032  10.565  0.00  0.00     0.083 H 
ATOM     58  H37 R4A d   1      25.098  11.542   9.112  0.00  0.00     0.087 H 
ATOM     59  H38 R4A d   1      23.440  12.001   7.671  0.00  0.00     0.087 H 
ATOM     60  H39 R4A d   1      21.888  12.536   5.846  0.00  0.00     0.083 H 
ATOM     61  H40 R4A d   1      22.846  12.680   3.469  0.00  0.00     0.085 H 
ATOM     62  H41 R4A d   1      25.192  12.270   3.100  0.00  0.00     0.114 H 
ENDROOT
BRANCH   1  63
ATOM     63  CL1 R4A d   1      26.463   5.573   2.990  0.00  0.00    -0.040 C 
ATOM     64  H17 R4A d   1      25.376   5.416   2.927  0.00  0.00     0.040 H 
ATOM     65  H18 R4A d   1      26.911   5.436   1.995  0.00  0.00     0.040 H 
BRANCH  63  66
ATOM     66  CL2 R4A d   1      27.050   4.543   3.934  0.00  0.00    -0.059 C 
ATOM     67  H15 R4A d   1      27.408   3.687   3.344  0.00  0.00     0.033 H 
ATOM     68  H16 R4A d   1      27.895   4.998   4.471  0.00  0.00     0.033 H 
BRANCH  66  69
ATOM     69  CL3 R4A d   1      26.041   4.046   4.948  0.00  0.00    -0.044 C 
ATOM     70  H13 R4A d   1      26.390   4.303   5.959  0.00  0.00     0.036 H 
ATOM     71  H14 R4A d   1      25.072   4.532   4.760  0.00  0.00     0.036 H 
BRANCH  69  72
ATOM     72  CL4 R4A d   1      25.868   2.538   4.850  0.00  0.00     0.026 C 
ATOM     73  H11 R4A d   1      26.515   2.137   4.056  0.00  0.00     0.075 H 
ATOM     74  H12 R4A d   1      26.129   2.067   5.809  0.00  0.00     0.075 H 
BRANCH  72  75
ATOM     75  OL5 R4A d   1      24.505   2.283   4.540  0.00  0.00    -0.351 OA
BRANCH  75  76
ATOM     76  CNA R4A d   1      23.659   1.596   5.372  0.00  0.00     0.070 A 
ATOM     77  CNF R4A d   1      24.096   0.565   6.215  0.00  0.00    -0.025 A 
ATOM     78  CNE R4A d   1      23.188  -0.112   7.034  0.00  0.00     0.032 A 
ATOM     79  H7  R4A d   1      25.145   0.291   6.232  0.00  0.00     0.091 H 
ATOM     80  CND R4A d   1      21.843   0.270   6.991  0.00  0.00    -0.057 A 
ATOM     81  CNC R4A d   1      21.419   1.287   6.139  0.00  0.00    -0.078 A 
ATOM     82  H10 R4A d   1      21.123  -0.231   7.628  0.00  0.00     0.086 H 
ATOM     83  CNB R4A d   1      22.325   1.953   5.340  0.00  0.00    -0.051 A 
ATOM     84  H9  R4A d   1      20.370   1.557   6.104  0.00  0.00     0.083 H 
ATOM     85  H8  R4A d   1      21.991   2.753   4.689  0.00  0.00     0.087 H 
BRANCH  78  86
ATOM     86  NNG R4A d   1      23.609  -1.144   7.909  0.00  0.00    -0.389 N 
BRANCH  86  87
ATOM     87  CM2 R4A d   1      24.982  -1.656   7.891  0.00  0.00    -0.019 C 
ATOM     88  H1  R4A d   1      25.088  -2.448   8.647  0.00  0.00     0.056 H 
ATOM     89  H2  R4A d   1      25.681  -0.838   8.117  0.00  0.00     0.056 H 
ATOM     90  H3  R4A d   1      25.207  -2.067   6.896  0.00  0.00     0.056 H 
ENDBRANCH  86  87
BRANCH  86  91
ATOM     91  CM1 R4A d   1      22.679  -1.711   8.871  0.00  0.00    -0.019 C 
ATOM     92  H4  R4A d   1      21.697  -1.227   8.761  0.00  0.00     0.056 H 
ATOM     93  H5  R4A d   1      23.058  -1.544   9.890  0.00  0.00     0.056 H 
ATOM     94  H6  R4A d   1      22.577  -2.791   8.690  0.00  0.00     0.056 H 
ENDBRANCH  86  91
ENDBRANCH  78  86
ENDBRANCH  75  76
ENDBRANCH  72  75
ENDBRANCH  69  72
ENDBRANCH  66  69
ENDBRANCH  63  66
ENDBRANCH   1  63
TORSDOF 9
