REMARK  9 active torsions:
REMARK  status: ('A' for Active; 'I' for Inactive)
REMARK    1  A    between atoms: NNG_2  and  CM2_1 
REMARK    2  A    between atoms: NNG_2  and  CM1_3 
REMARK    3  A    between atoms: CNE_4  and  NNG_2 
REMARK    4  A    between atoms: OL5_10  and  CNA_6 
REMARK    5  A    between atoms: CL4_11  and  OL5_10 
REMARK    6  A    between atoms: CL3_12  and  CL4_11 
REMARK    7  A    between atoms: CL2_13  and  CL3_12 
REMARK    8  A    between atoms: CL1_14  and  CL2_13 
REMARK    9  A    between atoms: CAL_15  and  CL1_14 
ROOT
ATOM      1  CAL R4A d   1      26.760   5.554   4.114  0.00  0.00    -0.044 A 
ATOM      2  CAK R4A d   1      25.533   5.979   3.402  0.00  0.00     0.001 A 
ATOM      3  CAJ R4A d   1      24.537   5.177   2.810  0.00  0.00    -0.069 A 
ATOM      4  CAB R4A d   1      25.395   7.429   3.350  0.00  0.00     0.096 A 
ATOM      5  CAC R4A d   1      24.250   8.008   2.689  0.00  0.00     0.096 A 
ATOM      6  CAH R4A d   1      23.238   7.136   2.083  0.00  0.00    -0.005 A 
ATOM      7  CAI R4A d   1      23.414   5.744   2.165  0.00  0.00    -0.070 A 
ATOM      8  CAG R4A d   1      22.172   7.787   1.476  0.00  0.00    -0.069 A 
ATOM      9  CAF R4A d   1      22.139   9.194   1.481  0.00  0.00    -0.065 A 
ATOM     10  CAE R4A d   1      23.144   9.980   2.079  0.00  0.00     0.003 A 
ATOM     11  NAD R4A d   1      24.191   9.396   2.687  0.00  0.00    -0.258 N 
ATOM     12  NAA R4A d   1      26.309   8.323   3.898  0.00  0.00    -0.258 N 
ATOM     13  CAN R4A d   1      27.396   7.894   4.524  0.00  0.00     0.004 A 
ATOM     14  CAM R4A d   1      27.616   6.523   4.626  0.00  0.00    -0.059 A 
ATOM     15  NCL R4A d   1      25.207  12.239   3.238  0.00  0.00    -0.259 N 
ATOM     16  CCK R4A d   1      25.554  12.934   2.147  0.00  0.00     0.003 A 
ATOM     17  CCJ R4A d   1      25.088  14.238   2.006  0.00  0.00    -0.066 A 
ATOM     18  CCI R4A d   1      24.272  14.807   2.988  0.00  0.00    -0.079 A 
ATOM     19  CCG R4A d   1      24.394  12.774   4.238  0.00  0.00     0.085 A 
ATOM     20  CCH R4A d   1      23.917  14.076   4.120  0.00  0.00    -0.053 A 
ATOM     21  CCF R4A d   1      24.123  11.828   5.371  0.00  0.00     0.085 A 
ATOM     22  CCE R4A d   1      23.305  12.185   6.549  0.00  0.00    -0.053 A 
ATOM     23  CCD R4A d   1      23.179  11.280   7.508  0.00  0.00    -0.079 A 
ATOM     24  CCC R4A d   1      23.835   9.989   7.315  0.00  0.00    -0.066 A 
ATOM     25  CCB R4A d   1      24.528   9.767   6.191  0.00  0.00     0.003 A 
ATOM     26  NCA R4A d   1      24.652  10.664   5.290  0.00  0.00    -0.259 N 
ATOM     27  NBL R4A d   1      27.057  10.131   1.983  0.00  0.00    -0.259 N 
ATOM     28  CBK R4A d   1      26.729   9.600   0.797  0.00  0.00     0.003 A 
ATOM     29  CBJ R4A d   1      27.683   9.550  -0.224  0.00  0.00    -0.066 A 
ATOM     30  CBI R4A d   1      28.967  10.051  -0.013  0.00  0.00    -0.079 A 
ATOM     31  CBG R4A d   1      28.337  10.645   2.224  0.00  0.00     0.085 A 
ATOM     32  CBH R4A d   1      29.307  10.607   1.222  0.00  0.00    -0.053 A 
ATOM     33  CBF R4A d   1      28.526  11.203   3.608  0.00  0.00     0.085 A 
ATOM     34  CBE R4A d   1      29.806  11.790   4.071  0.00  0.00    -0.053 A 
ATOM     35  CBD R4A d   1      29.866  12.253   5.310  0.00  0.00    -0.079 A 
ATOM     36  CBC R4A d   1      28.658  12.142   6.117  0.00  0.00    -0.066 A 
ATOM     37  CBB R4A d   1      27.558  11.595   5.588  0.00  0.00     0.003 A 
ATOM     38  NBA R4A d   1      27.517  11.157   4.392  0.00  0.00    -0.259 N 
ATOM     39 RU   R4A d   1      25.804  10.303   3.612  0.00  0.00     0.000 Ru
ATOM     40  H   R4A d   1      24.635   4.092   2.850  0.00  0.00     0.085 H 
ATOM     41  H   R4A d   1      22.667   5.086   1.721  0.00  0.00     0.084 H 
ATOM     42  H   R4A d   1      21.373   7.217   1.003  0.00  0.00     0.085 H 
ATOM     43  H   R4A d   1      21.300   9.697   1.002  0.00  0.00     0.085 H 
ATOM     44  H   R4A d   1      23.072  11.067   2.048  0.00  0.00     0.114 H 
ATOM     45  H   R4A d   1      28.105   8.602   4.952  0.00  0.00     0.114 H 
ATOM     46  H   R4A d   1      28.517   6.188   5.140  0.00  0.00     0.086 H 
ATOM     47  H   R4A d   1      26.190  12.486   1.383  0.00  0.00     0.114 H 
ATOM     48  H   R4A d   1      25.361  14.819   1.125  0.00  0.00     0.085 H 
ATOM     49  H   R4A d   1      23.911  15.829   2.868  0.00  0.00     0.083 H 
ATOM     50  H   R4A d   1      23.283  14.512   4.892  0.00  0.00     0.087 H 
ATOM     51  H   R4A d   1      22.822  13.159   6.626  0.00  0.00     0.087 H 
ATOM     52  H   R4A d   1      22.605  11.491   8.410  0.00  0.00     0.083 H 
ATOM     53  H   R4A d   1      23.761   9.214   8.078  0.00  0.00     0.085 H 
ATOM     54  H   R4A d   1      24.999   8.795   6.041  0.00  0.00     0.114 H 
ATOM     55  H   R4A d   1      25.725   9.210   0.629  0.00  0.00     0.114 H 
ATOM     56  H   R4A d   1      27.422   9.117  -1.190  0.00  0.00     0.085 H 
ATOM     57  H   R4A d   1      29.706  10.009  -0.813  0.00  0.00     0.083 H 
ATOM     58  H   R4A d   1      30.307  11.002   1.399  0.00  0.00     0.087 H 
ATOM     59  H   R4A d   1      30.672  11.839   3.411  0.00  0.00     0.087 H 
ATOM     60  H   R4A d   1      30.778  12.697   5.708  0.00  0.00     0.083 H 
ATOM     61  H   R4A d   1      28.651  12.502   7.146  0.00  0.00     0.085 H 
ATOM     62  H   R4A d   1      26.662  11.521   6.204  0.00  0.00     0.114 H 
ENDROOT
BRANCH   1  63
ATOM     63  CL1 R4A d   1      27.156   4.120   4.299  0.00  0.00    -0.040 C 
ATOM     64  H   R4A d   1      26.359   3.486   3.911  0.00  0.00     0.040 H 
ATOM     65  H   R4A d   1      28.092   3.946   3.768  0.00  0.00     0.040 H 
BRANCH  63  66
ATOM     66  CL2 R4A d   1      27.364   3.792   5.769  0.00  0.00    -0.059 C 
ATOM     67  H   R4A d   1      28.233   3.144   5.885  0.00  0.00     0.033 H 
ATOM     68  H   R4A d   1      27.535   4.709   6.333  0.00  0.00     0.033 H 
BRANCH  66  69
ATOM     69  CL3 R4A d   1      26.132   3.094   6.287  0.00  0.00    -0.044 C 
ATOM     70  H   R4A d   1      26.260   2.845   7.340  0.00  0.00     0.036 H 
ATOM     71  H   R4A d   1      25.265   3.748   6.190  0.00  0.00     0.036 H 
BRANCH  69  72
ATOM     72  CL4 R4A d   1      25.921   1.833   5.480  0.00  0.00     0.026 C 
ATOM     73  H   R4A d   1      26.663   1.768   4.684  0.00  0.00     0.075 H 
ATOM     74  H   R4A d   1      26.031   0.956   6.118  0.00  0.00     0.075 H 
BRANCH  72  75
ATOM     75  OL5 R4A d   1      24.606   1.876   4.925  0.00  0.00    -0.351 OA
BRANCH  75  76
ATOM     76  CNA R4A d   1      23.588   1.381   5.675  0.00  0.00     0.070 A 
ATOM     77  CNF R4A d   1      23.848   0.348   6.561  0.00  0.00    -0.025 A 
ATOM     78  CNE R4A d   1      22.844  -0.188   7.345  0.00  0.00     0.032 A 
ATOM     79  H   R4A d   1      24.860  -0.048   6.641  0.00  0.00     0.091 H 
ATOM     80  CND R4A d   1      21.552   0.337   7.225  0.00  0.00    -0.057 A 
ATOM     81  CNC R4A d   1      21.291   1.371   6.321  0.00  0.00    -0.078 A 
ATOM     82  H   R4A d   1      20.745  -0.062   7.840  0.00  0.00     0.086 H 
ATOM     83  CNB R4A d   1      22.309   1.903   5.551  0.00  0.00    -0.051 A 
ATOM     84  H   R4A d   1      20.278   1.761   6.222  0.00  0.00     0.083 H 
ATOM     85  H   R4A d   1      22.109   2.720   4.857  0.00  0.00     0.087 H 
BRANCH  78  86
ATOM     86  NNG R4A d   1      23.191  -1.238   8.216  0.00  0.00    -0.389 N 
BRANCH  86  87
ATOM     87  CM2 R4A d   1      24.579  -1.696   8.297  0.00  0.00    -0.019 C 
ATOM     88  H   R4A d   1      24.901  -2.049   7.317  0.00  0.00     0.056 H 
ATOM     89  H   R4A d   1      25.215  -0.870   8.614  0.00  0.00     0.056 H 
ATOM     90  H   R4A d   1      24.650  -2.509   9.019  0.00  0.00     0.056 H 
ENDBRANCH  86  87
BRANCH  86  91
ATOM     91  CM1 R4A d   1      22.203  -1.907   9.046  0.00  0.00    -0.019 C 
ATOM     92  H   R4A d   1      21.738  -1.180   9.712  0.00  0.00     0.056 H 
ATOM     93  H   R4A d   1      21.442  -2.358   8.410  0.00  0.00     0.056 H 
ATOM     94  H   R4A d   1      22.691  -2.682   9.636  0.00  0.00     0.056 H 
ENDBRANCH  86  91
ENDBRANCH  78  86
ENDBRANCH  75  76
ENDBRANCH  72  75
ENDBRANCH  69  72
ENDBRANCH  66  69
ENDBRANCH  63  66
ENDBRANCH   1  63
TORSDOF 9
