REMARK  8 active torsions:
REMARK  status: ('A' for Active; 'I' for Inactive)
REMARK    1  A    between atoms: C11_2  and  C19_4 
REMARK    2  A    between atoms: C19_4  and  O17_5 
REMARK    3  A    between atoms: O17_5  and  C15_6 
REMARK    4  A    between atoms: C1_12  and  N6_13 
REMARK    5  A    between atoms: N6_13  and  O23_14 
REMARK    6  A    between atoms: C16_20  and  O18_21 
REMARK    7  A    between atoms: O18_21  and  C20_22 
REMARK    8  A    between atoms: C20_22  and  C12_23 
ROOT
ATOM      1  C15 3A3 d   1       0.024  -3.349  20.363  0.00  0.00     0.070 A 
ATOM      2  C10 3A3 d   1       1.281  -2.717  20.404  0.00  0.00    -0.038 A 
ATOM      3  C22 3A3 d   1      -0.165  -4.507  19.581  0.00  0.00    -0.050 A 
ATOM      4  C8  3A3 d   1       0.869  -5.054  18.841  0.00  0.00    -0.069 A 
ATOM      5  C4  3A3 d   1       2.108  -4.451  18.904  0.00  0.00    -0.012 A 
ATOM      6  C3  3A3 d   1       2.318  -3.291  19.670  0.00  0.00     0.009 A 
ATOM      7  C1  3A3 d   1       3.644  -2.934  19.474  0.00  0.00     0.106 A 
ATOM      8  C2  3A3 d   1       4.243  -3.846  18.605  0.00  0.00     0.009 A 
ATOM      9  C9  3A3 d   1       5.515  -3.925  18.064  0.00  0.00    -0.038 A 
ATOM     10  C5  3A3 d   1       3.280  -4.788  18.254  0.00  0.00    -0.012 A 
ATOM     11  C7  3A3 d   1       3.578  -5.839  17.375  0.00  0.00    -0.069 A 
ATOM     12  C21 3A3 d   1       4.872  -5.933  16.848  0.00  0.00    -0.050 A 
ATOM     13  C16 3A3 d   1       5.830  -4.962  17.192  0.00  0.00     0.070 A 
ATOM     14  H3  3A3 d   1       1.437  -1.816  20.986  0.00  0.00     0.089 H 
ATOM     15  H4  3A3 d   1      -1.141  -4.979  19.559  0.00  0.00     0.087 H 
ATOM     16  H5  3A3 d   1       0.709  -5.934  18.228  0.00  0.00     0.085 H 
ATOM     17  H7  3A3 d   1       6.262  -3.182  18.319  0.00  0.00     0.089 H 
ATOM     18  H8  3A3 d   1       2.820  -6.566  17.108  0.00  0.00     0.085 H 
ATOM     19  H9  3A3 d   1       5.133  -6.747  16.181  0.00  0.00     0.087 H 
ENDROOT
BRANCH   1  20
ATOM     20  O17 3A3 d   1      -1.030  -2.842  21.086  0.00  0.00    -0.341 OA
BRANCH  20  21
ATOM     21  C19 3A3 d   1      -2.006  -3.876  21.489  0.00  0.00     0.105 C 
ATOM     22  H1  3A3 d   1      -2.053  -4.666  20.725  0.00  0.00     0.091 H 
ATOM     23  H2  3A3 d   1      -1.711  -4.316  22.453  0.00  0.00     0.091 H 
BRANCH  21  24
ATOM     24  C11 3A3 d   1      -3.378  -3.191  21.622  0.00  0.00     0.198 C 
ATOM     25  O24 3A3 d   1      -3.368  -1.954  21.920  0.00  0.00    -0.646 OA
ATOM     26  O14 3A3 d   1      -4.411  -3.900  21.415  0.00  0.00    -0.646 OA
ENDBRANCH  21  24
ENDBRANCH  20  21
ENDBRANCH   1  20
BRANCH   7  27
ATOM     27  N6  3A3 d   1       4.235  -1.837  19.977  0.00  0.00    -0.135 NA
BRANCH  27  28
ATOM     28  O23 3A3 d   1       5.557  -1.571  19.683  0.00  0.00    -0.266 OA
ATOM     29  H6  3A3 d   1       5.820  -0.766  20.113  0.00  0.00     0.247 HD
ENDBRANCH  27  28
ENDBRANCH   7  27
BRANCH  13  30
ATOM     30  O18 3A3 d   1       7.102  -4.972  16.700  0.00  0.00    -0.341 OA
BRANCH  30  31
ATOM     31  C20 3A3 d   1       7.367  -5.979  15.807  0.00  0.00     0.105 C 
ATOM     32  H10 3A3 d   1       6.646  -5.882  14.982  0.00  0.00     0.091 H 
ATOM     33  H11 3A3 d   1       7.199  -6.932  16.330  0.00  0.00     0.091 H 
BRANCH  31  34
ATOM     34  C12 3A3 d   1       8.782  -6.044  15.176  0.00  0.00     0.198 C 
ATOM     35  O25 3A3 d   1       9.630  -5.136  15.511  0.00  0.00    -0.646 OA
ATOM     36  O13 3A3 d   1       8.970  -7.013  14.374  0.00  0.00    -0.646 OA
ENDBRANCH  31  34
ENDBRANCH  30  31
ENDBRANCH  13  30
TORSDOF 8
