REMARK  7 active torsions:
REMARK  status: ('A' for Active; 'I' for Inactive)
REMARK    1  A    between atoms: C4B_6  and  N5_7 
REMARK    2  A    between atoms: N5_7  and  C6_8 
REMARK    3  A    between atoms: C6_8  and  CB_13 
REMARK    4  A    between atoms: C10_11  and  N1_18 
REMARK    5  A    between atoms: CB_13  and  CA_14 
REMARK    6  A    between atoms: CB_13  and  O16_19 
REMARK    7  A    between atoms: CA_14  and  N_15 
ROOT
ATOM      1  C1  3B3 d   1       4.052  -3.979  19.212  0.00  0.00    -0.067 A 
ATOM      2  C2  3B3 d   1       5.352  -4.185  18.764  0.00  0.00    -0.065 A 
ATOM      3  C3  3B3 d   1       5.570  -5.152  17.702  0.00  0.00     0.003 A 
ATOM      4  N4  3B3 d   1       4.573  -5.900  17.101  0.00  0.00    -0.258 NA
ATOM      5  C4A 3B3 d   1       3.267  -5.721  17.517  0.00  0.00     0.095 A 
ATOM      6  C4B 3B3 d   1       2.190  -6.399  16.934  0.00  0.00     0.058 A 
ATOM      7  C8A 3B3 d   1       0.867  -6.204  17.350  0.00  0.00    -0.053 A 
ATOM      8  C9  3B3 d   1       0.662  -5.284  18.378  0.00  0.00    -0.048 A 
ATOM      9  C10 3B3 d   1       1.787  -4.615  18.934  0.00  0.00     0.115 A 
ATOM     10  C1A 3B3 d   1       3.049  -4.774  18.539  0.00  0.00     0.028 A 
ATOM     11  H1  3B3 d   1       3.810  -3.278  20.003  0.00  0.00     0.085 H 
ATOM     12  H2  3B3 d   1       6.182  -3.638  19.196  0.00  0.00     0.085 H 
ATOM     13  H3  3B3 d   1       6.587  -5.298  17.355  0.00  0.00     0.114 H 
ATOM     14  H7  3B3 d   1       0.043  -6.742  16.895  0.00  0.00     0.087 H 
ATOM     15  H8  3B3 d   1      -0.337  -5.082  18.747  0.00  0.00     0.087 H 
ENDROOT
BRANCH   6  16
ATOM     16  N5  3B3 d   1       2.405  -7.284  15.945  0.00  0.00    -0.386 N 
ATOM     17  H4  3B3 d   1       1.600  -7.841  15.625  0.00  0.00     0.159 HD
BRANCH  16  18
ATOM     18  C6  3B3 d   1       3.744  -7.531  15.258  0.00  0.00     0.018 C 
ATOM     19  H5  3B3 d   1       3.818  -8.599  15.006  0.00  0.00     0.067 H 
ATOM     20  H6  3B3 d   1       4.551  -7.262  15.955  0.00  0.00     0.067 H 
BRANCH  18  21
ATOM     21  CB  3B3 d   1       3.925  -6.663  13.895  0.00  0.00     0.073 C 
ATOM     22  H9  3B3 d   1       3.589  -7.234  13.017  0.00  0.00     0.087 H 
BRANCH  21  23
ATOM     23  CA  3B3 d   1       5.399  -6.090  13.758  0.00  0.00     0.105 C 
ATOM     24  H10 3B3 d   1       6.064  -6.781  14.297  0.00  0.00     0.079 H 
ATOM     25  H11 3B3 d   1       5.410  -5.109  14.255  0.00  0.00     0.079 H 
BRANCH  23  26
ATOM     26  N   3B3 d   1       5.969  -5.901  12.429  0.00  0.00    -0.077 N 
ATOM     27  H12 3B3 d   1       6.904  -5.533  12.514  0.00  0.00     0.274 HD
ATOM     28  H13 3B3 d   1       5.399  -5.253  11.908  0.00  0.00     0.274 HD
ATOM     29  H14 3B3 d   1       5.998  -6.786  11.947  0.00  0.00     0.274 HD
ENDBRANCH  23  26
ENDBRANCH  21  23
BRANCH  21  30
ATOM     30  O16 3B3 d   1       3.275  -5.369  14.048  0.00  0.00    -0.392 OA
ATOM     31  H15 3B3 d   1       3.442  -4.839  13.278  0.00  0.00     0.210 HD
ENDBRANCH  21  30
ENDBRANCH  18  21
ENDBRANCH  16  18
ENDBRANCH   6  16
BRANCH   9  32
ATOM     32  N1  3B3 d   1       1.652  -3.689  19.861  0.00  0.00    -0.115 N 
ATOM     33  O   3B3 d   1       2.798  -2.717  20.309  0.00  0.00    -0.532 OA
ATOM     34  OXT 3B3 d   1       0.240  -3.669  20.227  0.00  0.00    -0.532 OA
ENDBRANCH   9  32
TORSDOF 7
