REMARK  7 active torsions:
REMARK  status: ('A' for Active; 'I' for Inactive)
REMARK    1  A    between atoms: N16_1  and  C8_2 
REMARK    2  A    between atoms: C4_6  and  C1_7 
REMARK    3  A    between atoms: N7_9  and  C18_10 
REMARK    4  A    between atoms: C18_10  and  C19_11 
REMARK    5  A    between atoms: C19_11  and  C20_12 
REMARK    6  A    between atoms: C2_14  and  C6_15 
REMARK    7  A    between atoms: C9_19  and  N17_20 
ROOT
ATOM      1  C1  3C3 d   1       5.198  -4.892  18.219  0.00  0.00     0.183 A 
ATOM      2  N3  3C3 d   1       6.438  -4.834  17.739  0.00  0.00    -0.203 NA
ATOM      3  N7  3C3 d   1       4.597  -5.907  17.584  0.00  0.00    -0.248 N 
ATOM      4  N5  3C3 d   1       5.382  -6.467  16.798  0.00  0.00    -0.148 NA
ATOM      5  C2  3C3 d   1       6.550  -5.820  16.853  0.00  0.00     0.206 A 
ENDROOT
BRANCH   3   6
ATOM      6  C18 3C3 d   1       3.182  -6.324  17.791  0.00  0.00     0.019 C 
ATOM      7  H3  3C3 d   1       2.517  -5.608  17.286  0.00  0.00     0.067 H 
ATOM      8  H4  3C3 d   1       2.962  -6.332  18.869  0.00  0.00     0.067 H 
BRANCH   6   9
ATOM      9  C19 3C3 d   1       2.941  -7.726  17.218  0.00  0.00    -0.051 C 
ATOM     10  H5  3C3 d   1       3.271  -8.473  17.955  0.00  0.00     0.035 H 
ATOM     11  H6  3C3 d   1       3.527  -7.838  16.294  0.00  0.00     0.035 H 
BRANCH   9  12
ATOM     12  C20 3C3 d   1       1.458  -7.965  16.898  0.00  0.00    -0.075 C 
ATOM     13  H7  3C3 d   1       1.330  -8.979  16.491  0.00  0.00     0.027 H 
ATOM     14  H8  3C3 d   1       1.119  -7.226  16.157  0.00  0.00     0.027 H 
ATOM     15  H9  3C3 d   1       0.863  -7.861  17.817  0.00  0.00     0.027 H 
ENDBRANCH   9  12
ENDBRANCH   6   9
ENDBRANCH   3   6
BRANCH   1  16
ATOM     16  C4  3C3 d   1       4.664  -4.016  19.150  0.00  0.00     0.181 A 
ATOM     17  C8  3C3 d   1       5.333  -2.832  19.492  0.00  0.00     0.186 A 
ATOM     18  N10 3C3 d   1       4.611  -2.136  20.373  0.00  0.00    -0.085 NA
ATOM     19  O14 3C3 d   1       3.424  -2.887  20.613  0.00  0.00    -0.104 OA
ATOM     20  N12 3C3 d   1       3.493  -4.072  19.800  0.00  0.00    -0.097 NA
BRANCH  17  21
ATOM     21  N16 3C3 d   1       6.531  -2.446  19.017  0.00  0.00    -0.380 N 
ATOM     22  H1  3C3 d   1       7.030  -3.037  18.337  0.00  0.00     0.158 HD
ATOM     23  H2  3C3 d   1       6.949  -1.559  19.333  0.00  0.00     0.158 HD
ENDBRANCH  17  21
ENDBRANCH   1  16
BRANCH   5  24
ATOM     24  C6  3C3 d   1       7.714  -6.107  16.152  0.00  0.00     0.183 A 
ATOM     25  N13 3C3 d   1       8.815  -5.347  16.094  0.00  0.00    -0.097 NA
ATOM     26  O15 3C3 d   1       9.757  -6.043  15.288  0.00  0.00    -0.104 OA
ATOM     27  N11 3C3 d   1       9.150  -7.251  14.876  0.00  0.00    -0.085 NA
ATOM     28  C9  3C3 d   1       7.930  -7.270  15.403  0.00  0.00     0.186 A 
BRANCH  28  29
ATOM     29  N17 3C3 d   1       7.072  -8.278  15.216  0.00  0.00    -0.380 N 
ATOM     30  H10 3C3 d   1       7.346  -9.087  14.640  0.00  0.00     0.158 HD
ATOM     31  H11 3C3 d   1       6.137  -8.245  15.648  0.00  0.00     0.158 HD
ENDBRANCH  28  29
ENDBRANCH   5  24
TORSDOF 7
