REMARK  4 active torsions:
REMARK  status: ('A' for Active; 'I' for Inactive)
REMARK    1  A    between atoms: C6_6  and  N13_7 
REMARK    2  A    between atoms: C5_10  and  S10_11 
REMARK    3  A    between atoms: S10_11  and  C14_12 
REMARK    4  A    between atoms: C14_12  and  C11_13 
REMARK       I    between atoms: C11_13  and  N15_15 
ROOT
ATOM      1  N1  3D3 d   1       5.622  -4.839  18.026  0.00  0.00    -0.202 NA
ATOM      2  C3  3D3 d   1       5.184  -3.803  18.749  0.00  0.00     0.184 A 
ATOM      3  N7  3D3 d   1       5.779  -2.663  19.201  0.00  0.00    -0.220 NA
ATOM      4  C9  3D3 d   1       5.029  -1.797  19.879  0.00  0.00     0.091 A 
ATOM      5  N8  3D3 d   1       3.721  -2.009  20.162  0.00  0.00    -0.222 NA
ATOM      6  C6  3D3 d   1       3.106  -3.132  19.723  0.00  0.00     0.153 A 
ATOM      7  C2  3D3 d   1       3.837  -4.054  18.992  0.00  0.00     0.128 A 
ATOM      8  N4  3D3 d   1       3.484  -5.216  18.451  0.00  0.00    -0.329 N 
ATOM      9  C5  3D3 d   1       4.590  -5.663  17.858  0.00  0.00     0.169 A 
ATOM     10  H1  3D3 d   1       5.487  -0.876  20.222  0.00  0.00     0.146 H 
ATOM     11  H4  3D3 d   1       2.560  -5.670  18.483  0.00  0.00     0.168 HD
ENDROOT
BRANCH   9  12
ATOM     12  S10 3D3 d   1       4.680  -7.174  17.012  0.00  0.00    -0.083 SA
BRANCH  12  13
ATOM     13  C14 3D3 d   1       6.271  -7.033  16.073  0.00  0.00     0.058 C 
ATOM     14  H5  3D3 d   1       7.037  -6.662  16.769  0.00  0.00     0.064 H 
ATOM     15  H6  3D3 d   1       6.120  -6.298  15.269  0.00  0.00     0.064 H 
BRANCH  13  16
ATOM     16  C11 3D3 d   1       6.820  -8.347  15.418  0.00  0.00     0.225 C 
ATOM     17  O12 3D3 d   1       7.845  -8.315  14.721  0.00  0.00    -0.273 OA
ATOM     18  N15 3D3 d   1       6.139  -9.486  15.648  0.00  0.00    -0.369 N 
ATOM     19  H7  3D3 d   1       6.455 -10.347  15.249  0.00  0.00     0.159 HD
ATOM     20  H8  3D3 d   1       5.317  -9.471  16.218  0.00  0.00     0.159 HD
ENDBRANCH  13  16
ENDBRANCH  12  13
ENDBRANCH   9  12
BRANCH   6  21
ATOM     21  N13 3D3 d   1       1.807  -3.379  19.935  0.00  0.00    -0.382 N 
ATOM     22  H2  3D3 d   1       1.384  -4.249  19.581  0.00  0.00     0.157 HD
ATOM     23  H3  3D3 d   1       1.231  -2.699  20.452  0.00  0.00     0.157 HD
ENDBRANCH   6  21
TORSDOF 4
