REMARK  13 active torsions:
REMARK  status: ('A' for Active; 'I' for Inactive)
REMARK    1  A    between atoms: C2_2  and  C4_6 
REMARK    2  A    between atoms: N2_5  and  C7_10 
REMARK    3  A    between atoms: C4_6  and  C8_11 
REMARK    4  A    between atoms: C6_9  and  C9_14 
REMARK    5  A    between atoms: C12_17  and  O2_21 
REMARK    6  A    between atoms: N5_19  and  C15_23 
REMARK    7  A    between atoms: O2_21  and  C17_25 
REMARK    8  A    between atoms: C14_22  and  C20_26 
REMARK    9  A    between atoms: C15_23  and  C18_27 
REMARK   10  A    between atoms: C17_25  and  C19_28 
REMARK   11  A    between atoms: C20_26  and  C23_32 
REMARK   12  A    between atoms: C19_28  and  C21_30 
REMARK   13  A    between atoms: C21_30  and  C22_31 
ROOT
ATOM      1  C1  3P4 d   1      19.944  -6.162  14.215  0.00  0.00     0.119 A 
ATOM      2  C2  3P4 d   1      20.246  -6.499  15.514  0.00  0.00     0.062 A 
ATOM      3  C3  3P4 d   1      20.698  -7.166  13.393  0.00  0.00     0.175 A 
ATOM      4  N1  3P4 d   1      19.167  -5.194  13.583  0.00  0.00    -0.226 NA
ATOM      5  N2  3P4 d   1      21.090  -7.588  15.445  0.00  0.00    -0.263 N 
ATOM      6  N3  3P4 d   1      21.323  -7.935  14.215  0.00  0.00    -0.164 NA
ATOM      7  C5  3P4 d   1      20.563  -7.055  11.931  0.00  0.00     0.280 A 
ATOM      8  C6  3P4 d   1      19.094  -5.159  12.258  0.00  0.00     0.145 A 
ATOM      9  N4  3P4 d   1      19.766  -6.057  11.439  0.00  0.00    -0.305 N 
ATOM     10  O1  3P4 d   1      21.132  -7.821  11.193  0.00  0.00    -0.265 OA
ATOM     11  H7  3P4 d   1      19.663  -5.971  10.448  0.00  0.00     0.170 HD
ENDROOT
BRANCH   8  12
ATOM     12  C9  3P4 d   1      18.266  -4.174  11.577  0.00  0.00     0.064 A 
ATOM     13  C12 3P4 d   1      18.759  -3.316  10.538  0.00  0.00     0.178 A 
ATOM     14  N6  3P4 d   1      17.903  -2.424   9.937  0.00  0.00    -0.235 NA
ATOM     15  C16 3P4 d   1      16.588  -2.311  10.281  0.00  0.00     0.017 A 
ATOM     16  C14 3P4 d   1      16.061  -3.137  11.303  0.00  0.00     0.015 A 
ATOM     17  H16 3P4 d   1      15.951  -1.594   9.776  0.00  0.00     0.116 H 
ATOM     18  C13 3P4 d   1      16.898  -4.066  11.948  0.00  0.00    -0.051 A 
ATOM     19  H12 3P4 d   1      16.498  -4.701  12.730  0.00  0.00     0.086 H 
BRANCH  13  20
ATOM     20  O2  3P4 d   1      20.047  -3.397  10.171  0.00  0.00    -0.334 OA
BRANCH  20  21
ATOM     21  C17 3P4 d   1      20.560  -2.674   9.020  0.00  0.00     0.028 C 
ATOM     22  H17 3P4 d   1      20.396  -1.594   9.152  0.00  0.00     0.075 H 
ATOM     23  H18 3P4 d   1      20.050  -3.014   8.106  0.00  0.00     0.075 H 
BRANCH  21  24
ATOM     24  C19 3P4 d   1      22.032  -2.960   8.922  0.00  0.00    -0.045 C 
ATOM     25  H22 3P4 d   1      22.398  -2.479   8.003  0.00  0.00     0.036 H 
ATOM     26  H23 3P4 d   1      22.149  -4.051   8.837  0.00  0.00     0.036 H 
BRANCH  24  27
ATOM     27  C21 3P4 d   1      22.857  -2.532   9.975  0.00  0.00    -0.067 C 
ATOM     28  H24 3P4 d   1      22.483  -3.020  10.887  0.00  0.00     0.032 H 
ATOM     29  H25 3P4 d   1      22.722  -1.444  10.060  0.00  0.00     0.032 H 
BRANCH  27  30
ATOM     30  C22 3P4 d   1      24.228  -2.762   9.932  0.00  0.00    -0.076 C 
ATOM     31  H26 3P4 d   1      24.697  -2.356  10.841  0.00  0.00     0.027 H 
ATOM     32  H27 3P4 d   1      24.655  -2.268   9.047  0.00  0.00     0.027 H 
ATOM     33  H28 3P4 d   1      24.417  -3.844   9.874  0.00  0.00     0.027 H 
ENDBRANCH  27  30
ENDBRANCH  24  27
ENDBRANCH  21  24
ENDBRANCH  20  21
ENDBRANCH  13  20
BRANCH  16  34
ATOM     34  C20 3P4 d   1      14.412  -3.040  11.771  0.00  0.00     0.092 C 
ATOM     35  O3  3P4 d   1      13.686  -2.577  10.677  0.00  0.00    -0.196 OA
BRANCH  34  36
ATOM     36  C23 3P4 d   1      13.744  -3.361  13.024  0.00  0.00    -0.028 C 
ATOM     37  H29 3P4 d   1      12.667  -3.161  12.927  0.00  0.00     0.036 H 
ATOM     38  H30 3P4 d   1      14.161  -2.741  13.831  0.00  0.00     0.036 H 
ATOM     39  H31 3P4 d   1      13.900  -4.424  13.261  0.00  0.00     0.036 H 
ENDBRANCH  34  36
ENDBRANCH  16  34
ENDBRANCH   8  12
BRANCH   2  40
ATOM     40  C4  3P4 d   1      19.731  -5.785  16.762  0.00  0.00    -0.026 C 
ATOM     41  H1  3P4 d   1      19.704  -4.702  16.570  0.00  0.00     0.041 H 
ATOM     42  H2  3P4 d   1      20.413  -5.992  17.600  0.00  0.00     0.041 H 
BRANCH  40  43
ATOM     43  C8  3P4 d   1      18.322  -6.262  17.135  0.00  0.00    -0.071 C 
ATOM     44  H4  3P4 d   1      17.981  -5.730  18.035  0.00  0.00     0.028 H 
ATOM     45  H5  3P4 d   1      18.342  -7.344  17.334  0.00  0.00     0.028 H 
ATOM     46  H6  3P4 d   1      17.633  -6.054  16.303  0.00  0.00     0.028 H 
ENDBRANCH  40  43
ENDBRANCH   2  40
BRANCH   5  47
ATOM     47  C7  3P4 d   1      21.677  -8.300  16.606  0.00  0.00     0.081 C 
ATOM     48  C10 3P4 d   1      20.741  -9.488  17.040  0.00  0.00     0.105 C 
ATOM     49  N5  3P4 d   1      21.560 -10.516  16.331  0.00  0.00    -0.067 N 
ATOM     50  H8  3P4 d   1      19.717  -9.401  16.647  0.00  0.00     0.079 H 
ATOM     51  H9  3P4 d   1      20.704  -9.637  18.129  0.00  0.00     0.079 H 
ATOM     52  C11 3P4 d   1      22.609  -9.481  16.164  0.00  0.00     0.105 C 
ATOM     53  H13 3P4 d   1      21.156 -10.854  15.471  0.00  0.00     0.280 HD
ATOM     54  H10 3P4 d   1      23.470  -9.626  16.833  0.00  0.00     0.079 H 
ATOM     55  H11 3P4 d   1      22.963  -9.388  15.127  0.00  0.00     0.079 H 
ATOM     56  H3  3P4 d   1      22.047  -7.613  17.381  0.00  0.00     0.081 H 
BRANCH  49  57
ATOM     57  C15 3P4 d   1      21.986 -11.667  17.169  0.00  0.00     0.080 C 
ATOM     58  H14 3P4 d   1      22.257 -11.295  18.168  0.00  0.00     0.075 H 
ATOM     59  H15 3P4 d   1      22.864 -12.137  16.702  0.00  0.00     0.075 H 
BRANCH  57  60
ATOM     60  C18 3P4 d   1      20.880 -12.727  17.320  0.00  0.00    -0.053 C 
ATOM     61  H19 3P4 d   1      21.247 -13.553  17.947  0.00  0.00     0.029 H 
ATOM     62  H20 3P4 d   1      20.605 -13.114  16.328  0.00  0.00     0.029 H 
ATOM     63  H21 3P4 d   1      19.998 -12.271  17.793  0.00  0.00     0.029 H 
ENDBRANCH  57  60
ENDBRANCH  49  57
ENDBRANCH   5  47
TORSDOF 13
