REMARK  6 active torsions:
REMARK  status: ('A' for Active; 'I' for Inactive)
REMARK    1  A    between atoms: CAU_1  and  OAT_2 
REMARK    2  A    between atoms: OAT_2  and  CAP_3 
REMARK    3  A    between atoms: CAH_8  and  NAG_9 
REMARK    4  A    between atoms: CAO_20  and  CAS_21 
REMARK    5  A    between atoms: CAS_21  and  S6_22 
REMARK    6  A    between atoms: S6_22  and  C6_23 
ROOT
ATOM      1  NAG 039 d   1      47.498  16.590  33.417  0.00  0.00    -0.262 N 
ATOM      2  CAF 039 d   1      48.076  16.481  34.675  0.00  0.00     0.268 A 
ATOM      3  OAB 039 d   1      48.918  17.310  34.996  0.00  0.00    -0.267 OA
ATOM      4  CAE 039 d   1      47.695  15.455  35.531  0.00  0.00     0.083 A 
ATOM      5  CAD 039 d   1      48.237  15.287  36.823  0.00  0.00     0.052 A 
ATOM      6 CL   039 d   1      49.449  16.344  37.517  0.00  0.00    -0.083 Cl
ATOM      7  CAC 039 d   1      47.797  14.226  37.612  0.00  0.00    -0.061 A 
ATOM      8  CAK 039 d   1      46.848  13.337  37.152  0.00  0.00    -0.079 A 
ATOM      9  CAL 039 d   1      46.317  13.525  35.888  0.00  0.00    -0.054 A 
ATOM     10  CAM 039 d   1      46.730  14.565  35.063  0.00  0.00     0.076 A 
ATOM     11  NAN 039 d   1      46.185  14.682  33.830  0.00  0.00    -0.233 NA
ATOM     12  CAO 039 d   1      46.528  15.663  32.987  0.00  0.00     0.124 A 
ATOM     13  H8  039 d   1      48.209  14.097  38.606  0.00  0.00     0.086 H 
ATOM     14  H9  039 d   1      46.524  12.507  37.769  0.00  0.00     0.083 H 
ATOM     15  H10 039 d   1      45.556  12.841  35.530  0.00  0.00     0.087 H 
ENDROOT
BRANCH  12  16
ATOM     16  CAS 039 d   1      45.932  15.789  31.564  0.00  0.00     0.038 C 
ATOM     17  H11 039 d   1      46.767  15.692  30.855  0.00  0.00     0.061 H 
ATOM     18  H12 039 d   1      45.498  16.797  31.484  0.00  0.00     0.061 H 
BRANCH  16  19
ATOM     19  S6  039 d   1      44.633  14.599  31.033  0.00  0.00    -0.100 SA
BRANCH  19  20
ATOM     20  C6  039 d   1      45.208  13.048  30.330  0.00  0.00     0.125 A 
ATOM     21  C5  039 d   1      46.517  12.652  30.272  0.00  0.00     0.117 A 
ATOM     22  N7  039 d   1      47.643  13.224  30.634  0.00  0.00    -0.345 N 
ATOM     23  C4  039 d   1      46.816  11.399  29.715  0.00  0.00     0.181 A 
ATOM     24  C8  039 d   1      48.630  12.363  30.322  0.00  0.00     0.067 A 
ATOM     25  H13 039 d   1      47.750  14.150  31.071  0.00  0.00     0.167 HD
ATOM     26  N9  039 d   1      48.134  11.252  29.758  0.00  0.00    -0.222 NA
ATOM     27  H14 039 d   1      49.688  12.544  30.503  0.00  0.00     0.143 H 
ATOM     28  N3  039 d   1      45.847  10.596  29.264  0.00  0.00    -0.220 NA
ATOM     29  C2  039 d   1      44.594  11.001  29.319  0.00  0.00     0.090 A 
ATOM     30  N1  039 d   1      44.288  12.181  29.828  0.00  0.00    -0.233 NA
ATOM     31  H15 039 d   1      43.806  10.359  28.942  0.00  0.00     0.146 H 
ENDBRANCH  19  20
ENDBRANCH  16  19
ENDBRANCH  12  16
BRANCH   1  32
ATOM     32  CAH 039 d   1      47.912  17.650  32.617  0.00  0.00     0.077 A 
ATOM     33  CAP 039 d   1      49.090  17.572  31.895  0.00  0.00     0.095 A 
ATOM     34  CAQ 039 d   1      49.483  18.653  31.114  0.00  0.00    -0.049 A 
ATOM     35  CAR 039 d   1      48.696  19.803  31.069  0.00  0.00    -0.080 A 
ATOM     36  H4  039 d   1      50.401  18.602  30.540  0.00  0.00     0.087 H 
ATOM     37  CAJ 039 d   1      47.506  19.878  31.801  0.00  0.00    -0.081 A 
ATOM     38  H5  039 d   1      49.008  20.645  30.462  0.00  0.00     0.083 H 
ATOM     39  CAI 039 d   1      47.121  18.796  32.590  0.00  0.00    -0.054 A 
ATOM     40  H6  039 d   1      46.890  20.769  31.755  0.00  0.00     0.083 H 
ATOM     41  H7  039 d   1      46.212  18.846  33.179  0.00  0.00     0.087 H 
BRANCH  33  42
ATOM     42  OAT 039 d   1      49.818  16.430  31.991  0.00  0.00    -0.354 OA
BRANCH  42  43
ATOM     43  CAU 039 d   1      50.899  16.319  31.049  0.00  0.00     0.010 C 
ATOM     44  H1  039 d   1      51.425  15.366  31.206  0.00  0.00     0.066 H 
ATOM     45  H2  039 d   1      51.600  17.154  31.196  0.00  0.00     0.066 H 
ATOM     46  H3  039 d   1      50.498  16.352  30.025  0.00  0.00     0.066 H 
ENDBRANCH  42  43
ENDBRANCH  33  42
ENDBRANCH   1  32
TORSDOF 6
