REMARK  5 active torsions:
REMARK  status: ('A' for Active; 'I' for Inactive)
REMARK    1  A    between atoms: CAO_2  and  CAP_3 
REMARK       I    between atoms: CAO_2  and  NAN_9 
REMARK    2  A    between atoms: CAJ_13  and  OAT_14 
REMARK    3  A    between atoms: OAT_14  and  CAZ_15 
REMARK    4  A    between atoms: CAI_24  and  OAS_25 
REMARK    5  A    between atoms: OAS_25  and  CAY_26 
ROOT
ATOM      1  OAU 090 d   1      43.937  13.173  32.712  0.00  0.00    -0.267 OA
ATOM      2  CAO 090 d   1      43.419  12.319  32.005  0.00  0.00     0.271 C 
ATOM      3  NAN 090 d   1      44.103  11.677  31.061  0.00  0.00    -0.153 N 
ATOM      4  CAM 090 d   1      45.376  11.988  30.745  0.00  0.00     0.716 A 
ATOM      5  NAL 090 d   1      46.067  12.978  31.393  0.00  0.00    -0.060 NA
ATOM      6  CAK 090 d   1      47.374  13.262  31.104  0.00  0.00     0.126 A 
ATOM      7  CAJ 090 d   1      48.025  14.285  31.791  0.00  0.00     0.132 A 
ATOM      8  CAE 090 d   1      48.057  12.526  30.119  0.00  0.00     0.043 A 
ATOM      9  CAF 090 d   1      47.361  11.498  29.470  0.00  0.00     0.162 A 
ATOM     10  NAG 090 d   1      46.038  11.231  29.770  0.00  0.00    -0.137 N 
ATOM     11  CAH 090 d   1      45.495  10.125  28.996  0.00  0.00     0.021 A 
ATOM     12  CAB 090 d   1      46.715   9.769  28.148  0.00  0.00     0.020 A 
ATOM     13  NAA 090 d   1      47.787  10.669  28.523  0.00  0.00    -0.240 NA
ATOM     14  CAD 090 d   1      49.398  12.830  29.820  0.00  0.00    -0.064 A 
ATOM     15  CAC 090 d   1      50.047  13.857  30.507  0.00  0.00    -0.047 A 
ATOM     16  CAI 090 d   1      49.357  14.606  31.492  0.00  0.00     0.103 A 
ATOM     17  H5  090 d   1      43.654  10.933  30.566  0.00  0.00     0.187 HD
ATOM     18  H9  090 d   1      44.502   9.678  29.016  0.00  0.00     0.115 H 
ATOM     19  H10 090 d   1      46.769   8.982  27.398  0.00  0.00     0.117 H 
ATOM     20  H11 090 d   1      49.926  12.268  29.058  0.00  0.00     0.085 H 
ATOM     21  H12 090 d   1      51.084  14.083  30.286  0.00  0.00     0.087 H 
ENDROOT
BRANCH   2  22
ATOM     22  CAP 090 d   1      42.044  11.803  32.337  0.00  0.00     0.050 A 
ATOM     23  CAQ 090 d   1      41.453  10.822  31.543  0.00  0.00     0.017 A 
ATOM     24  NAR 090 d   1      40.245  10.336  31.880  0.00  0.00    -0.272 NA
ATOM     25  H1  090 d   1      41.963  10.453  30.660  0.00  0.00     0.116 H 
ATOM     26  CAX 090 d   1      39.597  10.758  32.985  0.00  0.00     0.002 A 
ATOM     27  CAW 090 d   1      40.149  11.706  33.832  0.00  0.00    -0.065 A 
ATOM     28  H2  090 d   1      38.621  10.346  33.216  0.00  0.00     0.114 H 
ATOM     29  CAV 090 d   1      41.389  12.225  33.504  0.00  0.00    -0.065 A 
ATOM     30  H3  090 d   1      39.626  12.031  34.724  0.00  0.00     0.085 H 
ATOM     31  H4  090 d   1      41.856  12.960  34.150  0.00  0.00     0.085 H 
ENDBRANCH   2  22
BRANCH   7  32
ATOM     32  OAT 090 d   1      47.332  15.018  32.709  0.00  0.00    -0.351 OA
BRANCH  32  33
ATOM     33  CAZ 090 d   1      46.553  16.121  32.210  0.00  0.00     0.011 C 
ATOM     34  H6  090 d   1      46.049  16.623  33.049  0.00  0.00     0.067 H 
ATOM     35  H7  090 d   1      45.800  15.747  31.501  0.00  0.00     0.067 H 
ATOM     36  H8  090 d   1      47.215  16.836  31.699  0.00  0.00     0.067 H 
ENDBRANCH  32  33
ENDBRANCH   7  32
BRANCH  16  37
ATOM     37  OAS 090 d   1      49.988  15.638  32.165  0.00  0.00    -0.353 OA
BRANCH  37  38
ATOM     38  CAY 090 d   1      51.332  16.009  31.824  0.00  0.00     0.010 C 
ATOM     39  H13 090 d   1      51.656  16.843  32.465  0.00  0.00     0.066 H 
ATOM     40  H14 090 d   1      51.370  16.320  30.770  0.00  0.00     0.066 H 
ATOM     41  H15 090 d   1      52.000  15.148  31.977  0.00  0.00     0.066 H 
ENDBRANCH  37  38
ENDBRANCH  16  37
TORSDOF 5
