REMARK WARNING: 32 MAX_TORS EXCEEDED!!!
REMARK  41 active torsions:
REMARK  status: ('A' for Active; 'I' for Inactive)
REMARK    1  A    between atoms: CA_2  and  N_1 
REMARK    2  A    between atoms: CA_2  and  CB_5 
REMARK    3  A    between atoms: C_3  and  CA_2 
REMARK       I    between atoms: N_11  and  C_3 
REMARK    4  A    between atoms: CB_5  and  CG_6 
REMARK    5  A    between atoms: CA_12  and  N_11 
REMARK    6  A    between atoms: CA_12  and  CB_15 
REMARK    7  A    between atoms: C_13  and  CA_12 
REMARK       I    between atoms: N_19  and  C_13 
REMARK    8  A    between atoms: CB_15  and  CG2_17 
REMARK    9  A    between atoms: CB_15  and  CG1_16 
REMARK   10  A    between atoms: CG1_16  and  CD1_18 
REMARK   11  A    between atoms: CA_20  and  N_19 
REMARK   12  A    between atoms: C_21  and  CA_20 
REMARK   13  A    between atoms: CA_20  and  CB_23 
REMARK       I    between atoms: C_21  and  N_35 
REMARK   14  A    between atoms: CB_23  and  CG_24 
REMARK   15  A    between atoms: CZ_29  and  OH_30 
REMARK   16  A    between atoms: OH_30  and  P_31 
REMARK   17  A    between atoms: N_35  and  CA_36 
REMARK   18  A    between atoms: CA_36  and  CB_39 
REMARK   19  A    between atoms: CA_36  and  C_37 
REMARK       I    between atoms: C_37  and  N_43 
REMARK   20  A    between atoms: CB_39  and  CG_40 
REMARK   21  A    between atoms: N_43  and  CA_44 
REMARK   22  A    between atoms: CA_44  and  CB_47 
REMARK   23  A    between atoms: CA_44  and  C_45 
REMARK       I    between atoms: C_45  and  N_52 
REMARK   24  A    between atoms: CB_47  and  CG_48 
REMARK   25  A    between atoms: CG_48  and  CD_49 
REMARK   26  A    between atoms: N_52  and  CA_53 
REMARK   27  A    between atoms: CA_53  and  CB_56 
REMARK   28  A    between atoms: CA_53  and  C_54 
REMARK       I    between atoms: C_54  and  N_59 
REMARK   29  A    between atoms: CB_56  and  CG2_58 
REMARK   30  A    between atoms: CB_56  and  CG1_57 
REMARK   31  A    between atoms: N_59  and  CA_60 
REMARK   32  A    between atoms: CA_60  and  CB_63 
REMARK   33  A    between atoms: CA_60  and  C_61 
REMARK       I    between atoms: C_61  and  N_64 
REMARK   34  A    between atoms: N_64  and  CA_65 
REMARK   35  A    between atoms: CA_65  and  CB_68 
REMARK   36  A    between atoms: CA_65  and  C_66 
REMARK       I    between atoms: C_66  and  N_69 
REMARK   37  A    between atoms: N_69  and  CA_70 
REMARK   38  A    between atoms: CA_70  and  CB_73 
REMARK   39  A    between atoms: CA_70  and  C_71 
REMARK   40  A    between atoms: C_71  and  O1_77 
REMARK   41  A    between atoms: CB_73  and  CG_74 
ROOT
ATOM      1  CA  ASP d   1      40.109   6.575  10.046  0.00  0.00     0.098 C 
ATOM      2  H29 ASP d   1      40.821   5.737  10.066  0.00  0.00     0.088 H 
ENDROOT
BRANCH   1   3
ATOM      3  N   ASP d   1      39.241   6.474  11.217  0.00  0.00    -0.345 N 
ATOM      4  C   PTR d   1      39.672   6.187  12.438  0.00  0.00     0.243 C 
ATOM      5  O   PTR d   1      40.844   5.948  12.692  0.00  0.00    -0.271 OA
ATOM      6  H28 ASP d   1      38.262   6.631  11.090  0.00  0.00     0.163 HD
BRANCH   4   7
ATOM      7  CA  PTR d   1      38.585   6.172  13.531  0.00  0.00     0.116 C 
ATOM      8  H21 PTR d   1      37.626   5.954  13.037  0.00  0.00     0.091 H 
BRANCH   7   9
ATOM      9  N   PTR d   1      38.824   5.101  14.500  0.00  0.00    -0.239 NA
ATOM     10  C   ILE d   1      38.233   3.905  14.414  0.00  0.00     0.262 C 
ATOM     11  O   ILE d   1      37.388   3.628  13.566  0.00  0.00    -0.269 OA
BRANCH  10  12
ATOM     12  CA  ILE d   1      38.630   2.865  15.466  0.00  0.00     0.094 C 
ATOM     13  H11 ILE d   1      39.150   3.360  16.300  0.00  0.00     0.088 H 
BRANCH  12  14
ATOM     14  N   ILE d   1      37.389   2.277  15.952  0.00  0.00    -0.346 N 
ATOM     15  C   HIS d   1      36.832   2.658  17.093  0.00  0.00     0.249 C 
ATOM     16  O   HIS d   1      37.317   3.495  17.851  0.00  0.00    -0.271 OA
ATOM     17  H10 ILE d   1      36.944   1.565  15.409  0.00  0.00     0.163 HD
BRANCH  15  18
ATOM     18  CA  HIS d   1      35.517   1.997  17.418  0.00  0.00     0.181 C 
ATOM     19  H4  HIS d   1      35.082   1.588  16.494  0.00  0.00     0.099 H 
BRANCH  18  20
ATOM     20  N   HIS d   1      35.702   0.876  18.387  0.00  0.00    -0.066 N 
ATOM     21  H1  HIS d   1      34.809   0.453  18.586  0.00  0.00     0.275 HD
ATOM     22  H2  HIS d   1      36.103   1.232  19.241  0.00  0.00     0.275 HD
ATOM     23  H3  HIS d   1      36.319   0.186  17.989  0.00  0.00     0.275 HD
ENDBRANCH  18  20
BRANCH  18  24
ATOM     24  CB  HIS d   1      34.586   3.067  17.973  0.00  0.00     0.009 C 
ATOM     25  H5  HIS d   1      34.616   3.938  17.301  0.00  0.00     0.046 H 
ATOM     26  H6  HIS d   1      34.947   3.360  18.970  0.00  0.00     0.046 H 
BRANCH  24  27
ATOM     27  CG  HIS d   1      33.178   2.618  18.097  0.00  0.00     0.030 A 
ATOM     28  ND1 HIS d   1      32.126   3.500  18.144  0.00  0.00    -0.353 N 
ATOM     29  CE1 HIS d   1      31.001   2.819  18.254  0.00  0.00     0.063 A 
ATOM     30  H7  HIS d   1      32.203   4.526  18.101  0.00  0.00     0.166 HD
ATOM     31  NE2 HIS d   1      31.285   1.530  18.274  0.00  0.00    -0.254 NA
ATOM     32  H9  HIS d   1      30.003   3.249  18.318  0.00  0.00     0.143 H 
ATOM     33  CD2 HIS d   1      32.641   1.376  18.165  0.00  0.00     0.025 A 
ATOM     34  H8  HIS d   1      33.185   0.433  18.138  0.00  0.00     0.117 H 
ENDBRANCH  24  27
ENDBRANCH  18  24
ENDBRANCH  15  18
ENDBRANCH  12  14
BRANCH  12  35
ATOM     35  CB  ILE d   1      39.583   1.806  14.849  0.00  0.00    -0.030 C 
ATOM     36  H12 ILE d   1      39.189   1.524  13.861  0.00  0.00     0.043 H 
BRANCH  35  37
ATOM     37  CG2 ILE d   1      40.966   2.404  14.666  0.00  0.00    -0.071 C 
ATOM     38  H15 ILE d   1      40.894   3.312  14.050  0.00  0.00     0.028 H 
ATOM     39  H16 ILE d   1      41.618   1.673  14.166  0.00  0.00     0.028 H 
ATOM     40  H17 ILE d   1      41.388   2.660  15.649  0.00  0.00     0.028 H 
ENDBRANCH  35  37
BRANCH  35  41
ATOM     41  CG1 ILE d   1      39.670   0.532  15.711  0.00  0.00    -0.063 C 
ATOM     42  H13 ILE d   1      40.411  -0.142  15.255  0.00  0.00     0.033 H 
ATOM     43  H14 ILE d   1      38.683   0.047  15.709  0.00  0.00     0.033 H 
BRANCH  41  44
ATOM     44  CD1 ILE d   1      40.074   0.776  17.150  0.00  0.00    -0.076 C 
ATOM     45  H18 ILE d   1      40.111  -0.183  17.688  0.00  0.00     0.027 H 
ATOM     46  H19 ILE d   1      39.339   1.438  17.630  0.00  0.00     0.027 H 
ATOM     47  H20 ILE d   1      41.066   1.250  17.177  0.00  0.00     0.027 H 
ENDBRANCH  41  44
ENDBRANCH  35  41
ENDBRANCH  12  35
ENDBRANCH  10  12
ENDBRANCH   7   9
BRANCH   7  48
ATOM     48  CB  PTR d   1      38.446   7.552  14.201  0.00  0.00    -0.012 C 
ATOM     49  H22 PTR d   1      38.460   8.328  13.422  0.00  0.00     0.044 H 
ATOM     50  H23 PTR d   1      39.295   7.702  14.884  0.00  0.00     0.044 H 
BRANCH  48  51
ATOM     51  CG  PTR d   1      37.151   7.673  14.992  0.00  0.00    -0.056 A 
ATOM     52  CD1 PTR d   1      37.060   7.195  16.307  0.00  0.00    -0.074 A 
ATOM     53  CE1 PTR d   1      35.876   7.302  17.035  0.00  0.00    -0.050 A 
ATOM     54  H24 PTR d   1      37.927   6.734  16.766  0.00  0.00     0.084 H 
ATOM     55  CZ  PTR d   1      34.746   7.882  16.453  0.00  0.00     0.082 A 
ATOM     56  H26 PTR d   1      35.832   6.935  18.054  0.00  0.00     0.087 H 
ATOM     57  CE2 PTR d   1      34.816   8.365  15.142  0.00  0.00    -0.050 A 
ATOM     58  CD2 PTR d   1      36.018   8.271  14.443  0.00  0.00    -0.074 A 
ATOM     59  H27 PTR d   1      33.944   8.808  14.675  0.00  0.00     0.087 H 
ATOM     60  H25 PTR d   1      36.074   8.676  13.439  0.00  0.00     0.084 H 
BRANCH  55  61
ATOM     61  OH  PTR d   1      33.675   7.986  17.118  0.00  0.00    -0.240 OA
BRANCH  61  62
ATOM     62  P   PTR d   1      32.382   7.011  17.032  0.00  0.00     0.427 P 
ATOM     63  O1P PTR d   1      32.436   6.181  18.261  0.00  0.00    -0.617 OA
ATOM     64  O2P PTR d   1      32.395   6.196  15.738  0.00  0.00    -0.617 OA
ATOM     65  O3P PTR d   1      31.192   7.961  17.113  0.00  0.00    -0.617 OA
ENDBRANCH  61  62
ENDBRANCH  55  61
ENDBRANCH  48  51
ENDBRANCH   7  48
ENDBRANCH   4   7
ENDBRANCH   1   3
BRANCH   1  66
ATOM     66  CB  ASP d   1      39.259   6.432   8.788  0.00  0.00     0.043 C 
ATOM     67  H30 ASP d   1      39.910   6.495   7.904  0.00  0.00     0.052 H 
ATOM     68  H31 ASP d   1      38.520   7.246   8.758  0.00  0.00     0.052 H 
BRANCH  66  69
ATOM     69  CG  ASP d   1      38.531   5.099   8.775  0.00  0.00     0.175 C 
ATOM     70  OD1 ASP d   1      39.215   4.070   8.564  0.00  0.00    -0.648 OA
ATOM     71  OD2 ASP d   1      37.316   5.066   9.042  0.00  0.00    -0.648 OA
ENDBRANCH  66  69
ENDBRANCH   1  66
BRANCH   1  72
ATOM     72  C   ASP d   1      40.919   7.867  10.107  0.00  0.00     0.241 C 
ATOM     73  O   ASP d   1      40.426   8.865  10.634  0.00  0.00    -0.271 OA
ATOM     74  N   GLU d   1      42.155   7.826   9.609  0.00  0.00    -0.346 N 
ATOM     75  H32 GLU d   1      42.484   6.968   9.215  0.00  0.00     0.163 HD
BRANCH  74  76
ATOM     76  CA  GLU d   1      43.049   8.981   9.615  0.00  0.00     0.090 C 
ATOM     77  H33 GLU d   1      42.978   9.466  10.600  0.00  0.00     0.087 H 
BRANCH  76  78
ATOM     78  CB  GLU d   1      44.511   8.577   9.368  0.00  0.00    -0.029 C 
ATOM     79  H34 GLU d   1      44.595   8.170   8.349  0.00  0.00     0.037 H 
ATOM     80  H35 GLU d   1      44.788   7.801  10.097  0.00  0.00     0.037 H 
BRANCH  78  81
ATOM     81  CG  GLU d   1      45.493   9.752   9.508  0.00  0.00     0.018 C 
ATOM     82  H36 GLU d   1      45.374  10.180  10.514  0.00  0.00     0.049 H 
ATOM     83  H37 GLU d   1      45.231  10.509   8.754  0.00  0.00     0.049 H 
BRANCH  81  84
ATOM     84  CD  GLU d   1      46.952   9.386   9.321  0.00  0.00     0.172 C 
ATOM     85  OE2 GLU d   1      47.789  10.011  10.012  0.00  0.00    -0.648 OA
ATOM     86  OE1 GLU d   1      47.271   8.514   8.477  0.00  0.00    -0.648 OA
ENDBRANCH  81  84
ENDBRANCH  78  81
ENDBRANCH  76  78
BRANCH  76  87
ATOM     87  C   GLU d   1      42.642   9.978   8.542  0.00  0.00     0.241 C 
ATOM     88  O   GLU d   1      42.423   9.609   7.393  0.00  0.00    -0.271 OA
ATOM     89  N   VAL d   1      42.549  11.240   8.938  0.00  0.00    -0.346 N 
ATOM     90  H38 VAL d   1      42.672  11.443   9.909  0.00  0.00     0.163 HD
BRANCH  89  91
ATOM     91  CA  VAL d   1      42.280  12.333   8.041  0.00  0.00     0.092 C 
ATOM     92  H39 VAL d   1      41.434  12.080   7.384  0.00  0.00     0.088 H 
BRANCH  91  93
ATOM     93  CB  VAL d   1      41.917  13.580   8.885  0.00  0.00    -0.033 C 
ATOM     94  H40 VAL d   1      42.740  13.780   9.587  0.00  0.00     0.042 H 
BRANCH  93  95
ATOM     95  CG2 VAL d   1      40.644  13.291   9.684  0.00  0.00    -0.071 C 
ATOM     96  H44 VAL d   1      40.799  12.400  10.310  0.00  0.00     0.028 H 
ATOM     97  H45 VAL d   1      39.809  13.111   8.991  0.00  0.00     0.028 H 
ATOM     98  H46 VAL d   1      40.410  14.154  10.325  0.00  0.00     0.028 H 
ENDBRANCH  93  95
BRANCH  93  99
ATOM     99  CG1 VAL d   1      41.726  14.786   8.029  0.00  0.00    -0.071 C 
ATOM    100  H41 VAL d   1      41.470  15.648   8.662  0.00  0.00     0.028 H 
ATOM    101  H42 VAL d   1      40.911  14.602   7.313  0.00  0.00     0.028 H 
ATOM    102  H43 VAL d   1      42.656  14.997   7.480  0.00  0.00     0.028 H 
ENDBRANCH  93  99
ENDBRANCH  91  93
BRANCH  91 103
ATOM    103  C   VAL d   1      43.547  12.579   7.175  0.00  0.00     0.241 C 
ATOM    104  O   VAL d   1      44.672  12.512   7.679  0.00  0.00    -0.271 OA
ATOM    105  N   ALA d   1      43.347  12.860   5.881  0.00  0.00    -0.346 N 
ATOM    106  H47 ALA d   1      42.410  12.864   5.533  0.00  0.00     0.163 HD
BRANCH 105 107
ATOM    107  CA  ALA d   1      44.443  13.163   4.948  0.00  0.00     0.086 C 
ATOM    108  H48 ALA d   1      45.046  12.254   4.808  0.00  0.00     0.086 H 
BRANCH 107 109
ATOM    109  CB  ALA d   1      43.883  13.593   3.572  0.00  0.00    -0.049 C 
ATOM    110  H49 ALA d   1      44.717  13.815   2.890  0.00  0.00     0.030 H 
ATOM    111  H50 ALA d   1      43.260  14.492   3.694  0.00  0.00     0.030 H 
ATOM    112  H51 ALA d   1      43.274  12.779   3.153  0.00  0.00     0.030 H 
ENDBRANCH 107 109
BRANCH 107 113
ATOM    113  C   ALA d   1      45.337  14.253   5.535  0.00  0.00     0.240 C 
ATOM    114  O   ALA d   1      44.839  15.253   6.092  0.00  0.00    -0.271 OA
ATOM    115  N   ALA d   1      46.650  14.044   5.405  0.00  0.00    -0.346 N 
ATOM    116  H52 ALA d   1      46.963  13.246   4.890  0.00  0.00     0.163 HD
BRANCH 115 117
ATOM    117  CA  ALA d   1      47.650  14.944   5.991  0.00  0.00     0.086 C 
ATOM    118  H53 ALA d   1      47.467  14.973   7.075  0.00  0.00     0.086 H 
BRANCH 117 119
ATOM    119  CB  ALA d   1      49.081  14.411   5.763  0.00  0.00    -0.049 C 
ATOM    120  H54 ALA d   1      49.807  15.105   6.212  0.00  0.00     0.030 H 
ATOM    121  H55 ALA d   1      49.273  14.328   4.683  0.00  0.00     0.030 H 
ATOM    122  H56 ALA d   1      49.182  13.421   6.231  0.00  0.00     0.030 H 
ENDBRANCH 117 119
BRANCH 117 123
ATOM    123  C   ALA d   1      47.553  16.371   5.469  0.00  0.00     0.240 C 
ATOM    124  O   ALA d   1      47.161  16.599   4.323  0.00  0.00    -0.271 OA
ATOM    125  N   ASP d   1      47.937  17.324   6.318  0.00  0.00    -0.344 N 
ATOM    126  H57 ASP d   1      48.208  17.066   7.245  0.00  0.00     0.163 HD
BRANCH 125 127
ATOM    127  CA  ASP d   1      47.975  18.742   5.934  0.00  0.00     0.102 C 
ATOM    128  H58 ASP d   1      48.267  18.814   4.876  0.00  0.00     0.090 H 
BRANCH 127 129
ATOM    129  CB  ASP d   1      46.577  19.360   6.096  0.00  0.00     0.044 C 
ATOM    130  H59 ASP d   1      46.479  19.737   7.125  0.00  0.00     0.053 H 
ATOM    131  H60 ASP d   1      45.826  18.576   5.920  0.00  0.00     0.053 H 
BRANCH 129 132
ATOM    132  CG  ASP d   1      46.311  20.504   5.138  0.00  0.00     0.175 C 
ATOM    133  OD1 ASP d   1      47.215  21.299   4.850  0.00  0.00    -0.648 OA
ATOM    134  OD2 ASP d   1      45.157  20.628   4.675  0.00  0.00    -0.648 OA
ENDBRANCH 129 132
ENDBRANCH 127 129
BRANCH 127 135
ATOM    135  C   ASP d   1      49.021  19.486   6.777  0.00  0.00     0.164 C 
ATOM    136  O   ASP d   1      50.222  19.442   6.470  0.00  0.00    -0.648 OA
BRANCH 135 137
ATOM    137  O1  ASP d   1      48.637  20.182   7.843  0.00  0.00    -0.775 OA
ATOM    138  H61 ASP d   1      49.062  19.833   8.618  0.00  0.00     0.167 HD
ENDBRANCH 135 137
ENDBRANCH 127 135
ENDBRANCH 125 127
ENDBRANCH 117 123
ENDBRANCH 115 117
ENDBRANCH 107 113
ENDBRANCH 105 107
ENDBRANCH  91 103
ENDBRANCH  89  91
ENDBRANCH  76  87
ENDBRANCH  74  76
ENDBRANCH   1  72
TORSDOF 41
