REMARK WARNING: 32 MAX_TORS EXCEEDED!!!
REMARK  37 active torsions:
REMARK  status: ('A' for Active; 'I' for Inactive)
REMARK    1  A    between atoms: C_1  and  CH3_3 
REMARK       I    between atoms: C_1  and  N_4 
REMARK    2  A    between atoms: N_4  and  CA_5 
REMARK    3  A    between atoms: CA_5  and  C_6 
REMARK    4  A    between atoms: CA_5  and  CB_8 
REMARK       I    between atoms: C_6  and  N_14 
REMARK    5  A    between atoms: CB_8  and  CG_9 
REMARK    6  A    between atoms: N_14  and  CA_15 
REMARK    7  A    between atoms: CA_15  and  C_16 
REMARK    8  A    between atoms: CA_15  and  CB_18 
REMARK       I    between atoms: C_16  and  N_22 
REMARK    9  A    between atoms: CB_18  and  CG1_19 
REMARK   10  A    between atoms: CB_18  and  CG2_20 
REMARK   11  A    between atoms: CG1_19  and  CD1_21 
REMARK   12  A    between atoms: N_22  and  CA_23 
REMARK   13  A    between atoms: CA_23  and  C_24 
REMARK   14  A    between atoms: CA_23  and  CB_26 
REMARK       I    between atoms: C_24  and  N_38 
REMARK   15  A    between atoms: CB_26  and  CG_27 
REMARK   16  A    between atoms: CZ_32  and  OH_33 
REMARK   17  A    between atoms: OH_33  and  P_34 
REMARK   18  A    between atoms: N_38  and  CA_39 
REMARK   19  A    between atoms: CA_39  and  C_40 
REMARK   20  A    between atoms: CA_39  and  CB_42 
REMARK       I    between atoms: C_40  and  N_46 
REMARK   21  A    between atoms: CB_42  and  CG_43 
REMARK   22  A    between atoms: N_46  and  CA_47 
REMARK   23  A    between atoms: CA_47  and  C_48 
REMARK   24  A    between atoms: CA_47  and  CB_50 
REMARK       I    between atoms: C_48  and  N_55 
REMARK   25  A    between atoms: CB_50  and  CG_51 
REMARK   26  A    between atoms: CG_51  and  CD_52 
REMARK   27  A    between atoms: N_55  and  CA_56 
REMARK   28  A    between atoms: CA_56  and  C_57 
REMARK   29  A    between atoms: CA_56  and  CB_59 
REMARK       I    between atoms: C_57  and  N_62 
REMARK   30  A    between atoms: CB_59  and  CG1_60 
REMARK   31  A    between atoms: CB_59  and  CG2_61 
REMARK   32  A    between atoms: N_62  and  CA_63 
REMARK   33  A    between atoms: CA_63  and  C_64 
REMARK   34  A    between atoms: CA_63  and  CB_66 
REMARK       I    between atoms: C_64  and  N_67 
REMARK   35  A    between atoms: N_67  and  CA_68 
REMARK   36  A    between atoms: CA_68  and  C_69 
REMARK   37  A    between atoms: CA_68  and  CB_71 
REMARK       I    between atoms: C_69  and  N_72 
ROOT
ATOM      1  C   PTR d   1      15.691  47.584  27.450  0.00  0.00     0.241 C 
ATOM      2  O   PTR d   1      16.352  46.724  28.031  0.00  0.00    -0.271 OA
ATOM      3  N   ASP d   1      14.519  47.348  26.864  0.00  0.00    -0.345 N 
ATOM      4  H30 ASP d   1      14.034  48.113  26.441  0.00  0.00     0.163 HD
ENDROOT
BRANCH   1   5
ATOM      5  CA  PTR d   1      16.171  49.012  27.384  0.00  0.00     0.093 C 
ATOM      6  H23 PTR d   1      15.286  49.665  27.404  0.00  0.00     0.088 H 
BRANCH   5   7
ATOM      7  N   PTR d   1      16.995  49.356  28.550  0.00  0.00    -0.346 N 
ATOM      8  C   ILE d   1      16.541  50.130  29.551  0.00  0.00     0.241 C 
ATOM      9  O   ILE d   1      15.391  50.622  29.568  0.00  0.00    -0.271 OA
ATOM     10  H22 PTR d   1      17.929  49.001  28.601  0.00  0.00     0.163 HD
BRANCH   8  11
ATOM     11  CA  ILE d   1      17.506  50.399  30.687  0.00  0.00     0.092 C 
ATOM     12  H12 ILE d   1      18.529  50.150  30.367  0.00  0.00     0.088 H 
BRANCH  11  13
ATOM     13  N   ILE d   1      17.441  51.819  31.019  0.00  0.00    -0.346 N 
ATOM     14  C   HIS d   1      18.371  52.680  30.633  0.00  0.00     0.241 C 
ATOM     15  O   HIS d   1      19.343  52.370  29.907  0.00  0.00    -0.271 OA
ATOM     16  H11 ILE d   1      16.667  52.154  31.557  0.00  0.00     0.163 HD
BRANCH  14  17
ATOM     17  CA  HIS d   1      18.116  54.130  31.082  0.00  0.00     0.094 C 
ATOM     18  H5  HIS d   1      17.235  54.111  31.740  0.00  0.00     0.088 H 
BRANCH  17  19
ATOM     19  N   HIS d   1      19.188  54.816  31.872  0.00  0.00    -0.348 N 
ATOM     20  C   ACE d   1      19.159  54.967  33.227  0.00  0.00     0.214 C 
ATOM     21  O   ACE d   1      20.108  55.483  33.857  0.00  0.00    -0.274 OA
ATOM     22  H4  HIS d   1      19.973  55.186  31.375  0.00  0.00     0.163 HD
BRANCH  20  23
ATOM     23  CH3 ACE d   1      17.861  54.711  33.958  0.00  0.00    -0.003 C 
ATOM     24  H1  ACE d   1      17.135  54.257  33.268  0.00  0.00     0.040 H 
ATOM     25  H2  ACE d   1      17.460  55.662  34.338  0.00  0.00     0.040 H 
ATOM     26  H3  ACE d   1      18.043  54.027  34.800  0.00  0.00     0.040 H 
ENDBRANCH  20  23
ENDBRANCH  17  19
BRANCH  17  27
ATOM     27  CB  HIS d   1      17.740  54.871  29.825  0.00  0.00     0.002 C 
ATOM     28  H6  HIS d   1      17.059  54.236  29.240  0.00  0.00     0.046 H 
ATOM     29  H7  HIS d   1      18.657  55.057  29.246  0.00  0.00     0.046 H 
BRANCH  27  30
ATOM     30  CG  HIS d   1      17.070  56.173  30.068  0.00  0.00     0.030 A 
ATOM     31  ND1 HIS d   1      16.932  57.130  29.089  0.00  0.00    -0.353 N 
ATOM     32  CE1 HIS d   1      16.320  58.185  29.607  0.00  0.00     0.063 A 
ATOM     33  H8  HIS d   1      17.252  57.041  28.114  0.00  0.00     0.166 HD
ATOM     34  NE2 HIS d   1      16.091  57.953  30.892  0.00  0.00    -0.254 NA
ATOM     35  H10 HIS d   1      16.050  59.092  29.067  0.00  0.00     0.143 H 
ATOM     36  CD2 HIS d   1      16.557  56.706  31.205  0.00  0.00     0.025 A 
ATOM     37  H9  HIS d   1      16.523  56.230  32.184  0.00  0.00     0.117 H 
ENDBRANCH  27  30
ENDBRANCH  17  27
ENDBRANCH  14  17
ENDBRANCH  11  13
BRANCH  11  38
ATOM     38  CB  ILE d   1      17.134  49.522  31.898  0.00  0.00    -0.030 C 
ATOM     39  H13 ILE d   1      16.066  49.668  32.116  0.00  0.00     0.043 H 
BRANCH  38  40
ATOM     40  CG1 ILE d   1      17.942  49.936  33.130  0.00  0.00    -0.063 C 
ATOM     41  H14 ILE d   1      17.698  49.249  33.954  0.00  0.00     0.033 H 
ATOM     42  H15 ILE d   1      17.653  50.960  33.408  0.00  0.00     0.033 H 
BRANCH  40  43
ATOM     43  CD1 ILE d   1      19.417  49.905  32.911  0.00  0.00    -0.076 C 
ATOM     44  H19 ILE d   1      19.931  50.213  33.834  0.00  0.00     0.027 H 
ATOM     45  H20 ILE d   1      19.681  50.595  32.096  0.00  0.00     0.027 H 
ATOM     46  H21 ILE d   1      19.726  48.884  32.642  0.00  0.00     0.027 H 
ENDBRANCH  40  43
ENDBRANCH  38  40
BRANCH  38  47
ATOM     47  CG2 ILE d   1      17.365  48.050  31.591  0.00  0.00    -0.071 C 
ATOM     48  H16 ILE d   1      16.780  47.764  30.704  0.00  0.00     0.028 H 
ATOM     49  H17 ILE d   1      17.048  47.442  32.451  0.00  0.00     0.028 H 
ATOM     50  H18 ILE d   1      18.434  47.880  31.395  0.00  0.00     0.028 H 
ENDBRANCH  38  47
ENDBRANCH  11  38
ENDBRANCH   8  11
ENDBRANCH   5   7
BRANCH   5  51
ATOM     51  CB  PTR d   1      16.895  49.262  26.074  0.00  0.00    -0.014 C 
ATOM     52  H24 PTR d   1      16.331  48.778  25.263  0.00  0.00     0.043 H 
ATOM     53  H25 PTR d   1      17.900  48.819  26.138  0.00  0.00     0.043 H 
BRANCH  51  54
ATOM     54  CG  PTR d   1      17.037  50.745  25.750  0.00  0.00    -0.056 A 
ATOM     55  CD1 PTR d   1      18.065  51.489  26.304  0.00  0.00    -0.074 A 
ATOM     56  CE1 PTR d   1      18.213  52.848  26.009  0.00  0.00    -0.050 A 
ATOM     57  H26 PTR d   1      18.767  51.010  26.977  0.00  0.00     0.084 H 
ATOM     58  CZ  PTR d   1      17.336  53.476  25.141  0.00  0.00     0.082 A 
ATOM     59  H28 PTR d   1      19.019  53.413  26.463  0.00  0.00     0.087 H 
ATOM     60  CE2 PTR d   1      16.295  52.748  24.567  0.00  0.00    -0.050 A 
ATOM     61  CD2 PTR d   1      16.186  51.383  24.861  0.00  0.00    -0.074 A 
ATOM     62  H29 PTR d   1      15.584  53.229  23.906  0.00  0.00     0.087 H 
ATOM     63  H27 PTR d   1      15.408  50.805  24.376  0.00  0.00     0.084 H 
BRANCH  58  64
ATOM     64  OH  PTR d   1      17.466  54.726  24.815  0.00  0.00    -0.240 OA
BRANCH  64  65
ATOM     65  P   PTR d   1      16.734  55.944  25.587  0.00  0.00     0.427 P 
ATOM     66  O1P PTR d   1      17.680  56.496  26.560  0.00  0.00    -0.617 OA
ATOM     67  O2P PTR d   1      15.470  55.393  26.217  0.00  0.00    -0.617 OA
ATOM     68  O3P PTR d   1      16.423  56.877  24.452  0.00  0.00    -0.617 OA
ENDBRANCH  64  65
ENDBRANCH  58  64
ENDBRANCH  51  54
ENDBRANCH   5  51
ENDBRANCH   1   5
BRANCH   3  69
ATOM     69  CA  ASP d   1      13.924  46.050  26.813  0.00  0.00     0.098 C 
ATOM     70  H31 ASP d   1      14.070  45.545  27.779  0.00  0.00     0.088 H 
BRANCH  69  71
ATOM     71  C   ASP d   1      14.558  45.230  25.740  0.00  0.00     0.241 C 
ATOM     72  O   ASP d   1      15.081  45.753  24.765  0.00  0.00    -0.271 OA
ATOM     73  N   GLU d   1      14.509  43.910  25.929  0.00  0.00    -0.346 N 
ATOM     74  H34 GLU d   1      14.051  43.556  26.745  0.00  0.00     0.163 HD
BRANCH  73  75
ATOM     75  CA  GLU d   1      15.100  42.964  24.988  0.00  0.00     0.090 C 
ATOM     76  H35 GLU d   1      16.066  43.355  24.635  0.00  0.00     0.087 H 
BRANCH  75  77
ATOM     77  C   GLU d   1      14.182  42.736  23.796  0.00  0.00     0.241 C 
ATOM     78  O   GLU d   1      13.040  42.366  23.974  0.00  0.00    -0.271 OA
ATOM     79  N   VAL d   1      14.635  43.049  22.575  0.00  0.00    -0.346 N 
ATOM     80  H40 VAL d   1      15.529  43.487  22.479  0.00  0.00     0.163 HD
BRANCH  79  81
ATOM     81  CA  VAL d   1      13.832  42.757  21.363  0.00  0.00     0.092 C 
ATOM     82  H41 VAL d   1      12.839  43.208  21.506  0.00  0.00     0.088 H 
BRANCH  81  83
ATOM     83  C   VAL d   1      13.671  41.267  21.143  0.00  0.00     0.241 C 
ATOM     84  O   VAL d   1      14.592  40.473  21.438  0.00  0.00    -0.271 OA
ATOM     85  N   ALA d   1      12.511  40.854  20.620  0.00  0.00    -0.346 N 
ATOM     86  H49 ALA d   1      11.814  41.534  20.393  0.00  0.00     0.163 HD
BRANCH  85  87
ATOM     87  CA  ALA d   1      12.221  39.411  20.364  0.00  0.00     0.086 C 
ATOM     88  H50 ALA d   1      12.480  38.827  21.259  0.00  0.00     0.086 H 
BRANCH  87  89
ATOM     89  C   ALA d   1      13.012  38.930  19.203  0.00  0.00     0.240 C 
ATOM     90  O   ALA d   1      13.130  39.642  18.244  0.00  0.00    -0.271 OA
ATOM     91  N   ALA d   1      13.536  37.704  19.285  0.00  0.00    -0.346 N 
ATOM     92  H54 ALA d   1      13.422  37.187  20.133  0.00  0.00     0.163 HD
BRANCH  91  93
ATOM     93  CA  ALA d   1      14.274  37.088  18.172  0.00  0.00     0.086 C 
ATOM     94  H55 ALA d   1      14.813  37.877  17.627  0.00  0.00     0.086 H 
BRANCH  93  95
ATOM     95  C   ALA d   1      13.301  36.407  17.215  0.00  0.00     0.237 C 
ATOM     96  O   ALA d   1      12.089  36.339  17.416  0.00  0.00    -0.271 OA
ATOM     97  N   ASP d   1      13.698  35.916  16.185  0.00  0.00    -0.368 N 
ATOM     98  H59 ASP d   1      13.054  35.471  15.562  0.00  0.00     0.159 HD
ATOM     99  H60 ASP d   1      14.670  35.954  15.955  0.00  0.00     0.159 HD
ENDBRANCH  93  95
BRANCH  93 100
ATOM    100  CB  ALA d   1      15.273  36.094  18.691  0.00  0.00    -0.049 C 
ATOM    101  H56 ALA d   1      15.815  35.644  17.846  0.00  0.00     0.030 H 
ATOM    102  H57 ALA d   1      14.749  35.306  19.252  0.00  0.00     0.030 H 
ATOM    103  H58 ALA d   1      15.987  36.604  19.355  0.00  0.00     0.030 H 
ENDBRANCH  93 100
ENDBRANCH  91  93
ENDBRANCH  87  89
BRANCH  87 104
ATOM    104  CB  ALA d   1      10.752  39.208  20.027  0.00  0.00    -0.049 C 
ATOM    105  H51 ALA d   1      10.562  38.140  19.843  0.00  0.00     0.030 H 
ATOM    106  H52 ALA d   1      10.499  39.786  19.126  0.00  0.00     0.030 H 
ATOM    107  H53 ALA d   1      10.132  39.551  20.869  0.00  0.00     0.030 H 
ENDBRANCH  87 104
ENDBRANCH  85  87
ENDBRANCH  81  83
BRANCH  81 108
ATOM    108  CB  VAL d   1      14.440  43.312  20.075  0.00  0.00    -0.033 C 
ATOM    109  H42 VAL d   1      13.899  42.873  19.224  0.00  0.00     0.042 H 
BRANCH 108 110
ATOM    110  CG1 VAL d   1      14.257  44.778  20.026  0.00  0.00    -0.071 C 
ATOM    111  H43 VAL d   1      14.696  45.172  19.097  0.00  0.00     0.028 H 
ATOM    112  H44 VAL d   1      14.755  45.239  20.892  0.00  0.00     0.028 H 
ATOM    113  H45 VAL d   1      13.183  45.015  20.052  0.00  0.00     0.028 H 
ENDBRANCH 108 110
BRANCH 108 114
ATOM    114  CG2 VAL d   1      15.874  42.925  19.949  0.00  0.00    -0.071 C 
ATOM    115  H46 VAL d   1      15.963  41.829  19.990  0.00  0.00     0.028 H 
ATOM    116  H47 VAL d   1      16.448  43.371  20.774  0.00  0.00     0.028 H 
ATOM    117  H48 VAL d   1      16.269  43.289  18.989  0.00  0.00     0.028 H 
ENDBRANCH 108 114
ENDBRANCH  81 108
ENDBRANCH  79  81
ENDBRANCH  75  77
BRANCH  75 118
ATOM    118  CB  GLU d   1      15.308  41.646  25.700  0.00  0.00    -0.029 C 
ATOM    119  H36 GLU d   1      14.323  41.251  25.991  0.00  0.00     0.037 H 
ATOM    120  H37 GLU d   1      15.910  41.831  26.602  0.00  0.00     0.037 H 
BRANCH 118 121
ATOM    121  CG  GLU d   1      16.010  40.603  24.868  0.00  0.00     0.018 C 
ATOM    122  H38 GLU d   1      17.034  40.951  24.666  0.00  0.00     0.049 H 
ATOM    123  H39 GLU d   1      15.466  40.493  23.918  0.00  0.00     0.049 H 
BRANCH 121 124
ATOM    124  CD  GLU d   1      16.089  39.245  25.534  0.00  0.00     0.172 C 
ATOM    125  OE1 GLU d   1      15.231  38.898  26.387  0.00  0.00    -0.648 OA
ATOM    126  OE2 GLU d   1      17.010  38.517  25.166  0.00  0.00    -0.648 OA
ENDBRANCH 121 124
ENDBRANCH 118 121
ENDBRANCH  75 118
ENDBRANCH  73  75
ENDBRANCH  69  71
BRANCH  69 127
ATOM    127  CB  ASP d   1      12.438  46.214  26.554  0.00  0.00     0.043 C 
ATOM    128  H32 ASP d   1      11.988  45.219  26.426  0.00  0.00     0.052 H 
ATOM    129  H33 ASP d   1      12.300  46.800  25.634  0.00  0.00     0.052 H 
BRANCH 127 130
ATOM    130  CG  ASP d   1      11.744  46.919  27.688  0.00  0.00     0.175 C 
ATOM    131  OD1 ASP d   1      11.475  46.250  28.704  0.00  0.00    -0.648 OA
ATOM    132  OD2 ASP d   1      11.524  48.143  27.547  0.00  0.00    -0.648 OA
ENDBRANCH 127 130
ENDBRANCH  69 127
ENDBRANCH   3  69
TORSDOF 37
