REMARK  6 active torsions:
REMARK  status: ('A' for Active; 'I' for Inactive)
REMARK    1  A    between atoms: C6_11  and  S1_12 
REMARK    2  A    between atoms: S1_12  and  N1_15 
REMARK    3  A    between atoms: N1_15  and  C12_16 
REMARK    4  A    between atoms: N2_21  and  C16_22 
REMARK    5  A    between atoms: C16_22  and  C17_23 
REMARK    6  A    between atoms: C16_22  and  C18_24 
REMARK       I    between atoms: C18_24  and  N3_26 
ROOT
ATOM      1  C12 GSK d   1       6.023   6.361  22.238  0.00  0.00     0.098 C 
ATOM      2  C13 GSK d   1       4.715   5.668  21.863  0.00  0.00    -0.022 C 
ATOM      3  C14 GSK d   1       5.111   4.335  21.213  0.00  0.00     0.001 C 
ATOM      4  C15 GSK d   1       7.053   5.674  21.339  0.00  0.00     0.244 C 
ATOM      5  O3  GSK d   1       8.193   6.068  21.111  0.00  0.00    -0.271 OA
ATOM      6  N2  GSK d   1       6.512   4.522  20.855  0.00  0.00    -0.337 N 
ATOM      7  H8  GSK d   1       6.274   6.115  23.280  0.00  0.00     0.088 H 
ATOM      8  H9  GSK d   1       4.146   6.285  21.152  0.00  0.00     0.039 H 
ATOM      9  H10 GSK d   1       4.107   5.489  22.762  0.00  0.00     0.039 H 
ATOM     10  H11 GSK d   1       4.501   4.139  20.319  0.00  0.00     0.064 H 
ATOM     11  H12 GSK d   1       4.996   3.504  21.924  0.00  0.00     0.064 H 
ENDROOT
BRANCH   1  12
ATOM     12  N1  GSK d   1       5.899   7.829  22.185  0.00  0.00    -0.301 N 
ATOM     13  H7  GSK d   1       5.656   8.233  21.303  0.00  0.00     0.173 HD
BRANCH  12  14
ATOM     14  S1  GSK d   1       6.120   8.844  23.424  0.00  0.00     0.259 S 
ATOM     15  O2  GSK d   1       5.871  10.112  22.799  0.00  0.00    -0.201 OA
ATOM     16  O1  GSK d   1       5.350   8.440  24.568  0.00  0.00    -0.201 OA
BRANCH  14  17
ATOM     17  C6  GSK d   1       7.854   8.669  23.856  0.00  0.00     0.080 A 
ATOM     18  C5  GSK d   1       8.160   8.073  25.101  0.00  0.00    -0.050 A 
ATOM     19  C4  GSK d   1       9.511   7.873  25.470  0.00  0.00    -0.024 A 
ATOM     20  H3  GSK d   1       7.363   7.771  25.770  0.00  0.00     0.087 H 
ATOM     21  C3  GSK d   1       9.815   7.260  26.701  0.00  0.00    -0.071 A 
ATOM     22  C9  GSK d   1      10.571   8.316  24.551  0.00  0.00    -0.024 A 
ATOM     23  C2  GSK d   1      11.192   7.087  27.052  0.00  0.00    -0.061 A 
ATOM     24  H2  GSK d   1       9.026   6.928  27.366  0.00  0.00     0.084 H 
ATOM     25  C1  GSK d   1      12.228   7.497  26.166  0.00  0.00     0.034 A 
ATOM     26  H1  GSK d   1      11.449   6.638  28.005  0.00  0.00     0.086 H 
ATOM     27 CL1  GSK d   1      13.898   7.256  26.606  0.00  0.00    -0.084 Cl
ATOM     28  C10 GSK d   1      11.926   8.113  24.928  0.00  0.00    -0.051 A 
ATOM     29  H4  GSK d   1      12.726   8.429  24.269  0.00  0.00     0.087 H 
ATOM     30  C8  GSK d   1      10.250   8.911  23.299  0.00  0.00    -0.071 A 
ATOM     31  C7  GSK d   1       8.883   9.072  22.952  0.00  0.00    -0.059 A 
ATOM     32  H5  GSK d   1      11.034   9.235  22.624  0.00  0.00     0.084 H 
ATOM     33  H6  GSK d   1       8.618   9.504  21.994  0.00  0.00     0.085 H 
ENDBRANCH  14  17
ENDBRANCH  12  14
ENDBRANCH   1  12
BRANCH   6  34
ATOM     34  C16 GSK d   1       7.316   3.515  20.123  0.00  0.00     0.088 C 
ATOM     35  H13 GSK d   1       8.367   3.766  20.330  0.00  0.00     0.087 H 
BRANCH  34  36
ATOM     36  C17 GSK d   1       7.092   2.090  20.676  0.00  0.00    -0.049 C 
ATOM     37  H14 GSK d   1       7.705   1.375  20.107  0.00  0.00     0.030 H 
ATOM     38  H15 GSK d   1       6.030   1.821  20.578  0.00  0.00     0.030 H 
ATOM     39  H16 GSK d   1       7.382   2.058  21.737  0.00  0.00     0.030 H 
ENDBRANCH  34  36
BRANCH  34  40
ATOM     40  C18 GSK d   1       7.173   3.558  18.609  0.00  0.00     0.242 C 
ATOM     41  O4  GSK d   1       6.141   3.989  18.118  0.00  0.00    -0.271 OA
ATOM     42  N3  GSK d   1       8.235   3.165  17.851  0.00  0.00    -0.346 N 
ATOM     43  C19 GSK d   1       9.612   3.005  18.338  0.00  0.00     0.017 C 
ATOM     44  C23 GSK d   1       8.048   2.929  16.417  0.00  0.00     0.017 C 
ATOM     45  C20 GSK d   1      10.133   1.631  17.950  0.00  0.00     0.034 C 
ATOM     46  H17 GSK d   1       9.627   3.107  19.433  0.00  0.00     0.067 H 
ATOM     47  H18 GSK d   1      10.252   3.779  17.889  0.00  0.00     0.067 H 
ATOM     48  O5  GSK d   1      10.195   1.641  16.540  0.00  0.00    -0.388 OA
ATOM     49  H19 GSK d   1       9.447   0.846  18.300  0.00  0.00     0.076 H 
ATOM     50  H20 GSK d   1      11.132   1.463  18.378  0.00  0.00     0.076 H 
ATOM     51  C22 GSK d   1       8.920   1.777  15.893  0.00  0.00     0.034 C 
ATOM     52  H21 GSK d   1       8.365   0.838  16.032  0.00  0.00     0.076 H 
ATOM     53  H22 GSK d   1       9.097   1.943  14.820  0.00  0.00     0.076 H 
ATOM     54  H23 GSK d   1       8.311   3.847  15.871  0.00  0.00     0.067 H 
ATOM     55  H24 GSK d   1       6.992   2.683  16.235  0.00  0.00     0.067 H 
ENDBRANCH  34  40
ENDBRANCH   6  34
TORSDOF 6
