REMARK  9 active torsions:
REMARK  status: ('A' for Active; 'I' for Inactive)
REMARK    1  A    between atoms: N11_11  and  C10_10 
REMARK    2  A    between atoms: C25_22  and  N11_11 
REMARK    3  A    between atoms: C19_16  and  C20_17 
REMARK    4  A    between atoms: N36_33  and  C19_16 
REMARK    5  A    between atoms: C20_17  and  C21_18 
REMARK    6  A    between atoms: C21_18  and  C22_19 
REMARK    7  A    between atoms: C22_19  and  C23_20 
REMARK    8  A    between atoms: C23_20  and  C24_21 
REMARK    9  A    between atoms: C24_21  and  C25_22 
ROOT
ATOM      1  C22 AA7 d   1       0.198  65.589  69.918  0.00  0.00    -0.065 C 
ATOM      2  H20 AA7 d   1      -0.701  65.540  69.286  0.00  0.00     0.033 H 
ATOM      3  H21 AA7 d   1      -0.037  66.123  70.850  0.00  0.00     0.033 H 
ENDROOT
BRANCH   1   4
ATOM      4  C21 AA7 d   1       1.307  66.342  69.167  0.00  0.00    -0.064 C 
ATOM      5  H18 AA7 d   1       1.921  66.881  69.904  0.00  0.00     0.033 H 
ATOM      6  H19 AA7 d   1       1.930  65.605  68.640  0.00  0.00     0.033 H 
BRANCH   4   7
ATOM      7  C20 AA7 d   1       0.787  67.348  68.148  0.00  0.00    -0.050 C 
ATOM      8  H16 AA7 d   1      -0.268  67.117  67.940  0.00  0.00     0.035 H 
ATOM      9  H17 AA7 d   1       0.862  68.355  68.585  0.00  0.00     0.035 H 
BRANCH   7  10
ATOM     10  C19 AA7 d   1       1.552  67.339  66.825  0.00  0.00    -0.007 C 
ATOM     11  H14 AA7 d   1       0.845  67.145  66.005  0.00  0.00     0.063 H 
ATOM     12  H15 AA7 d   1       2.307  66.540  66.855  0.00  0.00     0.063 H 
BRANCH  10  13
ATOM     13  N36 AA7 d   1       2.232  68.635  66.577  0.00  0.00    -0.389 N 
ATOM     14  C35 AA7 d   1       3.419  68.740  65.917  0.00  0.00     0.049 A 
ATOM     15  C27 AA7 d   1       3.745  68.486  64.513  0.00  0.00    -0.006 A 
ATOM     16  C34 AA7 d   1       4.452  69.255  66.808  0.00  0.00     0.020 A 
ATOM     17  C26 AA7 d   1       5.067  68.809  64.034  0.00  0.00     0.043 A 
ATOM     18  C28 AA7 d   1       2.767  67.858  63.494  0.00  0.00    -0.037 C 
ATOM     19  C31 AA7 d   1       5.511  68.597  62.572  0.00  0.00    -0.024 C 
ATOM     20  N32 AA7 d   1       5.982  69.321  64.925  0.00  0.00    -0.252 NA
ATOM     21  C30 AA7 d   1       4.334  68.311  61.588  0.00  0.00    -0.060 C 
ATOM     22  H34 AA7 d   1       6.204  67.743  62.541  0.00  0.00     0.042 H 
ATOM     23  H35 AA7 d   1       6.032  69.504  62.233  0.00  0.00     0.042 H 
ATOM     24  C29 AA7 d   1       3.410  67.272  62.205  0.00  0.00    -0.061 C 
ATOM     25  H32 AA7 d   1       3.774  69.240  61.404  0.00  0.00     0.033 H 
ATOM     26  H33 AA7 d   1       4.734  67.930  60.637  0.00  0.00     0.033 H 
ATOM     27  H30 AA7 d   1       2.620  67.010  61.486  0.00  0.00     0.033 H 
ATOM     28  H31 AA7 d   1       3.988  66.371  62.459  0.00  0.00     0.033 H 
ATOM     29  C33 AA7 d   1       5.748  69.549  66.269  0.00  0.00     0.069 A 
ATOM     30  C42 AA7 d   1       6.791  70.079  67.049  0.00  0.00    -0.054 A 
ATOM     31  C41 AA7 d   1       6.582  70.336  68.402  0.00  0.00    -0.081 A 
ATOM     32  H40 AA7 d   1       7.755  70.287  66.599  0.00  0.00     0.087 H 
ATOM     33  C40 AA7 d   1       5.315  70.055  68.993  0.00  0.00    -0.082 A 
ATOM     34  H39 AA7 d   1       7.382  70.749  69.005  0.00  0.00     0.083 H 
ATOM     35  C39 AA7 d   1       4.280  69.526  68.223  0.00  0.00    -0.069 A 
ATOM     36  H38 AA7 d   1       5.156  70.254  70.047  0.00  0.00     0.083 H 
ATOM     37  H37 AA7 d   1       3.326  69.313  68.692  0.00  0.00     0.085 H 
ATOM     38  H28 AA7 d   1       2.052  68.637  63.190  0.00  0.00     0.040 H 
ATOM     39  H29 AA7 d   1       2.229  67.044  64.002  0.00  0.00     0.040 H 
ATOM     40  H36 AA7 d   1       1.785  69.497  66.921  0.00  0.00     0.159 HD
ENDBRANCH  10  13
ENDBRANCH   7  10
ENDBRANCH   4   7
ENDBRANCH   1   4
BRANCH   1  41
ATOM     41  C23 AA7 d   1       0.659  64.173  70.250  0.00  0.00    -0.064 C 
ATOM     42  H22 AA7 d   1       1.602  64.231  70.814  0.00  0.00     0.033 H 
ATOM     43  H23 AA7 d   1       0.827  63.627  69.310  0.00  0.00     0.033 H 
BRANCH  41  44
ATOM     44  C24 AA7 d   1      -0.357  63.415  71.078  0.00  0.00    -0.050 C 
ATOM     45  H24 AA7 d   1      -1.355  63.532  70.629  0.00  0.00     0.035 H 
ATOM     46  H25 AA7 d   1      -0.366  63.816  72.102  0.00  0.00     0.035 H 
BRANCH  44  47
ATOM     47  C25 AA7 d   1       0.010  61.936  71.117  0.00  0.00    -0.007 C 
ATOM     48  H26 AA7 d   1      -0.175  61.494  70.127  0.00  0.00     0.063 H 
ATOM     49  H27 AA7 d   1       1.076  61.837  71.369  0.00  0.00     0.063 H 
BRANCH  47  50
ATOM     50  N11 AA7 d   1      -0.792  61.213  72.125  0.00  0.00    -0.389 N 
ATOM     51  H9  AA7 d   1      -0.286  61.071  73.011  0.00  0.00     0.159 HD
BRANCH  50  52
ATOM     52  C10 AA7 d   1      -2.118  60.664  72.148  0.00  0.00     0.049 A 
ATOM     53  C2  AA7 d   1      -2.756  60.198  73.381  0.00  0.00    -0.006 A 
ATOM     54  C1  AA7 d   1      -4.120  59.743  73.369  0.00  0.00     0.043 A 
ATOM     55  C3  AA7 d   1      -2.016  60.171  74.680  0.00  0.00    -0.037 C 
ATOM     56  C6  AA7 d   1      -4.851  59.281  74.603  0.00  0.00    -0.024 C 
ATOM     57  N7  AA7 d   1      -4.815  59.692  72.180  0.00  0.00    -0.252 NA
ATOM     58  C5  AA7 d   1      -4.165  59.698  75.876  0.00  0.00    -0.060 C 
ATOM     59  H7  AA7 d   1      -4.917  58.183  74.582  0.00  0.00     0.042 H 
ATOM     60  H8  AA7 d   1      -5.864  59.709  74.593  0.00  0.00     0.042 H 
ATOM     61  C4  AA7 d   1      -2.669  59.334  75.782  0.00  0.00    -0.061 C 
ATOM     62  H5  AA7 d   1      -4.272  60.784  76.014  0.00  0.00     0.033 H 
ATOM     63  H6  AA7 d   1      -4.620  59.173  76.729  0.00  0.00     0.033 H 
ATOM     64  H3  AA7 d   1      -2.178  59.544  76.744  0.00  0.00     0.033 H 
ATOM     65  H4  AA7 d   1      -2.565  58.265  75.543  0.00  0.00     0.033 H 
ATOM     66  C8  AA7 d   1      -4.326  60.038  70.949  0.00  0.00     0.069 A 
ATOM     67  C9  AA7 d   1      -2.940  60.546  70.844  0.00  0.00     0.020 A 
ATOM     68  C17 AA7 d   1      -5.212  59.880  69.829  0.00  0.00    -0.054 A 
ATOM     69  C14 AA7 d   1      -2.532  60.850  69.476  0.00  0.00    -0.069 A 
ATOM     70  C15 AA7 d   1      -3.401  60.687  68.381  0.00  0.00    -0.082 A 
ATOM     71  H10 AA7 d   1      -1.526  61.213  69.297  0.00  0.00     0.085 H 
ATOM     72  C16 AA7 d   1      -4.757  60.203  68.538  0.00  0.00    -0.081 A 
ATOM     73  H11 AA7 d   1      -3.044  60.932  67.387  0.00  0.00     0.083 H 
ATOM     74  H12 AA7 d   1      -5.408  60.092  67.678  0.00  0.00     0.083 H 
ATOM     75  H13 AA7 d   1      -6.222  59.515  69.978  0.00  0.00     0.087 H 
ATOM     76  H1  AA7 d   1      -1.929  61.205  75.044  0.00  0.00     0.040 H 
ATOM     77  H2  AA7 d   1      -1.012  59.763  74.492  0.00  0.00     0.040 H 
ENDBRANCH  50  52
ENDBRANCH  47  50
ENDBRANCH  44  47
ENDBRANCH  41  44
ENDBRANCH   1  41
TORSDOF 9
