REMARK  7 active torsions:
REMARK  status: ('A' for Active; 'I' for Inactive)
REMARK    1  A    between atoms: C1_1  and  O7_7 
REMARK    2  A    between atoms: C4_4  and  C12_12 
REMARK    3  A    between atoms: O7_7  and  C8_8 
REMARK       I    between atoms: C12_12  and  N13_13 
REMARK    4  A    between atoms: N13_13  and  C15_15 
REMARK    5  A    between atoms: C15_15  and  C16_16 
REMARK    6  A    between atoms: C16_16  and  O17_17 
REMARK    7  A    between atoms: O17_17  and  P18_18 
ROOT
ATOM      1  C1  F6F d   1      51.350  23.479  14.944  0.00  0.00     0.078 A 
ATOM      2  C2  F6F d   1      50.087  23.557  15.612  0.00  0.00    -0.050 A 
ATOM      3  C3  F6F d   1      49.284  24.730  15.516  0.00  0.00    -0.065 A 
ATOM      4  C4  F6F d   1      49.707  25.875  14.746  0.00  0.00     0.032 A 
ATOM      5  C5  F6F d   1      50.982  25.827  14.043  0.00  0.00    -0.065 A 
ATOM      6  C6  F6F d   1      51.810  24.616  14.145  0.00  0.00    -0.050 A 
ATOM      7  H1  F6F d   1      49.737  22.714  16.198  0.00  0.00     0.087 H 
ATOM      8  H2  F6F d   1      48.332  24.763  16.034  0.00  0.00     0.085 H 
ATOM      9  H3  F6F d   1      51.316  26.673  13.453  0.00  0.00     0.085 H 
ATOM     10  H4  F6F d   1      52.761  24.565  13.628  0.00  0.00     0.087 H 
ENDROOT
BRANCH   4  11
ATOM     11  C12 F6F d   1      48.764  27.093  14.766  0.00  0.00     0.251 C 
ATOM     12  N13 F6F d   1      48.500  27.383  13.459  0.00  0.00    -0.355 N 
ATOM     13  H5  F6F d   1      48.978  26.979  12.679  0.00  0.00     0.162 HD
ATOM     14  O14 F6F d   1      47.757  26.938  15.445  0.00  0.00    -0.268 OA
BRANCH  12  15
ATOM     15  C15 F6F d   1      47.401  28.385  13.353  0.00  0.00     0.016 C 
ATOM     16  H6  F6F d   1      47.739  29.297  13.866  0.00  0.00     0.067 H 
ATOM     17  H7  F6F d   1      46.529  27.971  13.880  0.00  0.00     0.067 H 
BRANCH  15  18
ATOM     18  C16 F6F d   1      46.947  28.785  11.986  0.00  0.00     0.047 C 
ATOM     19  H8  F6F d   1      46.949  29.883  11.926  0.00  0.00     0.077 H 
ATOM     20  H9  F6F d   1      45.923  28.412  11.836  0.00  0.00     0.077 H 
BRANCH  18  21
ATOM     21  O17 F6F d   1      47.718  28.307  11.006  0.00  0.00    -0.281 OA
BRANCH  21  22
ATOM     22  P18 F6F d   1      47.967  29.499   9.941  0.00  0.00     0.422 P 
ATOM     23  O19 F6F d   1      48.245  28.883   8.588  0.00  0.00    -0.617 OA
ATOM     24  O20 F6F d   1      49.181  30.196  10.481  0.00  0.00    -0.617 OA
ATOM     25  O21 F6F d   1      46.631  30.219   9.862  0.00  0.00    -0.617 OA
ENDBRANCH  21  22
ENDBRANCH  18  21
ENDBRANCH  15  18
ENDBRANCH  12  15
ENDBRANCH   4  11
BRANCH   1  26
ATOM     26  O7  F6F d   1      52.164  22.367  15.048  0.00  0.00    -0.255 OA
BRANCH  26  27
ATOM     27  C8  F6F d   1      51.949  21.324  14.117  0.00  0.00     0.530 C 
ATOM     28  F9  F6F d   1      50.698  20.878  14.173  0.00  0.00    -0.144 F 
ATOM     29  F10 F6F d   1      52.749  20.300  14.378  0.00  0.00    -0.144 F 
ATOM     30  F11 F6F d   1      52.163  21.726  12.876  0.00  0.00    -0.144 F 
ENDBRANCH  26  27
ENDBRANCH   1  26
TORSDOF 7
