REMARK  8 active torsions:
REMARK  status: ('A' for Active; 'I' for Inactive)
REMARK    1  A    between atoms: C1_1  and  O7_7 
REMARK    2  A    between atoms: C4_4  and  S12_12 
REMARK    3  A    between atoms: O7_7  and  C8_8 
REMARK    4  A    between atoms: S12_12  and  N13_13 
REMARK    5  A    between atoms: N13_13  and  C14_14 
REMARK    6  A    between atoms: C14_14  and  C15_15 
REMARK    7  A    between atoms: C15_15  and  O16_16 
REMARK    8  A    between atoms: O16_16  and  P17_17 
ROOT
ATOM      1  S12 F9F d   1      48.529  27.323  15.680  0.00  0.00     0.258 S 
ATOM      2  O21 F9F d   1      48.604  27.589  17.094  0.00  0.00    -0.201 OA
ATOM      3  O22 F9F d   1      47.228  26.933  15.168  0.00  0.00    -0.201 OA
ENDROOT
BRANCH   1   4
ATOM      4  C4  F9F d   1      49.573  25.910  15.416  0.00  0.00     0.079 A 
ATOM      5  C3  F9F d   1      49.218  24.689  15.994  0.00  0.00    -0.058 A 
ATOM      6  C2  F9F d   1      49.982  23.489  15.826  0.00  0.00    -0.049 A 
ATOM      7  H2  F9F d   1      48.320  24.647  16.600  0.00  0.00     0.086 H 
ATOM      8  C1  F9F d   1      51.210  23.630  14.981  0.00  0.00     0.078 A 
ATOM      9  H1  F9F d   1      49.692  22.547  16.278  0.00  0.00     0.087 H 
ATOM     10  C6  F9F d   1      51.631  24.836  14.376  0.00  0.00    -0.049 A 
ATOM     11  C5  F9F d   1      50.863  26.001  14.550  0.00  0.00    -0.058 A 
ATOM     12  H4  F9F d   1      52.538  24.863  13.783  0.00  0.00     0.087 H 
ATOM     13  H3  F9F d   1      51.161  26.938  14.093  0.00  0.00     0.086 H 
BRANCH   8  14
ATOM     14  O7  F9F d   1      52.068  22.591  14.699  0.00  0.00    -0.255 OA
BRANCH  14  15
ATOM     15  C8  F9F d   1      51.589  21.250  14.645  0.00  0.00     0.530 C 
ATOM     16  F9F F9F d   1      52.557  20.446  14.189  0.00  0.00    -0.144 F 
ATOM     17  F10 F9F d   1      50.544  21.095  13.821  0.00  0.00    -0.144 F 
ATOM     18  F11 F9F d   1      51.234  20.776  15.854  0.00  0.00    -0.144 F 
ENDBRANCH  14  15
ENDBRANCH   8  14
ENDBRANCH   1   4
BRANCH   1  19
ATOM     19  N13 F9F d   1      49.147  28.669  14.793  0.00  0.00    -0.313 N 
ATOM     20  H5  F9F d   1      49.454  29.496  15.263  0.00  0.00     0.172 HD
BRANCH  19  21
ATOM     21  C14 F9F d   1      49.212  28.564  13.291  0.00  0.00     0.023 C 
ATOM     22  H6  F9F d   1      49.521  27.541  13.028  0.00  0.00     0.068 H 
ATOM     23  H7  F9F d   1      49.964  29.279  12.926  0.00  0.00     0.068 H 
BRANCH  21  24
ATOM     24  C15 F9F d   1      47.946  28.847  12.622  0.00  0.00     0.048 C 
ATOM     25  H8  F9F d   1      47.752  29.929  12.654  0.00  0.00     0.077 H 
ATOM     26  H9  F9F d   1      47.135  28.313  13.139  0.00  0.00     0.077 H 
BRANCH  24  27
ATOM     27  O16 F9F d   1      48.002  28.411  11.239  0.00  0.00    -0.281 OA
BRANCH  27  28
ATOM     28  P17 F9F d   1      48.262  29.510  10.011  0.00  0.00     0.422 P 
ATOM     29  O18 F9F d   1      49.475  30.419  10.399  0.00  0.00    -0.617 OA
ATOM     30  O19 F9F d   1      48.543  28.703   8.777  0.00  0.00    -0.617 OA
ATOM     31  O20 F9F d   1      46.945  30.270   9.879  0.00  0.00    -0.617 OA
ENDBRANCH  27  28
ENDBRANCH  24  27
ENDBRANCH  21  24
ENDBRANCH  19  21
ENDBRANCH   1  19
TORSDOF 8
