REMARK  6 active torsions:
REMARK  status: ('A' for Active; 'I' for Inactive)
REMARK    1  A    between atoms: S11_11  and  C3_3 
REMARK    2  A    between atoms: N1_17  and  S11_11 
REMARK    3  A    between atoms: C16_14  and  O17_15 
REMARK    4  A    between atoms: C18_16  and  C16_14 
REMARK    5  A    between atoms: O17_15  and  P_20 
REMARK    6  A    between atoms: C18_16  and  N1_17 
ROOT
ATOM      1  C1  F19 d   1      51.804  24.829  14.993  0.00  0.00    -0.071 C 
ATOM      2  C2  F19 d   1      50.982  25.881  15.406  0.00  0.00    -0.059 C 
ATOM      3  C3  F19 d   1      49.557  25.695  15.614  0.00  0.00     0.080 C 
ATOM      4  C4  F19 d   1      49.065  24.378  15.629  0.00  0.00    -0.050 C 
ATOM      5  C5  F19 d   1      49.862  23.271  15.166  0.00  0.00    -0.025 C 
ATOM      6  C6  F19 d   1      51.290  23.479  14.939  0.00  0.00    -0.026 C 
ATOM      7  C7  F19 d   1      52.159  22.352  14.676  0.00  0.00    -0.072 C 
ATOM      8  C8  F19 d   1      51.363  21.043  14.301  0.00  0.00    -0.082 C 
ATOM      9  C9  F19 d   1      50.089  20.764  14.883  0.00  0.00    -0.082 C 
ATOM     10  C10 F19 d   1      49.278  21.974  14.909  0.00  0.00    -0.072 C 
ATOM     11  H1  F19 d   1      52.832  25.026  14.712  0.00  0.00     0.084 H 
ATOM     12  H2  F19 d   1      51.418  26.859  15.575  0.00  0.00     0.085 H 
ATOM     13  H3  F19 d   1      48.063  24.191  15.998  0.00  0.00     0.087 H 
ATOM     14  H4  F19 d   1      53.240  22.402  14.731  0.00  0.00     0.084 H 
ATOM     15  H5  F19 d   1      51.790  20.344  13.591  0.00  0.00     0.083 H 
ATOM     16  H6  F19 d   1      49.772  19.795  15.251  0.00  0.00     0.083 H 
ATOM     17  H7  F19 d   1      48.211  21.900  14.731  0.00  0.00     0.084 H 
ENDROOT
BRANCH   3  18
ATOM     18  S11 F19 d   1      48.471  27.128  15.845  0.00  0.00     0.258 S 
ATOM     19  O12 F19 d   1      47.107  26.616  15.831  0.00  0.00    -0.201 OA
ATOM     20  O13 F19 d   1      48.836  27.744  17.104  0.00  0.00    -0.201 OA
BRANCH  18  21
ATOM     21  N1  F19 d   1      48.698  28.307  14.648  0.00  0.00    -0.313 N 
ATOM     22  H12 F19 d   1      48.731  29.280  14.877  0.00  0.00     0.172 HD
BRANCH  21  23
ATOM     23  C18 F19 d   1      48.844  27.848  13.269  0.00  0.00     0.023 C 
ATOM     24  H10 F19 d   1      49.866  28.059  12.923  0.00  0.00     0.068 H 
ATOM     25  H11 F19 d   1      48.659  26.765  13.226  0.00  0.00     0.068 H 
BRANCH  23  26
ATOM     26  C16 F19 d   1      47.853  28.561  12.368  0.00  0.00     0.048 C 
ATOM     27  H8  F19 d   1      46.829  28.247  12.617  0.00  0.00     0.077 H 
ATOM     28  H9  F19 d   1      47.945  29.649  12.498  0.00  0.00     0.077 H 
BRANCH  26  29
ATOM     29  O17 F19 d   1      48.151  28.210  11.030  0.00  0.00    -0.281 OA
BRANCH  29  30
ATOM     30  P   F19 d   1      48.401  29.388   9.941  0.00  0.00     0.422 P 
ATOM     31  O20 F19 d   1      49.586  30.162  10.477  0.00  0.00    -0.617 OA
ATOM     32  O21 F19 d   1      48.757  28.708   8.717  0.00  0.00    -0.617 OA
ATOM     33  O22 F19 d   1      47.407  30.347   9.648  0.00  0.00    -0.617 OA
ENDBRANCH  29  30
ENDBRANCH  26  29
ENDBRANCH  23  26
ENDBRANCH  21  23
ENDBRANCH  18  21
ENDBRANCH   3  18
TORSDOF 6
