REMARK WARNING: 32 MAX_TORS EXCEEDED!!!
REMARK  38 active torsions:
REMARK  status: ('A' for Active; 'I' for Inactive)
REMARK    1  A    between atoms: N_1  and  CA_2 
REMARK    2  A    between atoms: CA_2  and  C_3 
REMARK    3  A    between atoms: CA_2  and  CB_5 
REMARK       I    between atoms: C_3  and  N_7 
REMARK    4  A    between atoms: CB_5  and  OG_6 
REMARK    5  A    between atoms: N_7  and  CA_8 
REMARK    6  A    between atoms: CA_8  and  C_9 
REMARK    7  A    between atoms: CA_8  and  CB_11 
REMARK       I    between atoms: C_9  and  N_16 
REMARK    8  A    between atoms: CB_11  and  CG_12 
REMARK    9  A    between atoms: CG_12  and  CD_13 
REMARK       I    between atoms: CD_13  and  NE2_15 
REMARK   10  A    between atoms: N_16  and  CA_17 
REMARK   11  A    between atoms: CA_17  and  C_18 
REMARK   12  A    between atoms: CA_17  and  CB_20 
REMARK       I    between atoms: C_18  and  N_28 
REMARK   13  A    between atoms: CB_20  and  CG_21 
REMARK   14  A    between atoms: CZ_26  and  OH_27 
REMARK   15  A    between atoms: N_28  and  CA_29 
REMARK   16  A    between atoms: CA_29  and  C_30 
REMARK   17  A    between atoms: CA_29  and  CB_32 
REMARK       I    between atoms: C_30  and  N_40 
REMARK   18  A    between atoms: CB_32  and  CG_33 
REMARK   19  A    between atoms: CZ_38  and  OH_39 
REMARK   20  A    between atoms: N_40  and  CA_41 
REMARK   21  A    between atoms: CA_41  and  C_42 
REMARK   22  A    between atoms: CA_41  and  CB_44 
REMARK       I    between atoms: C_42  and  N_52 
REMARK   23  A    between atoms: CB_44  and  CG_45 
REMARK   24  A    between atoms: CZ_50  and  OH_51 
REMARK   25  A    between atoms: N_52  and  CA_53 
REMARK   26  A    between atoms: CA_53  and  C_54 
REMARK   27  A    between atoms: CA_53  and  CB_56 
REMARK       I    between atoms: C_54  and  N_60 
REMARK   28  A    between atoms: CB_56  and  CG_57 
REMARK       I    between atoms: CG_57  and  ND2_59 
REMARK   29  A    between atoms: N_60  and  CA_61 
REMARK   30  A    between atoms: CA_61  and  C_62 
REMARK   31  A    between atoms: CA_61  and  CB_64 
REMARK       I    between atoms: C_62  and  N_66 
REMARK   32  A    between atoms: CB_64  and  OG_65 
REMARK   33  A    between atoms: N_66  and  CA_67 
REMARK   34  A    between atoms: CA_67  and  C_68 
REMARK   35  A    between atoms: CA_67  and  CB_70 
REMARK   36  A    between atoms: CB_70  and  CG_71 
REMARK   37  A    between atoms: CG_71  and  CD1_72 
REMARK   38  A    between atoms: CG_71  and  CD2_73 
ROOT
ATOM      1  CA  TYR d   1      21.673  49.784   8.734  0.00  0.00     0.093 C 
ATOM      2  H26 TYR d   1      21.544  49.432   9.768  0.00  0.00     0.088 H 
ENDROOT
BRANCH   1   3
ATOM      3  N   TYR d   1      20.606  49.184   7.949  0.00  0.00    -0.346 N 
ATOM      4  C   TYR d   1      19.423  48.972   8.530  0.00  0.00     0.241 C 
ATOM      5  O   TYR d   1      19.250  49.097   9.746  0.00  0.00    -0.271 OA
ATOM      6  H25 TYR d   1      20.756  48.935   6.992  0.00  0.00     0.163 HD
BRANCH   4   7
ATOM      7  CA  TYR d   1      18.267  48.547   7.627  0.00  0.00     0.093 C 
ATOM      8  H17 TYR d   1      18.666  48.211   6.659  0.00  0.00     0.088 H 
BRANCH   7   9
ATOM      9  N   TYR d   1      17.522  47.449   8.241  0.00  0.00    -0.346 N 
ATOM     10  C   GLN d   1      18.034  46.230   8.361  0.00  0.00     0.241 C 
ATOM     11  O   GLN d   1      19.056  45.873   7.767  0.00  0.00    -0.271 OA
ATOM     12  H16 TYR d   1      16.598  47.622   8.581  0.00  0.00     0.163 HD
BRANCH  10  13
ATOM     13  CA  GLN d   1      17.295  45.274   9.298  0.00  0.00     0.090 C 
ATOM     14  H9  GLN d   1      16.270  45.654   9.425  0.00  0.00     0.087 H 
BRANCH  13  15
ATOM     15  N   GLN d   1      17.202  43.924   8.752  0.00  0.00    -0.346 N 
ATOM     16  C   SER d   1      16.462  43.685   7.676  0.00  0.00     0.251 C 
ATOM     17  O   SER d   1      15.846  44.579   7.068  0.00  0.00    -0.271 OA
ATOM     18  H8  GLN d   1      17.698  43.175   9.191  0.00  0.00     0.163 HD
BRANCH  16  19
ATOM     19  CA  SER d   1      16.396  42.230   7.220  0.00  0.00     0.195 C 
ATOM     20  H4  SER d   1      16.984  41.612   7.915  0.00  0.00     0.102 H 
BRANCH  19  21
ATOM     21  N   SER d   1      14.987  41.767   7.237  0.00  0.00    -0.064 N 
ATOM     22  H1  SER d   1      14.945  40.806   6.936  0.00  0.00     0.275 HD
ATOM     23  H2  SER d   1      14.438  42.339   6.614  0.00  0.00     0.275 HD
ATOM     24  H3  SER d   1      14.620  41.842   8.173  0.00  0.00     0.275 HD
ENDBRANCH  19  21
BRANCH  19  25
ATOM     25  CB  SER d   1      16.983  42.084   5.812  0.00  0.00     0.051 C 
ATOM     26  H5  SER d   1      16.470  42.783   5.136  0.00  0.00     0.077 H 
ATOM     27  H6  SER d   1      16.825  41.053   5.463  0.00  0.00     0.077 H 
BRANCH  25  28
ATOM     28  OG  SER d   1      18.371  42.367   5.801  0.00  0.00    -0.398 OA
ATOM     29  H7  SER d   1      18.706  42.269   4.918  0.00  0.00     0.209 HD
ENDBRANCH  25  28
ENDBRANCH  19  25
ENDBRANCH  16  19
ENDBRANCH  13  15
BRANCH  13  30
ATOM     30  CB  GLN d   1      17.967  45.255  10.671  0.00  0.00    -0.030 C 
ATOM     31  H10 GLN d   1      19.016  44.950  10.540  0.00  0.00     0.037 H 
ATOM     32  H11 GLN d   1      17.447  44.519  11.302  0.00  0.00     0.037 H 
BRANCH  30  33
ATOM     33  CG  GLN d   1      17.942  46.617  11.390  0.00  0.00     0.011 C 
ATOM     34  H12 GLN d   1      16.970  46.724  11.894  0.00  0.00     0.047 H 
ATOM     35  H13 GLN d   1      18.052  47.409  10.634  0.00  0.00     0.047 H 
BRANCH  33  36
ATOM     36  CD  GLN d   1      19.052  46.794  12.439  0.00  0.00     0.215 C 
ATOM     37  OE1 GLN d   1      19.768  47.803  12.433  0.00  0.00    -0.274 OA
ATOM     38  NE2 GLN d   1      19.189  45.826  13.339  0.00  0.00    -0.370 N 
ATOM     39  H14 GLN d   1      19.896  45.894  14.043  0.00  0.00     0.159 HD
ATOM     40  H15 GLN d   1      18.585  45.030  13.313  0.00  0.00     0.159 HD
ENDBRANCH  33  36
ENDBRANCH  30  33
ENDBRANCH  13  30
ENDBRANCH  10  13
ENDBRANCH   7   9
BRANCH   7  41
ATOM     41  CB  TYR d   1      17.352  49.749   7.406  0.00  0.00    -0.014 C 
ATOM     42  H18 TYR d   1      17.064  50.146   8.390  0.00  0.00     0.043 H 
ATOM     43  H19 TYR d   1      16.454  49.403   6.873  0.00  0.00     0.043 H 
BRANCH  41  44
ATOM     44  CG  TYR d   1      17.969  50.870   6.609  0.00  0.00    -0.056 A 
ATOM     45  CD1 TYR d   1      18.099  52.158   7.150  0.00  0.00    -0.074 A 
ATOM     46  CE1 TYR d   1      18.649  53.180   6.406  0.00  0.00    -0.051 A 
ATOM     47  H20 TYR d   1      17.764  52.351   8.163  0.00  0.00     0.084 H 
ATOM     48  CZ  TYR d   1      19.080  52.921   5.103  0.00  0.00     0.065 A 
ATOM     49  H22 TYR d   1      18.746  54.174   6.828  0.00  0.00     0.087 H 
ATOM     50  CE2 TYR d   1      18.961  51.665   4.556  0.00  0.00    -0.051 A 
ATOM     51  CD2 TYR d   1      18.408  50.654   5.300  0.00  0.00    -0.074 A 
ATOM     52  H23 TYR d   1      19.302  51.475   3.545  0.00  0.00     0.087 H 
ATOM     53  H21 TYR d   1      18.309  49.667   4.863  0.00  0.00     0.084 H 
BRANCH  48  54
ATOM     54  OH  TYR d   1      19.629  53.917   4.340  0.00  0.00    -0.361 OA
ATOM     55  H24 TYR d   1      19.649  54.724   4.841  0.00  0.00     0.217 HD
ENDBRANCH  48  54
ENDBRANCH  41  44
ENDBRANCH   7  41
ENDBRANCH   4   7
ENDBRANCH   1   3
BRANCH   1  56
ATOM     56  C   TYR d   1      21.531  51.302   8.745  0.00  0.00     0.241 C 
ATOM     57  O   TYR d   1      21.834  51.965   7.755  0.00  0.00    -0.271 OA
ATOM     58  N   TYR d   1      21.086  51.834   9.883  0.00  0.00    -0.346 N 
ATOM     59  H34 TYR d   1      21.001  51.243  10.685  0.00  0.00     0.163 HD
BRANCH  58  60
ATOM     60  CA  TYR d   1      20.714  53.252  10.013  0.00  0.00     0.093 C 
ATOM     61  H35 TYR d   1      20.060  53.487   9.160  0.00  0.00     0.088 H 
BRANCH  60  62
ATOM     62  C   TYR d   1      21.898  54.213   9.941  0.00  0.00     0.241 C 
ATOM     63  O   TYR d   1      22.999  53.896  10.416  0.00  0.00    -0.271 OA
ATOM     64  N   ASN d   1      21.651  55.383   9.341  0.00  0.00    -0.346 N 
ATOM     65  H43 ASN d   1      20.765  55.514   8.897  0.00  0.00     0.163 HD
BRANCH  64  66
ATOM     66  CA  ASN d   1      22.619  56.478   9.306  0.00  0.00     0.097 C 
ATOM     67  H44 ASN d   1      23.624  56.067   9.130  0.00  0.00     0.088 H 
BRANCH  66  68
ATOM     68  C   ASN d   1      22.594  57.190  10.659  0.00  0.00     0.241 C 
ATOM     69  O   ASN d   1      21.800  56.837  11.543  0.00  0.00    -0.271 OA
ATOM     70  N   SER d   1      23.454  58.193  10.809  0.00  0.00    -0.344 N 
ATOM     71  H49 SER d   1      24.061  58.425  10.049  0.00  0.00     0.163 HD
BRANCH  70  72
ATOM     72  CA  SER d   1      23.545  58.965  12.036  0.00  0.00     0.109 C 
ATOM     73  H50 SER d   1      23.121  58.368  12.857  0.00  0.00     0.090 H 
BRANCH  72  74
ATOM     74  C   SER d   1      22.750  60.254  11.913  0.00  0.00     0.243 C 
ATOM     75  O   SER d   1      22.574  60.787  10.815  0.00  0.00    -0.271 OA
ATOM     76  N   LEU d   1      22.276  60.743  13.056  0.00  0.00    -0.345 N 
ATOM     77  H54 LEU d   1      22.446  60.240  13.904  0.00  0.00     0.163 HD
BRANCH  76  78
ATOM     78  CA  LEU d   1      21.522  61.979  13.115  0.00  0.00     0.096 C 
ATOM     79  H55 LEU d   1      20.921  62.067  12.198  0.00  0.00     0.089 H 
BRANCH  78  80
ATOM     80  C   LEU d   1      22.467  63.174  13.186  0.00  0.00     0.196 C 
ATOM     81  O   LEU d   1      23.622  63.036  13.614  0.00  0.00    -0.646 OA
ATOM     82  OXT LEU d   1      22.096  64.293  12.812  0.00  0.00    -0.646 OA
ENDBRANCH  78  80
BRANCH  78  83
ATOM     83  CB  LEU d   1      20.565  61.953  14.324  0.00  0.00    -0.034 C 
ATOM     84  H56 LEU d   1      20.049  62.923  14.365  0.00  0.00     0.037 H 
ATOM     85  H57 LEU d   1      21.173  61.823  15.231  0.00  0.00     0.037 H 
BRANCH  83  86
ATOM     86  CG  LEU d   1      19.493  60.851  14.315  0.00  0.00    -0.059 C 
ATOM     87  H58 LEU d   1      20.012  59.884  14.391  0.00  0.00     0.038 H 
BRANCH  86  88
ATOM     88  CD1 LEU d   1      18.561  60.982  15.516  0.00  0.00    -0.073 C 
ATOM     89  H59 LEU d   1      17.806  60.182  15.483  0.00  0.00     0.028 H 
ATOM     90  H60 LEU d   1      18.060  61.961  15.486  0.00  0.00     0.028 H 
ATOM     91  H61 LEU d   1      19.145  60.897  16.444  0.00  0.00     0.028 H 
ENDBRANCH  86  88
BRANCH  86  92
ATOM     92  CD2 LEU d   1      18.681  60.842  13.025  0.00  0.00    -0.073 C 
ATOM     93  H62 LEU d   1      19.360  60.747  12.165  0.00  0.00     0.028 H 
ATOM     94  H63 LEU d   1      18.113  61.781  12.942  0.00  0.00     0.028 H 
ATOM     95  H64 LEU d   1      17.983  59.992  13.037  0.00  0.00     0.028 H 
ENDBRANCH  86  92
ENDBRANCH  83  86
ENDBRANCH  78  83
ENDBRANCH  76  78
ENDBRANCH  72  74
BRANCH  72  96
ATOM     96  CB  SER d   1      25.009  59.278  12.365  0.00  0.00     0.044 C 
ATOM     97  H51 SER d   1      25.050  59.940  13.243  0.00  0.00     0.077 H 
ATOM     98  H52 SER d   1      25.475  59.780  11.505  0.00  0.00     0.077 H 
BRANCH  96  99
ATOM     99  OG  SER d   1      25.714  58.083  12.647  0.00  0.00    -0.398 OA
ATOM    100  H53 SER d   1      25.314  57.649  13.391  0.00  0.00     0.209 HD
ENDBRANCH  96  99
ENDBRANCH  72  96
ENDBRANCH  70  72
ENDBRANCH  66  68
BRANCH  66 101
ATOM    101  CB  ASN d   1      22.282  57.471   8.174  0.00  0.00     0.036 C 
ATOM    102  H45 ASN d   1      21.653  58.272   8.589  0.00  0.00     0.051 H 
ATOM    103  H46 ASN d   1      21.724  56.934   7.393  0.00  0.00     0.051 H 
BRANCH 101 104
ATOM    104  CG  ASN d   1      23.529  58.112   7.530  0.00  0.00     0.217 C 
ATOM    105  OD1 ASN d   1      23.634  58.183   6.302  0.00  0.00    -0.274 OA
ATOM    106  ND2 ASN d   1      24.460  58.586   8.349  0.00  0.00    -0.370 N 
ATOM    107  H47 ASN d   1      25.285  59.010   7.976  0.00  0.00     0.159 HD
ATOM    108  H48 ASN d   1      24.336  58.519   9.339  0.00  0.00     0.159 HD
ENDBRANCH 101 104
ENDBRANCH  66 101
ENDBRANCH  64  66
ENDBRANCH  60  62
BRANCH  60 109
ATOM    109  CB  TYR d   1      19.899  53.496  11.302  0.00  0.00    -0.014 C 
ATOM    110  H36 TYR d   1      19.685  54.572  11.381  0.00  0.00     0.043 H 
ATOM    111  H37 TYR d   1      20.505  53.178  12.163  0.00  0.00     0.043 H 
BRANCH 109 112
ATOM    112  CG  TYR d   1      18.588  52.743  11.333  0.00  0.00    -0.056 A 
ATOM    113  CD1 TYR d   1      17.450  53.269  10.733  0.00  0.00    -0.074 A 
ATOM    114  CE1 TYR d   1      16.238  52.573  10.746  0.00  0.00    -0.051 A 
ATOM    115  H38 TYR d   1      17.503  54.236  10.246  0.00  0.00     0.084 H 
ATOM    116  CZ  TYR d   1      16.166  51.328  11.349  0.00  0.00     0.065 A 
ATOM    117  H40 TYR d   1      15.357  53.006  10.286  0.00  0.00     0.087 H 
ATOM    118  CE2 TYR d   1      17.284  50.776  11.953  0.00  0.00    -0.051 A 
ATOM    119  CD2 TYR d   1      18.495  51.486  11.938  0.00  0.00    -0.074 A 
ATOM    120  H41 TYR d   1      17.224  49.806  12.432  0.00  0.00     0.087 H 
ATOM    121  H39 TYR d   1      19.373  51.052  12.403  0.00  0.00     0.084 H 
BRANCH 116 122
ATOM    122  OH  TYR d   1      14.978  50.639  11.342  0.00  0.00    -0.361 OA
ATOM    123  H42 TYR d   1      14.318  51.153  10.892  0.00  0.00     0.217 HD
ENDBRANCH 116 122
ENDBRANCH 109 112
ENDBRANCH  60 109
ENDBRANCH  58  60
ENDBRANCH   1  56
BRANCH   1 124
ATOM    124  CB  TYR d   1      23.085  49.370   8.299  0.00  0.00    -0.014 C 
ATOM    125  H27 TYR d   1      23.349  49.886   7.364  0.00  0.00     0.043 H 
ATOM    126  H28 TYR d   1      23.118  48.282   8.139  0.00  0.00     0.043 H 
BRANCH 124 127
ATOM    127  CG  TYR d   1      24.062  49.751   9.378  0.00  0.00    -0.056 A 
ATOM    128  CD1 TYR d   1      24.186  48.966  10.532  0.00  0.00    -0.074 A 
ATOM    129  CE1 TYR d   1      25.061  49.325  11.564  0.00  0.00    -0.051 A 
ATOM    130  H29 TYR d   1      23.593  48.064  10.627  0.00  0.00     0.084 H 
ATOM    131  CZ  TYR d   1      25.808  50.491  11.455  0.00  0.00     0.065 A 
ATOM    132  H31 TYR d   1      25.155  48.697  12.443  0.00  0.00     0.087 H 
ATOM    133  CE2 TYR d   1      25.684  51.311  10.327  0.00  0.00    -0.051 A 
ATOM    134  CD2 TYR d   1      24.799  50.934   9.298  0.00  0.00    -0.074 A 
ATOM    135  H32 TYR d   1      26.262  52.225  10.246  0.00  0.00     0.087 H 
ATOM    136  H30 TYR d   1      24.688  51.573   8.430  0.00  0.00     0.084 H 
BRANCH 131 137
ATOM    137  OH  TYR d   1      26.658  50.855  12.481  0.00  0.00    -0.361 OA
ATOM    138  H33 TYR d   1      26.386  51.694  12.834  0.00  0.00     0.217 HD
ENDBRANCH 131 137
ENDBRANCH 124 127
ENDBRANCH   1 124
TORSDOF 38
