REMARK  5 active torsions:
REMARK  status: ('A' for Active; 'I' for Inactive)
REMARK    1  A    between atoms: C3_1  and  O3_4 
REMARK    2  A    between atoms: C5_5  and  N9_8 
REMARK    3  A    between atoms: N13_9  and  C14_10 
REMARK    4  A    between atoms: C19_11  and  N16_12 
REMARK    5  A    between atoms: C15_15  and  N18_16 
ROOT
ATOM      1  N9  F18 d   1      26.756  28.534   8.859  0.00  0.00    -0.150 NA
ATOM      2  N13 F18 d   1      27.696  28.612   8.075  0.00  0.00    -0.142 NA
ENDROOT
BRANCH   1   3
ATOM      3  C5  F18 d   1      25.846  29.376   9.307  0.00  0.00     0.079 A 
ATOM      4  C2  F18 d   1      25.613  30.682   8.889  0.00  0.00    -0.051 A 
ATOM      5  C6  F18 d   1      24.563  31.344   9.507  0.00  0.00    -0.049 A 
ATOM      6  H2  F18 d   1      26.218  31.155   8.124  0.00  0.00     0.087 H 
ATOM      7  C3  F18 d   1      23.768  30.740  10.477  0.00  0.00     0.065 A 
ATOM      8  H1  F18 d   1      24.354  32.369   9.224  0.00  0.00     0.087 H 
ATOM      9  C1  F18 d   1      24.015  29.440  10.880  0.00  0.00    -0.049 A 
ATOM     10  C4  F18 d   1      25.065  28.773  10.285  0.00  0.00    -0.051 A 
ATOM     11  H5  F18 d   1      23.404  28.962  11.637  0.00  0.00     0.087 H 
ATOM     12  H4  F18 d   1      25.286  27.756  10.587  0.00  0.00     0.087 H 
BRANCH   7  13
ATOM     13  O3  F18 d   1      22.746  31.400  11.088  0.00  0.00    -0.361 OA
ATOM     14  H3  F18 d   1      23.088  32.163  11.539  0.00  0.00     0.217 HD
ENDBRANCH   7  13
ENDBRANCH   1   3
BRANCH   2  15
ATOM     15  C14 F18 d   1      28.282  29.560   7.346  0.00  0.00     0.170 A 
ATOM     16  C19 F18 d   1      28.135  30.903   6.992  0.00  0.00     0.176 A 
ATOM     17  N20 F18 d   1      29.158  31.164   6.202  0.00  0.00    -0.153 NA
ATOM     18  N17 F18 d   1      29.900  30.195   5.998  0.00  0.00    -0.259 N 
ATOM     19  C15 F18 d   1      29.431  29.164   6.685  0.00  0.00     0.150 A 
ATOM     20  H8  F18 d   1      30.737  30.191   5.398  0.00  0.00     0.191 HD
BRANCH  16  21
ATOM     21  N16 F18 d   1      27.262  31.837   7.342  0.00  0.00    -0.381 N 
ATOM     22  H6  F18 d   1      27.340  32.787   6.951  0.00  0.00     0.157 HD
ATOM     23  H7  F18 d   1      26.506  31.613   8.005  0.00  0.00     0.157 HD
ENDBRANCH  16  21
BRANCH  19  24
ATOM     24  N18 F18 d   1      29.990  27.959   6.715  0.00  0.00    -0.382 N 
ATOM     25  H9  F18 d   1      29.563  27.207   7.275  0.00  0.00     0.157 HD
ATOM     26  H10 F18 d   1      30.850  27.777   6.178  0.00  0.00     0.157 HD
ENDBRANCH  19  24
ENDBRANCH   2  15
TORSDOF 5
