REMARK  2 active torsions:
REMARK  status: ('A' for Active; 'I' for Inactive)
REMARK    1  A    between atoms: C1_1  and  C10_9 
REMARK    2  A    between atoms: C14_13  and  O1_15 
ROOT
ATOM      1  C10 F16 d   1      45.965  14.412   3.023  0.00  0.00    -0.010 A 
ATOM      2  C11 F16 d   1      44.752  14.661   2.232  0.00  0.00    -0.071 A 
ATOM      3  C12 F16 d   1      44.248  13.625   1.313  0.00  0.00    -0.080 A 
ATOM      4  C13 F16 d   1      44.957  12.340   1.185  0.00  0.00    -0.051 A 
ATOM      5  C14 F16 d   1      46.170  12.093   1.976  0.00  0.00     0.066 A 
ATOM      6  C15 F16 d   1      46.678  13.125   2.895  0.00  0.00    -0.040 A 
ATOM      7  H3  F16 d   1      44.228  15.606   2.324  0.00  0.00     0.084 H 
ATOM      8  H4  F16 d   1      43.353  13.809   0.730  0.00  0.00     0.083 H 
ATOM      9  H5  F16 d   1      44.585  11.579   0.509  0.00  0.00     0.087 H 
ATOM     10  H6  F16 d   1      47.574  12.941   3.477  0.00  0.00     0.089 H 
ENDROOT
BRANCH   1  11
ATOM     11  C1  F16 d   1      46.462  15.434   3.940  0.00  0.00     0.095 A 
ATOM     12  C3  F16 d   1      47.668  16.183   3.716  0.00  0.00     0.007 A 
ATOM     13  C4  F16 d   1      47.832  17.077   4.851  0.00  0.00     0.256 A 
ATOM     14  H1  F16 d   1      48.333  16.097   2.858  0.00  0.00     0.094 H 
ATOM     15  N5  F16 d   1      46.843  17.034   5.871  0.00  0.00    -0.247 N 
ATOM     16  O9  F16 d   1      48.788  17.838   4.928  0.00  0.00    -0.268 OA
ATOM     17  S6  F16 d   1      45.624  15.850   5.468  0.00  0.00     0.266 S 
ATOM     18  H2  F16 d   1      46.845  17.598   6.697  0.00  0.00     0.182 HD
ATOM     19  O7  F16 d   1      44.034  16.507   5.185  0.00  0.00    -0.200 OA
ATOM     20  O8  F16 d   1      45.645  14.468   6.418  0.00  0.00    -0.200 OA
ENDBRANCH   1  11
BRANCH   5  21
ATOM     21  O1  F16 d   1      46.820  10.924   1.861  0.00  0.00    -0.361 OA
ATOM     22  H7  F16 d   1      47.707  11.084   1.562  0.00  0.00     0.217 HD
ENDBRANCH   5  21
TORSDOF 2
