REMARK  10 active torsions:
REMARK  status: ('A' for Active; 'I' for Inactive)
REMARK    1  A    between atoms: C1_1  and  C11_9 
REMARK    2  A    between atoms: C14_12  and  C21_15 
REMARK    3  A    between atoms: C21_15  and  C22_16 
REMARK    4  A    between atoms: C22_16  and  C25_17 
REMARK    5  A    between atoms: C22_16  and  N45_20 
REMARK       I    between atoms: C25_17  and  N27_19 
REMARK       I    between atoms: N45_20  and  C47_21 
REMARK    6  A    between atoms: C47_21  and  C48_22 
REMARK    7  A    between atoms: C48_22  and  N51_24 
REMARK    8  A    between atoms: C48_22  and  C4_25 
REMARK       I    between atoms: N51_24  and  C67_32 
REMARK    9  A    between atoms: C4_25  and  C5_26 
REMARK   10  A    between atoms: C67_32  and  C71_34 
ROOT
ATOM      1  N45 F20 d   1      18.011  -5.128  -7.427  0.00  0.00    -0.346 N 
ATOM      2  C47 F20 d   1      18.581  -4.583  -8.490  0.00  0.00     0.241 C 
ATOM      3  O49 F20 d   1      19.193  -3.528  -8.389  0.00  0.00    -0.271 OA
ATOM      4  H14 F20 d   1      17.497  -5.984  -7.483  0.00  0.00     0.163 HD
ENDROOT
BRANCH   1   5
ATOM      5  C22 F20 d   1      18.177  -4.405  -6.164  0.00  0.00     0.093 C 
ATOM      6  H11 F20 d   1      18.353  -3.337  -6.361  0.00  0.00     0.088 H 
BRANCH   5   7
ATOM      7  C21 F20 d   1      16.898  -4.575  -5.347  0.00  0.00    -0.014 C 
ATOM      8  H9  F20 d   1      16.040  -4.297  -5.977  0.00  0.00     0.043 H 
ATOM      9  H10 F20 d   1      16.809  -5.631  -5.051  0.00  0.00     0.043 H 
BRANCH   7  10
ATOM     10  C14 F20 d   1      16.875  -3.721  -4.098  0.00  0.00    -0.056 A 
ATOM     11  C13 F20 d   1      16.993  -4.351  -2.773  0.00  0.00    -0.076 A 
ATOM     12  C12 F20 d   1      16.963  -3.522  -1.567  0.00  0.00    -0.075 A 
ATOM     13  H6  F20 d   1      17.102  -5.426  -2.691  0.00  0.00     0.084 H 
ATOM     14  C11 F20 d   1      16.813  -2.072  -1.690  0.00  0.00    -0.037 A 
ATOM     15  H5  F20 d   1      17.051  -3.980  -0.588  0.00  0.00     0.084 H 
ATOM     16  C16 F20 d   1      16.705  -1.451  -3.014  0.00  0.00    -0.075 A 
ATOM     17  C15 F20 d   1      16.736  -2.279  -4.214  0.00  0.00    -0.076 A 
ATOM     18  H8  F20 d   1      16.602  -0.375  -3.101  0.00  0.00     0.084 H 
ATOM     19  H7  F20 d   1      16.655  -1.819  -5.192  0.00  0.00     0.084 H 
BRANCH  14  20
ATOM     20  C1  F20 d   1      16.779  -1.193  -0.446  0.00  0.00     0.096 C 
ATOM     21  C2  F20 d   1      17.550  -1.689   0.740  0.00  0.00     0.032 C 
ATOM     22  C3  F20 d   1      16.993  -1.062   1.988  0.00  0.00     0.232 C 
ATOM     23  H2  F20 d   1      18.610  -1.414   0.631  0.00  0.00     0.049 H 
ATOM     24  H3  F20 d   1      17.460  -2.783   0.806  0.00  0.00     0.049 H 
ATOM     25  N4  F20 d   1      15.728  -0.642   1.878  0.00  0.00    -0.254 N 
ATOM     26  O9  F20 d   1      17.616  -0.928   3.046  0.00  0.00    -0.273 OA
ATOM     27  S5  F20 d   1      15.141  -1.013   0.198  0.00  0.00     0.241 S 
ATOM     28  H4  F20 d   1      15.195  -0.199   2.599  0.00  0.00     0.181 HD
ATOM     29  O6  F20 d   1      14.336   0.151  -0.656  0.00  0.00    -0.205 OA
ATOM     30  O7  F20 d   1      14.466  -2.567   0.163  0.00  0.00    -0.205 OA
ATOM     31  H1  F20 d   1      17.172  -0.208  -0.737  0.00  0.00     0.075 H 
ENDBRANCH  14  20
ENDBRANCH   7  10
ENDBRANCH   5   7
BRANCH   5  32
ATOM     32  C25 F20 d   1      19.362  -4.987  -5.422  0.00  0.00     0.238 C 
ATOM     33  O26 F20 d   1      20.170  -4.283  -4.859  0.00  0.00    -0.271 OA
ATOM     34  N27 F20 d   1      19.502  -6.310  -5.416  0.00  0.00    -0.368 N 
ATOM     35  H12 F20 d   1      20.273  -6.729  -4.936  0.00  0.00     0.159 HD
ATOM     36  H13 F20 d   1      18.837  -6.885  -5.891  0.00  0.00     0.159 HD
ENDBRANCH   5  32
ENDBRANCH   1   5
BRANCH   2  37
ATOM     37  C48 F20 d   1      18.416  -5.301  -9.815  0.00  0.00     0.093 C 
ATOM     38  H15 F20 d   1      17.386  -5.679  -9.884  0.00  0.00     0.088 H 
BRANCH  37  39
ATOM     39  N51 F20 d   1      18.671  -4.401 -10.947  0.00  0.00    -0.343 N 
ATOM     40  C67 F20 d   1      17.520  -4.150 -11.567  0.00  0.00     0.252 C 
ATOM     41  O70 F20 d   1      16.473  -4.644 -11.139  0.00  0.00    -0.268 OA
ATOM     42  H16 F20 d   1      19.564  -4.036 -11.210  0.00  0.00     0.163 HD
BRANCH  40  43
ATOM     43  C71 F20 d   1      17.492  -3.257 -12.797  0.00  0.00     0.032 A 
ATOM     44  C74 F20 d   1      16.328  -2.394 -13.048  0.00  0.00    -0.068 A 
ATOM     45  C75 F20 d   1      16.323  -1.488 -14.204  0.00  0.00    -0.082 A 
ATOM     46  H24 F20 d   1      15.475  -2.426 -12.380  0.00  0.00     0.085 H 
ATOM     47  C76 F20 d   1      17.478  -1.453 -15.113  0.00  0.00    -0.083 A 
ATOM     48  H25 F20 d   1      15.469  -0.846 -14.387  0.00  0.00     0.083 H 
ATOM     49  C77 F20 d   1      18.625  -2.345 -14.885  0.00  0.00    -0.082 A 
ATOM     50  H26 F20 d   1      17.484  -0.768 -15.953  0.00  0.00     0.083 H 
ATOM     51  C78 F20 d   1      18.627  -3.255 -13.732  0.00  0.00    -0.068 A 
ATOM     52  H27 F20 d   1      19.468  -2.331 -15.567  0.00  0.00     0.083 H 
ATOM     53  H28 F20 d   1      19.464  -3.924 -13.570  0.00  0.00     0.085 H 
ENDBRANCH  40  43
ENDBRANCH  37  39
BRANCH  37  54
ATOM     54  C4  F20 d   1      19.387  -6.471  -9.904  0.00  0.00    -0.014 C 
ATOM     55  H17 F20 d   1      19.366  -7.016  -8.949  0.00  0.00     0.043 H 
ATOM     56  H18 F20 d   1      20.398  -6.074 -10.078  0.00  0.00     0.043 H 
BRANCH  54  57
ATOM     57  C5  F20 d   1      19.054  -7.434 -11.012  0.00  0.00    -0.056 A 
ATOM     58  C30 F20 d   1      18.255  -8.633 -10.722  0.00  0.00    -0.077 A 
ATOM     59  C31 F20 d   1      17.933  -9.576 -11.798  0.00  0.00    -0.082 A 
ATOM     60  H19 F20 d   1      17.904  -8.820  -9.714  0.00  0.00     0.084 H 
ATOM     61  C6  F20 d   1      18.414  -9.320 -13.160  0.00  0.00    -0.083 A 
ATOM     62  H20 F20 d   1      17.341 -10.460 -11.588  0.00  0.00     0.083 H 
ATOM     63  C33 F20 d   1      19.208  -8.114 -13.454  0.00  0.00    -0.082 A 
ATOM     64  H21 F20 d   1      18.184 -10.021 -13.954  0.00  0.00     0.083 H 
ATOM     65  C34 F20 d   1      19.529  -7.175 -12.380  0.00  0.00    -0.077 A 
ATOM     66  H22 F20 d   1      19.553  -7.923 -14.464  0.00  0.00     0.083 H 
ATOM     67  H23 F20 d   1      20.116  -6.289 -12.592  0.00  0.00     0.084 H 
ENDBRANCH  54  57
ENDBRANCH  37  54
ENDBRANCH   2  37
TORSDOF 10
