REMARK  12 active torsions:
REMARK  status: ('A' for Active; 'I' for Inactive)
REMARK    1  A    between atoms: C10_43  and  C2_2 
REMARK    2  A    between atoms: C5_5  and  C20_7 
REMARK    3  A    between atoms: C20_7  and  C21_8 
REMARK       I    between atoms: C21_8  and  N25_10 
REMARK    4  A    between atoms: N25_10  and  C26_11 
REMARK    5  A    between atoms: C26_11  and  C27_12 
REMARK    6  A    between atoms: C26_11  and  C7_26 
REMARK       I    between atoms: C27_12  and  N31_14 
REMARK    7  A    between atoms: N31_14  and  C32_15 
REMARK    8  A    between atoms: C32_15  and  C33_16 
REMARK    9  A    between atoms: C32_15  and  C35_18 
REMARK       I    between atoms: C33_16  and  N40_19 
REMARK   10  A    between atoms: C35_18  and  C64_38 
REMARK   11  A    between atoms: C7_26  and  C43_20 
REMARK   12  A    between atoms: C61_35  and  C71_27 
ROOT
ATOM      1  C26 F17 d   1      17.829  32.293  12.913  0.00  0.00     0.093 C 
ATOM      2  H8  F17 d   1      17.180  31.635  13.509  0.00  0.00     0.088 H 
ENDROOT
BRANCH   1   3
ATOM      3  N25 F17 d   1      17.309  33.669  12.915  0.00  0.00    -0.347 N 
ATOM      4  C21 F17 d   1      16.228  33.922  13.655  0.00  0.00     0.222 C 
ATOM      5  O24 F17 d   1      15.628  33.043  14.272  0.00  0.00    -0.273 OA
ATOM      6  H7  F17 d   1      17.750  34.390  12.380  0.00  0.00     0.163 HD
BRANCH   4   7
ATOM      7  C20 F17 d   1      15.763  35.387  13.728  0.00  0.00     0.033 C 
ATOM      8  H5  F17 d   1      16.045  35.854  14.683  0.00  0.00     0.054 H 
ATOM      9  H6  F17 d   1      16.167  35.982  12.896  0.00  0.00     0.054 H 
BRANCH   7  10
ATOM     10  C5  F17 d   1      14.258  35.214  13.613  0.00  0.00    -0.049 A 
ATOM     11  C4  F17 d   1      13.637  35.289  12.359  0.00  0.00    -0.076 A 
ATOM     12  C3  F17 d   1      12.252  35.100  12.253  0.00  0.00    -0.071 A 
ATOM     13  H3  F17 d   1      14.227  35.493  11.473  0.00  0.00     0.084 H 
ATOM     14  C2  F17 d   1      11.489  34.839  13.400  0.00  0.00    -0.013 A 
ATOM     15  H2  F17 d   1      11.771  35.156  11.283  0.00  0.00     0.084 H 
ATOM     16  C1  F17 d   1      12.109  34.775  14.654  0.00  0.00    -0.071 A 
ATOM     17  C6  F17 d   1      13.493  34.963  14.760  0.00  0.00    -0.076 A 
ATOM     18  H1  F17 d   1      11.518  34.580  15.542  0.00  0.00     0.084 H 
ATOM     19  H4  F17 d   1      13.973  34.914  15.731  0.00  0.00     0.084 H 
BRANCH  14  20
ATOM     20  C10 F17 d   1      10.014  34.597  13.278  0.00  0.00     0.095 A 
ATOM     21  C9  F17 d   1       9.415  33.363  12.839  0.00  0.00     0.007 A 
ATOM     22  C8  F17 d   1       7.975  33.663  12.900  0.00  0.00     0.256 A 
ATOM     23  H28 F17 d   1       9.905  32.438  12.537  0.00  0.00     0.094 H 
ATOM     24  N1  F17 d   1       7.552  34.905  13.310  0.00  0.00    -0.247 N 
ATOM     25  O1  F17 d   1       7.244  32.740  12.547  0.00  0.00    -0.268 OA
ATOM     26  S1  F17 d   1       8.884  35.751  13.639  0.00  0.00     0.266 S 
ATOM     27  H29 F17 d   1       6.606  35.221  13.389  0.00  0.00     0.182 HD
ATOM     28  O2  F17 d   1       9.012  36.890  12.777  0.00  0.00    -0.200 OA
ATOM     29  O3  F17 d   1       8.947  36.120  15.023  0.00  0.00    -0.200 OA
ENDBRANCH  14  20
ENDBRANCH   7  10
ENDBRANCH   4   7
ENDBRANCH   1   3
BRANCH   1  30
ATOM     30  C27 F17 d   1      19.207  32.386  13.531  0.00  0.00     0.241 C 
ATOM     31  O30 F17 d   1      20.039  33.174  13.087  0.00  0.00    -0.271 OA
ATOM     32  N31 F17 d   1      19.448  31.581  14.573  0.00  0.00    -0.346 N 
ATOM     33  H9  F17 d   1      18.752  30.961  14.935  0.00  0.00     0.163 HD
BRANCH  32  34
ATOM     34  C32 F17 d   1      20.790  31.663  15.150  0.00  0.00     0.093 C 
ATOM     35  H10 F17 d   1      21.156  32.694  15.037  0.00  0.00     0.088 H 
BRANCH  34  36
ATOM     36  C33 F17 d   1      21.820  30.732  14.494  0.00  0.00     0.238 C 
ATOM     37  O34 F17 d   1      22.945  31.149  14.201  0.00  0.00    -0.271 OA
ATOM     38  N40 F17 d   1      21.405  29.475  14.297  0.00  0.00    -0.368 N 
ATOM     39  H13 F17 d   1      22.017  28.807  13.875  0.00  0.00     0.159 HD
ATOM     40  H14 F17 d   1      20.483  29.204  14.572  0.00  0.00     0.159 HD
ENDBRANCH  34  36
BRANCH  34  41
ATOM     41  C35 F17 d   1      20.633  31.344  16.641  0.00  0.00    -0.014 C 
ATOM     42  H11 F17 d   1      20.218  30.329  16.730  0.00  0.00     0.043 H 
ATOM     43  H12 F17 d   1      19.926  32.069  17.072  0.00  0.00     0.043 H 
BRANCH  41  44
ATOM     44  C64 F17 d   1      21.911  31.400  17.447  0.00  0.00    -0.056 A 
ATOM     45  C63 F17 d   1      22.498  30.217  17.906  0.00  0.00    -0.076 A 
ATOM     46  C62 F17 d   1      23.673  30.264  18.662  0.00  0.00    -0.071 A 
ATOM     47  H25 F17 d   1      22.041  29.262  17.675  0.00  0.00     0.084 H 
ATOM     48  C61 F17 d   1      24.265  31.495  18.961  0.00  0.00    -0.013 A 
ATOM     49  H24 F17 d   1      24.126  29.345  19.017  0.00  0.00     0.084 H 
ATOM     50  C66 F17 d   1      23.684  32.686  18.498  0.00  0.00    -0.071 A 
ATOM     51  C65 F17 d   1      22.504  32.637  17.738  0.00  0.00    -0.076 A 
ATOM     52  H27 F17 d   1      24.145  33.640  18.726  0.00  0.00     0.084 H 
ATOM     53  H26 F17 d   1      22.052  33.554  17.377  0.00  0.00     0.084 H 
BRANCH  48  54
ATOM     54  C71 F17 d   1      25.490  31.534  19.798  0.00  0.00     0.095 A 
ATOM     55  C72 F17 d   1      26.849  31.224  19.510  0.00  0.00     0.007 A 
ATOM     56  C73 F17 d   1      27.561  31.330  20.821  0.00  0.00     0.256 A 
ATOM     57  H22 F17 d   1      27.278  30.965  18.543  0.00  0.00     0.094 H 
ATOM     58  N74 F17 d   1      26.844  31.678  21.906  0.00  0.00    -0.247 N 
ATOM     59  O78 F17 d   1      28.758  31.054  20.870  0.00  0.00    -0.268 OA
ATOM     60  S75 F17 d   1      25.342  31.885  21.474  0.00  0.00     0.266 S 
ATOM     61  H23 F17 d   1      27.204  31.787  22.832  0.00  0.00     0.182 HD
ATOM     62  O67 F17 d   1      24.918  33.226  21.693  0.00  0.00    -0.200 OA
ATOM     63  O77 F17 d   1      24.474  30.943  22.114  0.00  0.00    -0.200 OA
ENDBRANCH  48  54
ENDBRANCH  41  44
ENDBRANCH  34  41
ENDBRANCH  32  34
ENDBRANCH   1  30
BRANCH   1  64
ATOM     64  C7  F17 d   1      17.932  31.753  11.479  0.00  0.00    -0.014 C 
ATOM     65  H20 F17 d   1      18.565  32.434  10.891  0.00  0.00     0.043 H 
ATOM     66  H21 F17 d   1      16.923  31.721  11.042  0.00  0.00     0.043 H 
BRANCH  64  67
ATOM     67  C43 F17 d   1      18.538  30.345  11.418  0.00  0.00    -0.056 A 
ATOM     68  C46 F17 d   1      17.744  29.230  11.719  0.00  0.00    -0.077 A 
ATOM     69  C47 F17 d   1      18.291  27.944  11.666  0.00  0.00    -0.082 A 
ATOM     70  H15 F17 d   1      16.704  29.365  11.993  0.00  0.00     0.084 H 
ATOM     71  C48 F17 d   1      19.637  27.792  11.310  0.00  0.00    -0.083 A 
ATOM     72  H16 F17 d   1      17.682  27.078  11.897  0.00  0.00     0.083 H 
ATOM     73  C49 F17 d   1      20.442  28.896  11.007  0.00  0.00    -0.082 A 
ATOM     74  H17 F17 d   1      20.065  26.797  11.268  0.00  0.00     0.083 H 
ATOM     75  C50 F17 d   1      19.884  30.179  11.063  0.00  0.00    -0.077 A 
ATOM     76  H18 F17 d   1      21.482  28.760  10.733  0.00  0.00     0.083 H 
ATOM     77  H19 F17 d   1      20.494  31.045  10.832  0.00  0.00     0.084 H 
ENDBRANCH  64  67
ENDBRANCH   1  64
TORSDOF 12
