REMARK  8 active torsions:
REMARK  status: ('A' for Active; 'I' for Inactive)
REMARK    1  A    between atoms: N11_11  and  C10_10 
REMARK    2  A    between atoms: C25_20  and  N11_11 
REMARK    3  A    between atoms: C19_16  and  C20_17 
REMARK    4  A    between atoms: N36_31  and  C19_16 
REMARK    5  A    between atoms: C20_17  and  C21_18 
REMARK    6  A    between atoms: C21_18  and  C24_19 
REMARK    7  A    between atoms: C24_19  and  C25_20 
REMARK    8  A    between atoms: C35_30  and  N36_31 
ROOT
ATOM      1  C21 F11 d   1       1.318  67.191  68.868  0.00  0.00    -0.062 C 
ATOM      2  H18 F11 d   1       1.538  68.053  69.515  0.00  0.00     0.033 H 
ATOM      3  H19 F11 d   1       2.162  66.486  68.896  0.00  0.00     0.033 H 
ENDROOT
BRANCH   1   4
ATOM      4  C20 F11 d   1       1.140  67.680  67.451  0.00  0.00    -0.050 C 
ATOM      5  H16 F11 d   1       1.835  67.149  66.783  0.00  0.00     0.035 H 
ATOM      6  H17 F11 d   1       0.106  67.501  67.122  0.00  0.00     0.035 H 
BRANCH   4   7
ATOM      7  C19 F11 d   1       1.438  69.168  67.427  0.00  0.00    -0.007 C 
ATOM      8  H14 F11 d   1       2.094  69.404  68.278  0.00  0.00     0.063 H 
ATOM      9  H15 F11 d   1       0.489  69.713  67.534  0.00  0.00     0.063 H 
BRANCH   7  10
ATOM     10  N36 F11 d   1       2.102  69.626  66.185  0.00  0.00    -0.389 N 
ATOM     11  H32 F11 d   1       1.460  70.071  65.514  0.00  0.00     0.159 HD
BRANCH  10  12
ATOM     12  C35 F11 d   1       3.436  69.574  65.740  0.00  0.00     0.049 A 
ATOM     13  C27 F11 d   1       3.825  69.189  64.415  0.00  0.00    -0.006 A 
ATOM     14  C26 F11 d   1       5.181  69.261  64.018  0.00  0.00     0.043 A 
ATOM     15  C28 F11 d   1       2.814  68.704  63.403  0.00  0.00    -0.037 C 
ATOM     16  C31 F11 d   1       5.645  68.932  62.630  0.00  0.00    -0.024 C 
ATOM     17  N32 F11 d   1       6.130  69.663  64.930  0.00  0.00    -0.252 NA
ATOM     18  C30 F11 d   1       4.489  68.838  61.600  0.00  0.00    -0.060 C 
ATOM     19  H30 F11 d   1       6.167  67.964  62.657  0.00  0.00     0.042 H 
ATOM     20  H31 F11 d   1       6.343  69.716  62.300  0.00  0.00     0.042 H 
ATOM     21  C29 F11 d   1       3.387  67.988  62.199  0.00  0.00    -0.061 C 
ATOM     22  H28 F11 d   1       4.104  69.845  61.380  0.00  0.00     0.033 H 
ATOM     23  H29 F11 d   1       4.854  68.374  60.672  0.00  0.00     0.033 H 
ATOM     24  H26 F11 d   1       2.595  67.830  61.452  0.00  0.00     0.033 H 
ATOM     25  H27 F11 d   1       3.798  67.016  62.509  0.00  0.00     0.033 H 
ATOM     26  C33 F11 d   1       5.883  69.998  66.249  0.00  0.00     0.069 A 
ATOM     27  C34 F11 d   1       4.512  69.946  66.738  0.00  0.00     0.020 A 
ATOM     28  C42 F11 d   1       7.009  70.399  67.075  0.00  0.00    -0.054 A 
ATOM     29  C39 F11 d   1       4.366  70.306  68.134  0.00  0.00    -0.069 A 
ATOM     30  C40 F11 d   1       5.460  70.694  68.940  0.00  0.00    -0.082 A 
ATOM     31  H33 F11 d   1       3.378  70.276  68.578  0.00  0.00     0.085 H 
ATOM     32  C41 F11 d   1       6.798  70.753  68.412  0.00  0.00    -0.081 A 
ATOM     33  H34 F11 d   1       5.288  70.953  69.978  0.00  0.00     0.083 H 
ATOM     34  H35 F11 d   1       7.626  71.066  69.038  0.00  0.00     0.083 H 
ATOM     35  H36 F11 d   1       8.009  70.424  66.657  0.00  0.00     0.087 H 
ATOM     36  H24 F11 d   1       2.251  69.577  63.041  0.00  0.00     0.040 H 
ATOM     37  H25 F11 d   1       2.129  68.012  63.914  0.00  0.00     0.040 H 
ENDBRANCH  10  12
ENDBRANCH   7  10
ENDBRANCH   4   7
ENDBRANCH   1   4
BRANCH   1  38
ATOM     38  C24 F11 d   1       0.103  66.503  69.385  0.00  0.00    -0.050 C 
ATOM     39  H20 F11 d   1      -0.774  66.832  68.808  0.00  0.00     0.035 H 
ATOM     40  H21 F11 d   1      -0.037  66.762  70.445  0.00  0.00     0.035 H 
BRANCH  38  41
ATOM     41  C25 F11 d   1       0.253  65.004  69.253  0.00  0.00    -0.007 C 
ATOM     42  H22 F11 d   1      -0.718  64.546  69.012  0.00  0.00     0.063 H 
ATOM     43  H23 F11 d   1       0.978  64.765  68.461  0.00  0.00     0.063 H 
BRANCH  41  44
ATOM     44  N11 F11 d   1       0.726  64.520  70.517  0.00  0.00    -0.389 N 
ATOM     45  H9  F11 d   1       0.760  65.201  71.289  0.00  0.00     0.159 HD
BRANCH  44  46
ATOM     46  C10 F11 d   1       1.129  63.270  70.799  0.00  0.00     0.049 A 
ATOM     47  C2  F11 d   1       2.355  62.642  70.394  0.00  0.00    -0.006 A 
ATOM     48  C1  F11 d   1       2.681  61.349  70.904  0.00  0.00     0.043 A 
ATOM     49  C3  F11 d   1       3.349  63.329  69.454  0.00  0.00    -0.037 C 
ATOM     50  C6  F11 d   1       4.009  60.626  70.583  0.00  0.00    -0.024 C 
ATOM     51  N7  F11 d   1       1.775  60.716  71.746  0.00  0.00    -0.252 NA
ATOM     52  C5  F11 d   1       5.108  61.575  70.040  0.00  0.00    -0.060 C 
ATOM     53  H7  F11 d   1       3.811  59.852  69.827  0.00  0.00     0.042 H 
ATOM     54  H8  F11 d   1       4.380  60.153  71.504  0.00  0.00     0.042 H 
ATOM     55  C4  F11 d   1       4.474  62.417  68.894  0.00  0.00    -0.061 C 
ATOM     56  H5  F11 d   1       5.461  62.239  70.843  0.00  0.00     0.033 H 
ATOM     57  H6  F11 d   1       5.953  60.988  69.651  0.00  0.00     0.033 H 
ATOM     58  H3  F11 d   1       5.251  63.042  68.431  0.00  0.00     0.033 H 
ATOM     59  H4  F11 d   1       4.050  61.740  68.138  0.00  0.00     0.033 H 
ATOM     60  C8  F11 d   1       0.537  61.254  72.141  0.00  0.00     0.069 A 
ATOM     61  C9  F11 d   1       0.179  62.574  71.656  0.00  0.00     0.020 A 
ATOM     62  C17 F11 d   1      -0.322  60.497  73.008  0.00  0.00    -0.054 A 
ATOM     63  C14 F11 d   1      -1.118  63.083  72.080  0.00  0.00    -0.069 A 
ATOM     64  C15 F11 d   1      -1.950  62.343  72.919  0.00  0.00    -0.082 A 
ATOM     65  H10 F11 d   1      -1.443  64.058  71.736  0.00  0.00     0.085 H 
ATOM     66  C16 F11 d   1      -1.558  61.038  73.401  0.00  0.00    -0.081 A 
ATOM     67  H11 F11 d   1      -2.908  62.754  73.215  0.00  0.00     0.083 H 
ATOM     68  H12 F11 d   1      -2.213  60.480  74.061  0.00  0.00     0.083 H 
ATOM     69  H13 F11 d   1      -0.019  59.516  73.356  0.00  0.00     0.087 H 
ATOM     70  H1  F11 d   1       3.824  64.154  70.006  0.00  0.00     0.040 H 
ATOM     71  H2  F11 d   1       2.785  63.735  68.601  0.00  0.00     0.040 H 
ENDBRANCH  44  46
ENDBRANCH  41  44
ENDBRANCH  38  41
ENDBRANCH   1  38
TORSDOF 8
