REMARK  12 active torsions:
REMARK  status: ('A' for Active; 'I' for Inactive)
REMARK    1  A    between atoms: C16_19  and  C7_7 
REMARK    2  A    between atoms: N1_9  and  C13_16 
REMARK    3  A    between atoms: N3_15  and  O4_29 
REMARK    4  A    between atoms: C19_22  and  S1_23 
REMARK    5  A    between atoms: S1_23  and  N4_24 
REMARK    6  A    between atoms: N4_24  and  C20_27 
REMARK    7  A    between atoms: N4_24  and  C21_28 
REMARK    8  A    between atoms: O4_29  and  C22_30 
REMARK    9  A    between atoms: C22_30  and  C23_31 
REMARK   10  A    between atoms: C22_30  and  C25_34 
REMARK   11  A    between atoms: C23_31  and  C24_32 
REMARK   12  A    between atoms: C24_32  and  O5_33 
ROOT
ATOM      1  C1  M1L d   1       3.838  30.640  25.687  0.00  0.00    -0.017 C 
ATOM      2  C2  M1L d   1       5.685  28.942  22.655  0.00  0.00    -0.057 A 
ATOM      3  C3  M1L d   1       6.179  30.082  21.999  0.00  0.00     0.029 A 
ATOM      4  C4  M1L d   1       5.946  31.383  22.508  0.00  0.00     0.056 A 
ATOM      5  C5  M1L d   1       5.194  31.601  23.691  0.00  0.00     0.002 A 
ATOM      6  C6  M1L d   1       4.666  30.437  24.390  0.00  0.00    -0.035 A 
ATOM      7  C7  M1L d   1       4.918  29.089  23.856  0.00  0.00    -0.018 A 
ATOM      8  C8  M1L d   1       3.504  32.104  26.048  0.00  0.00     0.087 C 
ATOM      9  N1  M1L d   1       4.656  33.014  25.695  0.00  0.00    -0.071 N 
ATOM     10  C10 M1L d   1       4.944  32.992  24.218  0.00  0.00     0.109 C 
ATOM     11  N2  M1L d   1       6.535  32.345  21.687  0.00  0.00    -0.320 N 
ATOM     12  C11 M1L d   1       7.181  31.766  20.618  0.00  0.00     0.278 A 
ATOM     13  O1  M1L d   1       7.790  32.309  19.721  0.00  0.00    -0.265 OA
ATOM     14  C12 M1L d   1       6.982  30.247  20.771  0.00  0.00     0.164 A 
ATOM     15  N3  M1L d   1       7.486  29.420  19.884  0.00  0.00    -0.127 NA
ATOM     16  H1  M1L d   1       4.408  30.208  26.523  0.00  0.00     0.042 H 
ATOM     17  H2  M1L d   1       2.889  30.096  25.570  0.00  0.00     0.042 H 
ATOM     18  H3  M1L d   1       5.883  27.955  22.254  0.00  0.00     0.086 H 
ATOM     19  H4  M1L d   1       3.306  32.174  27.128  0.00  0.00     0.076 H 
ATOM     20  H5  M1L d   1       2.610  32.419  25.490  0.00  0.00     0.076 H 
ATOM     21  H6  M1L d   1       5.474  32.674  26.176  0.00  0.00     0.279 HD
ATOM     22  H7  M1L d   1       4.082  33.420  23.686  0.00  0.00     0.083 H 
ATOM     23  H8  M1L d   1       5.836  33.606  24.025  0.00  0.00     0.083 H 
ATOM     24  H9  M1L d   1       6.493  33.330  21.854  0.00  0.00     0.169 HD
ENDROOT
BRANCH   7  25
ATOM     25  C16 M1L d   1       4.412  27.853  24.493  0.00  0.00    -0.025 A 
ATOM     26  C15 M1L d   1       5.048  27.288  25.651  0.00  0.00    -0.071 A 
ATOM     27  C14 M1L d   1       4.537  26.101  26.245  0.00  0.00    -0.059 A 
ATOM     28  H14 M1L d   1       5.922  27.769  26.074  0.00  0.00     0.084 H 
ATOM     29  C19 M1L d   1       3.386  25.469  25.684  0.00  0.00     0.079 A 
ATOM     30  H13 M1L d   1       5.019  25.678  27.119  0.00  0.00     0.085 H 
ATOM     31  C18 M1L d   1       2.748  26.014  24.539  0.00  0.00    -0.059 A 
ATOM     32  C17 M1L d   1       3.258  27.197  23.950  0.00  0.00    -0.071 A 
ATOM     33  H16 M1L d   1       1.876  25.528  24.118  0.00  0.00     0.085 H 
ATOM     34  H15 M1L d   1       2.769  27.613  23.076  0.00  0.00     0.084 H 
BRANCH  29  35
ATOM     35  S1  M1L d   1       2.737  23.989  26.422  0.00  0.00     0.260 S 
ATOM     36  O2  M1L d   1       1.305  23.950  26.163  0.00  0.00    -0.200 OA
ATOM     37  O3  M1L d   1       3.204  23.926  27.797  0.00  0.00    -0.200 OA
BRANCH  35  38
ATOM     38  N4  M1L d   1       3.486  22.778  25.521  0.00  0.00    -0.315 N 
BRANCH  38  39
ATOM     39  C20 M1L d   1       2.776  22.055  24.461  0.00  0.00    -0.009 C 
ATOM     40  H17 M1L d   1       3.451  21.314  24.007  0.00  0.00     0.057 H 
ATOM     41  H18 M1L d   1       2.443  22.767  23.692  0.00  0.00     0.057 H 
ATOM     42  H19 M1L d   1       1.902  21.542  24.889  0.00  0.00     0.057 H 
ENDBRANCH  38  39
BRANCH  38  43
ATOM     43  C21 M1L d   1       4.880  22.384  25.747  0.00  0.00    -0.009 C 
ATOM     44  H20 M1L d   1       5.152  21.580  25.047  0.00  0.00     0.057 H 
ATOM     45  H21 M1L d   1       4.997  22.026  26.780  0.00  0.00     0.057 H 
ATOM     46  H22 M1L d   1       5.537  23.251  25.583  0.00  0.00     0.057 H 
ENDBRANCH  38  43
ENDBRANCH  35  38
ENDBRANCH  29  35
ENDBRANCH   7  25
BRANCH  15  47
ATOM     47  O4  M1L d   1       7.214  28.064  20.149  0.00  0.00    -0.239 OA
BRANCH  47  48
ATOM     48  C22 M1L d   1       7.800  27.224  19.128  0.00  0.00     0.153 C 
ATOM     49  H23 M1L d   1       8.799  27.606  18.871  0.00  0.00     0.104 H 
BRANCH  48  50
ATOM     50  C23 M1L d   1       7.920  25.786  19.674  0.00  0.00    -0.009 C 
ATOM     51  H24 M1L d   1       8.373  25.155  18.895  0.00  0.00     0.040 H 
ATOM     52  H25 M1L d   1       6.910  25.416  19.905  0.00  0.00     0.040 H 
BRANCH  50  53
ATOM     53  C24 M1L d   1       8.775  25.681  20.940  0.00  0.00     0.020 C 
ATOM     54  H26 M1L d   1       8.971  24.620  21.155  0.00  0.00     0.074 H 
ATOM     55  H27 M1L d   1       8.228  26.130  21.782  0.00  0.00     0.074 H 
BRANCH  53  56
ATOM     56  O5  M1L d   1      10.019  26.362  20.775  0.00  0.00    -0.401 OA
ATOM     57  H28 M1L d   1      10.530  26.283  21.572  0.00  0.00     0.209 HD
ENDBRANCH  53  56
ENDBRANCH  50  53
ENDBRANCH  48  50
BRANCH  48  58
ATOM     58  C25 M1L d   1       6.913  27.215  17.858  0.00  0.00     0.205 C 
ATOM     59  O6  M1L d   1       7.504  27.382  16.750  0.00  0.00    -0.646 OA
ATOM     60  O7  M1L d   1       5.662  27.049  17.991  0.00  0.00    -0.646 OA
ENDBRANCH  48  58
ENDBRANCH  47  48
ENDBRANCH  15  47
BRANCH   9  61
ATOM     61  C13 M1L d   1       4.401  34.411  26.152  0.00  0.00     0.067 C 
ATOM     62  H10 M1L d   1       4.192  34.411  27.232  0.00  0.00     0.068 H 
ATOM     63  H11 M1L d   1       3.535  34.822  25.611  0.00  0.00     0.068 H 
ATOM     64  H12 M1L d   1       5.287  35.031  25.950  0.00  0.00     0.068 H 
ENDBRANCH   9  61
TORSDOF 12
