REMARK  2 active torsions:
REMARK  status: ('A' for Active; 'I' for Inactive)
REMARK    1  A    between atoms: C8_11  and  C9_12 
REMARK    2  A    between atoms: C11_14  and  N5_15 
ROOT
ATOM      1  O1  DBQ d   1     -13.757  47.153  10.576  0.00  0.00    -0.266 OA
ATOM      2  C5  DBQ d   1     -13.722  46.687   9.463  0.00  0.00     0.269 C 
ATOM      3  N2  DBQ d   1     -14.875  46.352   8.853  0.00  0.00    -0.355 N 
ATOM      4  C6  DBQ d   1     -15.145  45.788   7.556  0.00  0.00    -0.001 C 
ATOM      5  C7  DBQ d   1     -14.264  46.326   6.450  0.00  0.00    -0.023 C 
ATOM      6  C4  DBQ d   1     -12.365  46.579   8.935  0.00  0.00     0.111 C 
ATOM      7  N1  DBQ d   1     -11.306  46.850   9.690  0.00  0.00    -0.361 N 
ATOM      8  C1  DBQ d   1     -10.104  46.913   8.840  0.00  0.00    -0.021 C 
ATOM      9  C2  DBQ d   1     -10.527  46.448   7.451  0.00  0.00    -0.055 C 
ATOM     10  C3  DBQ d   1     -11.994  46.259   7.690  0.00  0.00     0.006 C 
ATOM     11  C8  DBQ d   1     -12.870  45.775   6.652  0.00  0.00    -0.011 C 
ATOM     12  H1  DBQ d   1     -15.693  46.527   9.401  0.00  0.00     0.162 HD
ATOM     13  H2  DBQ d   1     -16.192  46.003   7.298  0.00  0.00     0.064 H 
ATOM     14  H3  DBQ d   1     -14.998  44.700   7.616  0.00  0.00     0.064 H 
ATOM     15  H4  DBQ d   1     -14.241  47.425   6.493  0.00  0.00     0.042 H 
ATOM     16  H5  DBQ d   1     -14.654  46.005   5.473  0.00  0.00     0.042 H 
ATOM     17  H6  DBQ d   1     -11.323  46.994  10.710  0.00  0.00     0.165 HD
ATOM     18  H7  DBQ d   1      -9.108  47.230   9.145  0.00  0.00     0.111 H 
ATOM     19  H8  DBQ d   1      -9.936  46.297   6.549  0.00  0.00     0.087 H 
ENDROOT
BRANCH  11  20
ATOM     20  C9  DBQ d   1     -12.345  44.710   5.766  0.00  0.00     0.124 A 
ATOM     21  N4  DBQ d   1     -11.151  44.054   5.693  0.00  0.00    -0.186 N 
ATOM     22  C11 DBQ d   1     -11.307  43.210   4.645  0.00  0.00     0.679 A 
ATOM     23  H9  DBQ d   1     -10.323  44.173   6.295  0.00  0.00     0.184 HD
ATOM     24  N3  DBQ d   1     -12.459  43.238   3.979  0.00  0.00    -0.154 N 
ATOM     25  C10 DBQ d   1     -13.126  44.176   4.664  0.00  0.00     0.287 A 
ATOM     26  H12 DBQ d   1     -12.748  42.704   3.184  0.00  0.00     0.187 HD
ATOM     27  O2  DBQ d   1     -14.313  44.598   4.459  0.00  0.00    -0.265 OA
BRANCH  22  28
ATOM     28  N5  DBQ d   1     -10.307  42.374   4.286  0.00  0.00    -0.234 N 
ATOM     29  H10 DBQ d   1     -10.432  41.735   3.488  0.00  0.00     0.174 HD
ATOM     30  H11 DBQ d   1      -9.420  42.377   4.810  0.00  0.00     0.174 HD
ENDBRANCH  22  28
ENDBRANCH  11  20
TORSDOF 2
