REMARK  14 active torsions:
REMARK  status: ('A' for Active; 'I' for Inactive)
REMARK    1  A    between atoms: C2_2  and  C11_7 
REMARK    2  A    between atoms: C20_14  and  C5_5 
REMARK    3  A    between atoms: C11_7  and  P12_8 
REMARK    4  A    between atoms: C21_15  and  C20_14 
REMARK       I    between atoms: N25_17  and  C21_15 
REMARK    5  A    between atoms: C26_18  and  N25_17 
REMARK    6  A    between atoms: C26_18  and  C27_19 
REMARK    7  A    between atoms: C7_46  and  C26_18 
REMARK       I    between atoms: C27_19  and  N31_21 
REMARK    8  A    between atoms: N31_21  and  C32_22 
REMARK    9  A    between atoms: C32_22  and  C33_23 
REMARK   10  A    between atoms: C32_22  and  C35_25 
REMARK       I    between atoms: C33_23  and  N40_27 
REMARK   11  A    between atoms: C35_25  and  C37_26 
REMARK   12  A    between atoms: C43_28  and  C7_46 
REMARK   13  A    between atoms: C58_36  and  C65_39 
REMARK   14  A    between atoms: C65_39  and  P68_42 
ROOT
ATOM      1  C26 DFJ d   1      18.499  32.441  12.807  0.00  0.00     0.093 C 
ATOM      2  H8  DFJ d   1      17.858  31.731  13.351  0.00  0.00     0.088 H 
ENDROOT
BRANCH   1   3
ATOM      3  N25 DFJ d   1      17.879  33.780  12.863  0.00  0.00    -0.347 N 
ATOM      4  C21 DFJ d   1      16.736  33.866  13.547  0.00  0.00     0.222 C 
ATOM      5  O24 DFJ d   1      16.219  32.853  14.010  0.00  0.00    -0.273 OA
ATOM      6  H7  DFJ d   1      18.290  34.574  12.416  0.00  0.00     0.163 HD
BRANCH   4   7
ATOM      7  C20 DFJ d   1      16.057  35.217  13.685  0.00  0.00     0.033 C 
ATOM      8  H5  DFJ d   1      15.945  35.457  14.752  0.00  0.00     0.054 H 
ATOM      9  H6  DFJ d   1      16.678  35.984  13.200  0.00  0.00     0.054 H 
BRANCH   7  10
ATOM     10  C5  DFJ d   1      14.696  35.198  13.036  0.00  0.00    -0.049 A 
ATOM     11  C4  DFJ d   1      13.573  34.735  13.862  0.00  0.00    -0.076 A 
ATOM     12  C3  DFJ d   1      12.275  34.718  13.185  0.00  0.00    -0.070 A 
ATOM     13  H3  DFJ d   1      13.696  34.429  14.895  0.00  0.00     0.084 H 
ATOM     14  C2  DFJ d   1      12.198  35.152  11.776  0.00  0.00     0.027 A 
ATOM     15  H2  DFJ d   1      11.384  34.392  13.710  0.00  0.00     0.084 H 
ATOM     16  C1  DFJ d   1      13.359  35.609  10.998  0.00  0.00    -0.070 A 
ATOM     17  C6  DFJ d   1      14.673  35.640  11.638  0.00  0.00    -0.076 A 
ATOM     18  H1  DFJ d   1      13.242  35.918   9.966  0.00  0.00     0.084 H 
ATOM     19  H4  DFJ d   1      15.566  35.966  11.117  0.00  0.00     0.084 H 
BRANCH  14  20
ATOM     20  C11 DFJ d   1      10.900  35.123  11.090  0.00  0.00     0.380 C 
ATOM     21  F13 DFJ d   1      10.036  33.956  11.379  0.00  0.00    -0.185 F 
ATOM     22  F14 DFJ d   1      10.935  35.064   9.600  0.00  0.00    -0.185 F 
BRANCH  20  23
ATOM     23  P12 DFJ d   1       9.748  36.458  11.308  0.00  0.00     0.339 P 
ATOM     24  O15 DFJ d   1       8.525  35.893  10.126  0.00  0.00    -0.635 OA
ATOM     25  O16 DFJ d   1      10.605  37.851  10.648  0.00  0.00    -0.635 OA
ATOM     26  O17 DFJ d   1       9.335  36.447  13.017  0.00  0.00    -0.635 OA
ENDBRANCH  20  23
ENDBRANCH  14  20
ENDBRANCH   7  10
ENDBRANCH   4   7
ENDBRANCH   1   3
BRANCH   1  27
ATOM     27  C27 DFJ d   1      19.889  32.433  13.440  0.00  0.00     0.241 C 
ATOM     28  O30 DFJ d   1      20.787  33.167  13.026  0.00  0.00    -0.271 OA
ATOM     29  N31 DFJ d   1      20.108  31.602  14.467  0.00  0.00    -0.346 N 
ATOM     30  H9  DFJ d   1      19.393  30.967  14.759  0.00  0.00     0.163 HD
BRANCH  29  31
ATOM     31  C32 DFJ d   1      21.410  31.626  15.168  0.00  0.00     0.093 C 
ATOM     32  H10 DFJ d   1      21.753  32.669  15.233  0.00  0.00     0.088 H 
BRANCH  31  33
ATOM     33  C33 DFJ d   1      22.480  30.814  14.454  0.00  0.00     0.238 C 
ATOM     34  O34 DFJ d   1      23.596  31.280  14.266  0.00  0.00    -0.271 OA
ATOM     35  N40 DFJ d   1      22.144  29.591  14.070  0.00  0.00    -0.368 N 
ATOM     36  H13 DFJ d   1      22.810  29.015  13.596  0.00  0.00     0.159 HD
ATOM     37  H14 DFJ d   1      21.224  29.244  14.254  0.00  0.00     0.159 HD
ENDBRANCH  31  33
BRANCH  31  38
ATOM     38  C35 DFJ d   1      21.207  31.072  16.586  0.00  0.00    -0.014 C 
ATOM     39  H11 DFJ d   1      20.890  30.021  16.510  0.00  0.00     0.043 H 
ATOM     40  H12 DFJ d   1      20.419  31.658  17.081  0.00  0.00     0.043 H 
BRANCH  38  41
ATOM     41  C37 DFJ d   1      22.460  31.137  17.433  0.00  0.00    -0.056 A 
ATOM     42  C56 DFJ d   1      22.931  29.878  18.011  0.00  0.00    -0.076 A 
ATOM     43  C57 DFJ d   1      24.137  29.962  18.833  0.00  0.00    -0.070 A 
ATOM     44  H20 DFJ d   1      22.416  28.939  17.840  0.00  0.00     0.084 H 
ATOM     45  C58 DFJ d   1      24.761  31.283  19.005  0.00  0.00     0.027 A 
ATOM     46  H21 DFJ d   1      24.558  29.079  19.301  0.00  0.00     0.084 H 
ATOM     47  C59 DFJ d   1      24.260  32.530  18.406  0.00  0.00    -0.070 A 
ATOM     48  C60 DFJ d   1      23.061  32.461  17.587  0.00  0.00    -0.076 A 
ATOM     49  H22 DFJ d   1      24.770  33.472  18.571  0.00  0.00     0.084 H 
ATOM     50  H23 DFJ d   1      22.637  33.341  17.117  0.00  0.00     0.084 H 
BRANCH  45  51
ATOM     51  C65 DFJ d   1      25.955  31.320  19.840  0.00  0.00     0.380 C 
ATOM     52  F66 DFJ d   1      26.838  32.344  19.373  0.00  0.00    -0.185 F 
ATOM     53  F67 DFJ d   1      26.629  30.039  19.864  0.00  0.00    -0.185 F 
BRANCH  51  54
ATOM     54  P68 DFJ d   1      25.748  31.613  21.717  0.00  0.00     0.339 P 
ATOM     55  O69 DFJ d   1      27.303  31.394  22.327  0.00  0.00    -0.635 OA
ATOM     56  O70 DFJ d   1      24.636  30.425  22.169  0.00  0.00    -0.635 OA
ATOM     57  O71 DFJ d   1      25.203  33.235  21.884  0.00  0.00    -0.635 OA
ENDBRANCH  51  54
ENDBRANCH  45  51
ENDBRANCH  38  41
ENDBRANCH  31  38
ENDBRANCH  29  31
ENDBRANCH   1  27
BRANCH   1  58
ATOM     58  C7  DFJ d   1      18.614  32.001  11.341  0.00  0.00    -0.014 C 
ATOM     59  H24 DFJ d   1      19.193  32.755  10.788  0.00  0.00     0.043 H 
ATOM     60  H25 DFJ d   1      17.604  31.927  10.912  0.00  0.00     0.043 H 
BRANCH  58  61
ATOM     61  C43 DFJ d   1      19.304  30.656  11.205  0.00  0.00    -0.056 A 
ATOM     62  C46 DFJ d   1      18.506  29.466  11.521  0.00  0.00    -0.077 A 
ATOM     63  C47 DFJ d   1      19.177  28.161  11.395  0.00  0.00    -0.082 A 
ATOM     64  H15 DFJ d   1      17.471  29.544  11.833  0.00  0.00     0.084 H 
ATOM     65  C48 DFJ d   1      20.583  28.118  10.969  0.00  0.00    -0.083 A 
ATOM     66  H16 DFJ d   1      18.641  27.244  11.614  0.00  0.00     0.083 H 
ATOM     67  C49 DFJ d   1      21.356  29.330  10.659  0.00  0.00    -0.082 A 
ATOM     68  H17 DFJ d   1      21.070  27.154  10.880  0.00  0.00     0.083 H 
ATOM     69  C50 DFJ d   1      20.714  30.647  10.774  0.00  0.00    -0.077 A 
ATOM     70  H18 DFJ d   1      22.392  29.253  10.348  0.00  0.00     0.083 H 
ATOM     71  H19 DFJ d   1      21.249  31.564  10.553  0.00  0.00     0.084 H 
ENDBRANCH  58  61
ENDBRANCH   1  58
TORSDOF 14
