REMARK  6 active torsions:
REMARK  status: ('A' for Active; 'I' for Inactive)
REMARK    1  A    between atoms: C11_9  and  C1_1 
REMARK    2  A    between atoms: C21_15  and  C14_12 
REMARK    3  A    between atoms: C22_16  and  C21_15 
REMARK    4  A    between atoms: N45_17  and  C22_16 
REMARK    5  A    between atoms: C22_16  and  C25_25 
REMARK    6  A    between atoms: C10_34  and  N45_17 
ROOT
ATOM      1  C22 F32 d   1      13.943  18.981  80.196  0.00  0.00     0.072 C 
ATOM      2  H11 F32 d   1      13.896  19.164  81.280  0.00  0.00     0.085 H 
ENDROOT
BRANCH   1   3
ATOM      3  C21 F32 d   1      14.542  17.601  79.930  0.00  0.00    -0.015 C 
ATOM      4  H9  F32 d   1      13.788  16.837  80.171  0.00  0.00     0.043 H 
ATOM      5  H10 F32 d   1      14.807  17.531  78.865  0.00  0.00     0.043 H 
BRANCH   3   6
ATOM      6  C14 F32 d   1      15.775  17.339  80.753  0.00  0.00    -0.056 A 
ATOM      7  C13 F32 d   1      17.049  17.015  80.084  0.00  0.00    -0.076 A 
ATOM      8  C12 F32 d   1      18.252  16.757  80.890  0.00  0.00    -0.075 A 
ATOM      9  H6  F32 d   1      17.099  16.967  79.002  0.00  0.00     0.084 H 
ATOM     10  C11 F32 d   1      18.170  16.826  82.354  0.00  0.00    -0.037 A 
ATOM     11  H5  F32 d   1      19.192  16.518  80.406  0.00  0.00     0.084 H 
ATOM     12  C16 F32 d   1      16.898  17.151  83.005  0.00  0.00    -0.075 A 
ATOM     13  C15 F32 d   1      15.701  17.408  82.211  0.00  0.00    -0.076 A 
ATOM     14  H8  F32 d   1      16.846  17.201  84.087  0.00  0.00     0.084 H 
ATOM     15  H7  F32 d   1      14.764  17.648  82.699  0.00  0.00     0.084 H 
BRANCH  10  16
ATOM     16  C1  F32 d   1      19.417  16.540  83.215  0.00  0.00     0.096 C 
ATOM     17  C2  F32 d   1      20.753  17.001  82.691  0.00  0.00     0.032 C 
ATOM     18  C3  F32 d   1      21.846  16.169  83.333  0.00  0.00     0.232 C 
ATOM     19  H2  F32 d   1      20.902  18.062  82.941  0.00  0.00     0.049 H 
ATOM     20  H3  F32 d   1      20.785  16.873  81.599  0.00  0.00     0.049 H 
ATOM     21  N4  F32 d   1      21.419  15.029  83.880  0.00  0.00    -0.254 N 
ATOM     22  O9  F32 d   1      23.036  16.457  83.358  0.00  0.00    -0.273 OA
ATOM     23  S5  F32 d   1      19.681  14.800  83.514  0.00  0.00     0.241 S 
ATOM     24  H4  F32 d   1      21.983  14.399  84.413  0.00  0.00     0.181 HD
ATOM     25  O6  F32 d   1      18.840  14.258  84.841  0.00  0.00    -0.205 OA
ATOM     26  O7  F32 d   1      19.479  13.854  82.129  0.00  0.00    -0.205 OA
ATOM     27  H1  F32 d   1      19.241  17.042  84.178  0.00  0.00     0.075 H 
ENDBRANCH  10  16
ENDBRANCH   3   6
ENDBRANCH   1   3
BRANCH   1  28
ATOM     28  N45 F32 d   1      12.592  18.994  79.637  0.00  0.00    -0.357 N 
ATOM     29  H12 F32 d   1      12.432  18.585  78.705  0.00  0.00     0.162 HD
BRANCH  28  30
ATOM     30  C10 F32 d   1      11.504  19.549  80.336  0.00  0.00     0.168 A 
ATOM     31  S1  F32 d   1       9.874  19.374  79.603  0.00  0.00    -0.050 SA
ATOM     32  C9  F32 d   1       9.143  20.241  80.995  0.00  0.00     0.037 A 
ATOM     33  C8  F32 d   1       7.742  20.607  81.309  0.00  0.00    -0.064 A 
ATOM     34  C18 F32 d   1      10.232  20.597  81.922  0.00  0.00     0.076 A 
ATOM     35  C7  F32 d   1       7.439  21.334  82.560  0.00  0.00    -0.082 A 
ATOM     36  H19 F32 d   1       6.944  20.343  80.625  0.00  0.00     0.085 H 
ATOM     37  C24 F32 d   1       8.537  21.689  83.489  0.00  0.00    -0.081 A 
ATOM     38  H18 F32 d   1       6.417  21.606  82.797  0.00  0.00     0.083 H 
ATOM     39  C20 F32 d   1       9.931  21.319  83.167  0.00  0.00    -0.054 A 
ATOM     40  H21 F32 d   1       8.317  22.221  84.407  0.00  0.00     0.083 H 
ATOM     41  H20 F32 d   1      10.732  21.580  83.849  0.00  0.00     0.087 H 
ATOM     42  N1  F32 d   1      11.555  20.225  81.578  0.00  0.00    -0.223 NA
ENDBRANCH  28  30
ENDBRANCH   1  28
BRANCH   1  43
ATOM     43  C25 F32 d   1      14.808  20.056  79.543  0.00  0.00     0.128 A 
ATOM     44  N11 F32 d   1      15.623  20.888  80.355  0.00  0.00    -0.231 NA
ATOM     45  C23 F32 d   1      16.226  21.607  79.308  0.00  0.00     0.085 A 
ATOM     46  C19 F32 d   1      17.238  22.662  79.449  0.00  0.00    -0.053 A 
ATOM     47  C4  F32 d   1      15.751  21.179  78.021  0.00  0.00     0.062 A 
ATOM     48  C17 F32 d   1      17.770  23.289  78.211  0.00  0.00    -0.081 A 
ATOM     49  H14 F32 d   1      17.587  22.974  80.427  0.00  0.00     0.087 H 
ATOM     50  C6  F32 d   1      17.277  22.847  76.877  0.00  0.00    -0.081 A 
ATOM     51  H13 F32 d   1      18.519  24.070  78.279  0.00  0.00     0.083 H 
ATOM     52  C5  F32 d   1      16.250  21.777  76.772  0.00  0.00    -0.055 A 
ATOM     53  H16 F32 d   1      17.669  23.308  75.978  0.00  0.00     0.083 H 
ATOM     54  H15 F32 d   1      15.881  21.448  75.807  0.00  0.00     0.087 H 
ATOM     55  N13 F32 d   1      14.800  20.150  78.126  0.00  0.00    -0.341 N 
ATOM     56  H17 F32 d   1      14.270  19.633  77.410  0.00  0.00     0.167 HD
ENDBRANCH   1  43
TORSDOF 6
