REMARK  8 active torsions:
REMARK  status: ('A' for Active; 'I' for Inactive)
REMARK    1  A    between atoms: C11_9  and  C1_1 
REMARK    2  A    between atoms: C21_15  and  C14_12 
REMARK    3  A    between atoms: C22_16  and  C21_15 
REMARK    4  A    between atoms: N45_17  and  C22_16 
REMARK    5  A    between atoms: C22_16  and  C25_28 
REMARK    6  A    between atoms: S1_18  and  N45_17 
REMARK    7  A    between atoms: C8_37  and  S1_18 
REMARK    8  A    between atoms: N5_34  and  C20_40 
ROOT
ATOM      1  C22 IZB d   1      14.133  18.990  78.231  0.00  0.00     0.081 C 
ATOM      2  H11 IZB d   1      14.024  19.159  79.312  0.00  0.00     0.086 H 
ENDROOT
BRANCH   1   3
ATOM      3  C21 IZB d   1      14.713  17.590  77.999  0.00  0.00    -0.015 C 
ATOM      4  H9  IZB d   1      13.945  16.841  78.242  0.00  0.00     0.043 H 
ATOM      5  H10 IZB d   1      14.998  17.493  76.941  0.00  0.00     0.043 H 
BRANCH   3   6
ATOM      6  C14 IZB d   1      15.924  17.344  78.856  0.00  0.00    -0.056 A 
ATOM      7  C13 IZB d   1      17.235  17.107  78.229  0.00  0.00    -0.076 A 
ATOM      8  C12 IZB d   1      18.417  16.897  79.069  0.00  0.00    -0.075 A 
ATOM      9  H6  IZB d   1      17.325  17.088  77.149  0.00  0.00     0.084 H 
ATOM     10  C11 IZB d   1      18.284  16.922  80.528  0.00  0.00    -0.037 A 
ATOM     11  H5  IZB d   1      19.385  16.724  78.613  0.00  0.00     0.084 H 
ATOM     12  C16 IZB d   1      16.972  17.161  81.147  0.00  0.00    -0.075 A 
ATOM     13  C15 IZB d   1      15.799  17.371  80.312  0.00  0.00    -0.076 A 
ATOM     14  H8  IZB d   1      16.878  17.181  82.227  0.00  0.00     0.084 H 
ATOM     15  H7  IZB d   1      14.832  17.547  80.770  0.00  0.00     0.084 H 
BRANCH  10  16
ATOM     16  C1  IZB d   1      19.489  16.662  81.406  0.00  0.00     0.096 C 
ATOM     17  C2  IZB d   1      20.821  17.190  80.950  0.00  0.00     0.032 C 
ATOM     18  C3  IZB d   1      21.893  16.394  81.600  0.00  0.00     0.232 C 
ATOM     19  H2  IZB d   1      20.919  18.247  81.237  0.00  0.00     0.049 H 
ATOM     20  H3  IZB d   1      20.902  17.098  79.857  0.00  0.00     0.049 H 
ATOM     21  N4  IZB d   1      21.501  15.185  82.017  0.00  0.00    -0.254 N 
ATOM     22  O9  IZB d   1      23.044  16.768  81.770  0.00  0.00    -0.273 OA
ATOM     23  S5  IZB d   1      19.776  14.917  81.651  0.00  0.00     0.241 S 
ATOM     24  H4  IZB d   1      22.095  14.521  82.472  0.00  0.00     0.181 HD
ATOM     25  O6  IZB d   1      18.972  14.443  82.962  0.00  0.00    -0.205 OA
ATOM     26  O7  IZB d   1      19.642  14.086  80.252  0.00  0.00    -0.205 OA
ATOM     27  H1  IZB d   1      19.263  17.124  82.378  0.00  0.00     0.075 H 
ENDBRANCH  10  16
ENDBRANCH   3   6
ENDBRANCH   1   3
BRANCH   1  28
ATOM     28  N45 IZB d   1      12.810  19.065  77.595  0.00  0.00    -0.303 N 
ATOM     29  H12 IZB d   1      12.532  18.372  76.930  0.00  0.00     0.173 HD
BRANCH  28  30
ATOM     30  S1  IZB d   1      11.716  20.383  78.011  0.00  0.00     0.259 S 
ATOM     31  O1  IZB d   1      10.245  19.786  77.509  0.00  0.00    -0.201 OA
ATOM     32  O2  IZB d   1      11.834  20.658  79.659  0.00  0.00    -0.201 OA
BRANCH  30  33
ATOM     33  C8  IZB d   1      12.301  21.782  77.111  0.00  0.00     0.082 A 
ATOM     34  C7  IZB d   1      13.046  22.801  77.844  0.00  0.00    -0.026 A 
ATOM     35  C24 IZB d   1      13.582  23.957  77.136  0.00  0.00     0.096 A 
ATOM     36  H22 IZB d   1      13.200  22.698  78.912  0.00  0.00     0.090 H 
ATOM     37  O3  IZB d   1      14.207  24.899  77.854  0.00  0.00    -0.347 OA
ATOM     38  C26 IZB d   1      13.430  24.059  75.680  0.00  0.00     0.063 A 
ATOM     39  C18 IZB d   1      15.212  25.606  77.133  0.00  0.00     0.041 C 
ATOM     40  C27 IZB d   1      14.703  26.156  75.807  0.00  0.00     0.015 C 
ATOM     41  H18 IZB d   1      16.049  24.921  76.932  0.00  0.00     0.077 H 
ATOM     42  H19 IZB d   1      15.564  26.445  77.751  0.00  0.00     0.077 H 
ATOM     43  N5  IZB d   1      14.066  25.109  74.992  0.00  0.00    -0.381 N 
ATOM     44  H20 IZB d   1      15.551  26.577  75.247  0.00  0.00     0.067 H 
ATOM     45  H21 IZB d   1      13.967  26.948  76.009  0.00  0.00     0.067 H 
ATOM     46  C10 IZB d   1      12.630  23.073  74.956  0.00  0.00    -0.053 A 
ATOM     47  C9  IZB d   1      12.075  21.927  75.668  0.00  0.00    -0.058 A 
ATOM     48  H24 IZB d   1      12.450  23.193  73.894  0.00  0.00     0.087 H 
ATOM     49  H23 IZB d   1      11.496  21.183  75.132  0.00  0.00     0.086 H 
BRANCH  43  50
ATOM     50  C20 IZB d   1      14.230  25.033  73.538  0.00  0.00    -0.018 C 
ATOM     51  H25 IZB d   1      13.665  24.173  73.150  0.00  0.00     0.056 H 
ATOM     52  H26 IZB d   1      15.296  24.911  73.295  0.00  0.00     0.056 H 
ATOM     53  H27 IZB d   1      13.853  25.958  73.078  0.00  0.00     0.056 H 
ENDBRANCH  43  50
ENDBRANCH  30  33
ENDBRANCH  28  30
ENDBRANCH   1  28
BRANCH   1  54
ATOM     54  C25 IZB d   1      15.058  20.061  77.658  0.00  0.00     0.129 A 
ATOM     55  N11 IZB d   1      15.876  20.926  78.417  0.00  0.00    -0.231 NA
ATOM     56  C23 IZB d   1      16.506  21.739  77.455  0.00  0.00     0.085 A 
ATOM     57  C19 IZB d   1      17.479  22.845  77.599  0.00  0.00    -0.053 A 
ATOM     58  C4  IZB d   1      16.042  21.337  76.121  0.00  0.00     0.062 A 
ATOM     59  C17 IZB d   1      17.985  23.544  76.394  0.00  0.00    -0.081 A 
ATOM     60  H14 IZB d   1      17.821  23.143  78.584  0.00  0.00     0.087 H 
ATOM     61  C6  IZB d   1      17.516  23.138  75.054  0.00  0.00    -0.081 A 
ATOM     62  H13 IZB d   1      18.699  24.353  76.496  0.00  0.00     0.083 H 
ATOM     63  C5  IZB d   1      16.542  22.031  74.917  0.00  0.00    -0.055 A 
ATOM     64  H16 IZB d   1      17.884  23.649  74.172  0.00  0.00     0.083 H 
ATOM     65  H15 IZB d   1      16.197  21.730  73.934  0.00  0.00     0.087 H 
ATOM     66  N13 IZB d   1      15.129  20.273  76.262  0.00  0.00    -0.341 N 
ATOM     67  H17 IZB d   1      14.628  19.766  75.518  0.00  0.00     0.167 HD
ENDBRANCH   1  54
TORSDOF 8
