REMARK  18 active torsions:
REMARK  status: ('A' for Active; 'I' for Inactive)
REMARK    1  A    between atoms: C11_9  and  C1_1 
REMARK    2  A    between atoms: C21_15  and  C14_12 
REMARK    3  A    between atoms: C22_16  and  C21_15 
REMARK    4  A    between atoms: C22_16  and  N45_17 
REMARK    5  A    between atoms: C25_23  and  C22_16 
REMARK    6  A    between atoms: N45_17  and  S1_18 
REMARK    7  A    between atoms: S1_18  and  C8_27 
REMARK    8  A    between atoms: C23_21  and  N11_22 
REMARK    9  A    between atoms: C18_31  and  C23_21 
REMARK       I    between atoms: N11_22  and  C25_23 
REMARK   10  A    between atoms: C27_30  and  C18_31 
REMARK   11  A    between atoms: C4_34  and  C27_30 
REMARK   12  A    between atoms: C5_35  and  C4_34 
REMARK   13  A    between atoms: O5_47  and  C5_35 
REMARK   14  A    between atoms: C32_36  and  O5_47 
REMARK   15  A    between atoms: C36_40  and  O14_46 
REMARK   16  A    between atoms: C37_41  and  C38_42 
REMARK   17  A    between atoms: C38_42  and  O4_44 
REMARK   18  A    between atoms: O4_44  and  C39_45 
ROOT
ATOM      1  C22 IZF d   1      13.696  18.960  78.636  0.00  0.00     0.100 C 
ATOM      2  H10 IZF d   1      13.545  19.183  79.703  0.00  0.00     0.088 H 
ENDROOT
BRANCH   1   3
ATOM      3  C21 IZF d   1      14.299  17.561  78.487  0.00  0.00    -0.013 C 
ATOM      4  H8  IZF d   1      13.534  16.814  78.744  0.00  0.00     0.043 H 
ATOM      5  H9  IZF d   1      14.615  17.418  77.443  0.00  0.00     0.043 H 
BRANCH   3   6
ATOM      6  C14 IZF d   1      15.489  17.369  79.387  0.00  0.00    -0.054 A 
ATOM      7  C13 IZF d   1      16.822  17.147  78.810  0.00  0.00    -0.076 A 
ATOM      8  C12 IZF d   1      17.976  16.951  79.695  0.00  0.00    -0.073 A 
ATOM      9  H6  IZF d   1      16.953  17.128  77.734  0.00  0.00     0.084 H 
ATOM     10  C11 IZF d   1      17.789  16.980  81.146  0.00  0.00    -0.016 A 
ATOM     11  H5  IZF d   1      18.962  16.786  79.276  0.00  0.00     0.084 H 
ATOM     12  C16 IZF d   1      16.455  17.209  81.709  0.00  0.00     0.042 A 
ATOM     13  C15 IZF d   1      15.314  17.401  80.833  0.00  0.00    -0.055 A 
ATOM     14 CL1  IZF d   1      16.249  17.264  83.370  0.00  0.00    -0.084 Cl
ATOM     15  H7  IZF d   1      14.330  17.569  81.255  0.00  0.00     0.086 H 
BRANCH  10  16
ATOM     16  C1  IZF d   1      18.979  16.751  82.081  0.00  0.00     0.098 C 
ATOM     17  C2  IZF d   1      20.288  17.352  81.638  0.00  0.00     0.032 C 
ATOM     18  C3  IZF d   1      21.396  16.613  82.288  0.00  0.00     0.232 C 
ATOM     19  H2  IZF d   1      20.327  18.411  81.932  0.00  0.00     0.049 H 
ATOM     20  H3  IZF d   1      20.381  17.271  80.545  0.00  0.00     0.049 H 
ATOM     21  N4  IZF d   1      21.072  15.383  82.697  0.00  0.00    -0.254 N 
ATOM     22  O9  IZF d   1      22.514  17.071  82.485  0.00  0.00    -0.273 OA
ATOM     23  S5  IZF d   1      19.360  14.985  82.343  0.00  0.00     0.241 S 
ATOM     24  H4  IZF d   1      21.709  14.758  83.148  0.00  0.00     0.181 HD
ATOM     25  O6  IZF d   1      18.498  14.597  83.720  0.00  0.00    -0.205 OA
ATOM     26  O7  IZF d   1      19.082  14.118  80.917  0.00  0.00    -0.205 OA
ATOM     27  H1  IZF d   1      18.706  17.200  83.047  0.00  0.00     0.075 H 
ENDBRANCH  10  16
ENDBRANCH   3   6
ENDBRANCH   1   3
BRANCH   1  28
ATOM     28  N45 IZF d   1      12.388  18.982  77.962  0.00  0.00    -0.301 N 
ATOM     29  H11 IZF d   1      12.149  18.237  77.340  0.00  0.00     0.173 HD
BRANCH  28  30
ATOM     30  S1  IZF d   1      11.244  20.270  78.218  0.00  0.00     0.259 S 
ATOM     31  O1  IZF d   1       9.642  19.625  78.016  0.00  0.00    -0.201 OA
ATOM     32  O2  IZF d   1      11.524  20.818  79.774  0.00  0.00    -0.201 OA
BRANCH  30  33
ATOM     33  C8  IZF d   1      11.661  21.458  76.964  0.00  0.00     0.079 A 
ATOM     34  C7  IZF d   1      11.161  21.348  75.592  0.00  0.00    -0.060 A 
ATOM     35  C24 IZF d   1      11.553  22.342  74.589  0.00  0.00    -0.082 A 
ATOM     36  H17 IZF d   1      10.502  20.532  75.319  0.00  0.00     0.085 H 
ATOM     37  C26 IZF d   1      12.447  23.443  74.962  0.00  0.00    -0.083 A 
ATOM     38  H15 IZF d   1      11.183  22.264  73.573  0.00  0.00     0.083 H 
ATOM     39  C10 IZF d   1      12.947  23.551  76.336  0.00  0.00    -0.082 A 
ATOM     40  H16 IZF d   1      12.739  24.178  74.221  0.00  0.00     0.083 H 
ATOM     41  C9  IZF d   1      12.552  22.558  77.338  0.00  0.00    -0.060 A 
ATOM     42  H19 IZF d   1      13.608  24.365  76.610  0.00  0.00     0.083 H 
ATOM     43  H18 IZF d   1      12.919  22.637  78.355  0.00  0.00     0.085 H 
ENDBRANCH  30  33
ENDBRANCH  28  30
ENDBRANCH   1  28
BRANCH   1  44
ATOM     44  C25 IZF d   1      14.674  19.971  78.063  0.00  0.00     0.241 C 
ATOM     45  N11 IZF d   1      14.790  20.025  76.740  0.00  0.00    -0.359 N 
ATOM     46  H14 IZF d   1      14.286  19.358  76.191  0.00  0.00     0.162 HD
ATOM     47  O3  IZF d   1      15.355  20.690  78.789  0.00  0.00    -0.271 OA
BRANCH  45  48
ATOM     48  C23 IZF d   1      15.624  21.019  76.043  0.00  0.00    -0.005 C 
ATOM     49  H12 IZF d   1      15.803  21.862  76.727  0.00  0.00     0.064 H 
ATOM     50  H13 IZF d   1      15.073  21.374  75.159  0.00  0.00     0.064 H 
BRANCH  48  51
ATOM     51  C18 IZF d   1      16.993  20.472  75.576  0.00  0.00    -0.050 C 
ATOM     52  H22 IZF d   1      17.516  20.052  76.448  0.00  0.00     0.035 H 
ATOM     53  H23 IZF d   1      17.579  21.307  75.164  0.00  0.00     0.035 H 
BRANCH  51  54
ATOM     54  C27 IZF d   1      16.884  19.385  74.509  0.00  0.00    -0.062 C 
ATOM     55  H20 IZF d   1      17.828  19.341  73.947  0.00  0.00     0.033 H 
ATOM     56  H21 IZF d   1      16.061  19.639  73.824  0.00  0.00     0.033 H 
BRANCH  54  57
ATOM     57  C4  IZF d   1      16.611  18.016  75.124  0.00  0.00    -0.045 C 
ATOM     58  H24 IZF d   1      15.639  18.042  75.638  0.00  0.00     0.036 H 
ATOM     59  H25 IZF d   1      17.404  17.786  75.850  0.00  0.00     0.036 H 
BRANCH  57  60
ATOM     60  C5  IZF d   1      16.580  16.924  74.061  0.00  0.00     0.026 C 
ATOM     61  H26 IZF d   1      15.877  17.223  73.269  0.00  0.00     0.075 H 
ATOM     62  H27 IZF d   1      16.233  15.989  74.526  0.00  0.00     0.075 H 
BRANCH  60  63
ATOM     63  O5  IZF d   1      17.850  16.697  73.478  0.00  0.00    -0.350 OA
BRANCH  63  64
ATOM     64  C32 IZF d   1      18.056  16.254  72.231  0.00  0.00     0.087 A 
ATOM     65  C33 IZF d   1      17.059  15.408  71.580  0.00  0.00    -0.050 A 
ATOM     66  C34 IZF d   1      17.294  14.916  70.222  0.00  0.00    -0.078 A 
ATOM     67  H28 IZF d   1      16.146  15.145  72.102  0.00  0.00     0.087 H 
ATOM     68  C35 IZF d   1      18.524  15.268  69.523  0.00  0.00    -0.050 A 
ATOM     69  H29 IZF d   1      16.554  14.290  69.736  0.00  0.00     0.083 H 
ATOM     70  C36 IZF d   1      19.516  16.111  70.179  0.00  0.00     0.084 A 
ATOM     71  H30 IZF d   1      18.701  14.904  68.517  0.00  0.00     0.087 H 
ATOM     72  C37 IZF d   1      19.275  16.605  71.535  0.00  0.00     0.105 A 
BRANCH  70  73
ATOM     73  O14 IZF d   1      20.657  16.422  69.545  0.00  0.00    -0.360 OA
ATOM     74  H34 IZF d   1      20.656  16.026  68.681  0.00  0.00     0.217 HD
ENDBRANCH  70  73
BRANCH  72  75
ATOM     75  C38 IZF d   1      20.297  17.488  72.211  0.00  0.00     0.298 C 
ATOM     76  O11 IZF d   1      21.476  17.034  72.417  0.00  0.00    -0.259 OA
BRANCH  75  77
ATOM     77  O4  IZF d   1      19.920  18.619  72.664  0.00  0.00    -0.322 OA
BRANCH  77  78
ATOM     78  C39 IZF d   1      20.806  19.324  73.386  0.00  0.00     0.013 C 
ATOM     79  H31 IZF d   1      20.346  20.270  73.708  0.00  0.00     0.067 H 
ATOM     80  H32 IZF d   1      21.693  19.538  72.771  0.00  0.00     0.067 H 
ATOM     81  H33 IZF d   1      21.105  18.742  74.270  0.00  0.00     0.067 H 
ENDBRANCH  77  78
ENDBRANCH  75  77
ENDBRANCH  72  75
ENDBRANCH  63  64
ENDBRANCH  60  63
ENDBRANCH  57  60
ENDBRANCH  54  57
ENDBRANCH  51  54
ENDBRANCH  48  51
ENDBRANCH  45  48
ENDBRANCH   1  44
TORSDOF 18
