REMARK  26 active torsions:
REMARK  status: ('A' for Active; 'I' for Inactive)
REMARK    1  A    between atoms: N_1  and  CA_2 
REMARK    2  A    between atoms: CA_2  and  C_3 
REMARK    3  A    between atoms: CA_2  and  CB_5 
REMARK       I    between atoms: C_3  and  N_6 
REMARK    4  A    between atoms: N_6  and  CA_7 
REMARK    5  A    between atoms: CA_7  and  C_8 
REMARK    6  A    between atoms: CA_7  and  CB_10 
REMARK       I    between atoms: C_8  and  N_17 
REMARK    7  A    between atoms: CB_10  and  CG_11 
REMARK    8  A    between atoms: CG_11  and  CD_12 
REMARK    9  A    between atoms: CD_12  and  NE_13 
REMARK       I    between atoms: NE_13  and  CZ_14 
REMARK       I    between atoms: CZ_14  and  NH1_15 
REMARK   10  A    between atoms: N_17  and  CA_18 
REMARK   11  A    between atoms: CA_18  and  C_19 
REMARK   12  A    between atoms: CA_18  and  CB_21 
REMARK       I    between atoms: C_19  and  N_24 
REMARK   13  A    between atoms: CB_21  and  OG1_22 
REMARK   14  A    between atoms: CB_21  and  CG2_23 
REMARK   15  A    between atoms: N_24  and  CA_25 
REMARK   16  A    between atoms: CA_25  and  C_26 
REMARK   17  A    between atoms: CA_25  and  CB_28 
REMARK       I    between atoms: C_26  and  N_33 
REMARK   18  A    between atoms: CB_28  and  CG_29 
REMARK   19  A    between atoms: CG_29  and  CD_30 
REMARK   20  A    between atoms: CD_30  and  CE_31 
REMARK   21  A    between atoms: CE_31  and  NZ_32 
REMARK   22  A    between atoms: N_33  and  CA_34 
REMARK   23  A    between atoms: CA_34  and  C_35 
REMARK   24  A    between atoms: CA_34  and  CB_37 
REMARK       I    between atoms: C_35  and  N_42 
REMARK   25  A    between atoms: CB_37  and  CG_38 
REMARK   26  A    between atoms: CG_38  and  CD_39 
REMARK       I    between atoms: CD_39  and  NE2_41 
ROOT
ATOM      1  CA  THR d   1       6.380   5.826   3.974  0.00  0.00     0.113 C 
ATOM      2  H22 THR d   1       7.027   5.910   4.859  0.00  0.00     0.091 H 
ENDROOT
BRANCH   1   3
ATOM      3  N   THR d   1       6.670   4.540   3.354  0.00  0.00    -0.344 N 
ATOM      4  C   ARG d   1       6.662   3.402   4.037  0.00  0.00     0.241 C 
ATOM      5  O   ARG d   1       6.389   3.340   5.231  0.00  0.00    -0.271 OA
ATOM      6  H21 THR d   1       6.883   4.514   2.377  0.00  0.00     0.163 HD
BRANCH   4   7
ATOM      7  CA  ARG d   1       6.999   2.143   3.230  0.00  0.00     0.089 C 
ATOM      8  H9  ARG d   1       6.476   1.265   3.636  0.00  0.00     0.087 H 
BRANCH   7   9
ATOM      9  N   ARG d   1       6.548   2.436   1.870  0.00  0.00    -0.346 N 
ATOM     10  C   ALA d   1       5.279   2.736   1.595  0.00  0.00     0.248 C 
ATOM     11  O   ALA d   1       4.383   2.724   2.437  0.00  0.00    -0.271 OA
ATOM     12  H8  ARG d   1       7.213   2.410   1.123  0.00  0.00     0.163 HD
BRANCH  10  13
ATOM     13  CA  ALA d   1       4.969   3.085   0.146  0.00  0.00     0.172 C 
ATOM     14  H4  ALA d   1       4.473   4.066   0.128  0.00  0.00     0.098 H 
BRANCH  13  15
ATOM     15  N   ALA d   1       6.217   3.183  -0.678  0.00  0.00    -0.067 N 
ATOM     16  H1  ALA d   1       5.975   3.415  -1.629  0.00  0.00     0.275 HD
ATOM     17  H2  ALA d   1       6.701   2.299  -0.661  0.00  0.00     0.275 HD
ATOM     18  H3  ALA d   1       6.814   3.901  -0.299  0.00  0.00     0.275 HD
ENDBRANCH  13  15
BRANCH  13  19
ATOM     19  CB  ALA d   1       4.028   2.070  -0.428  0.00  0.00    -0.042 C 
ATOM     20  H5  ALA d   1       3.122   2.017   0.194  0.00  0.00     0.030 H 
ATOM     21  H6  ALA d   1       4.518   1.085  -0.447  0.00  0.00     0.030 H 
ATOM     22  H7  ALA d   1       3.753   2.362  -1.452  0.00  0.00     0.030 H 
ENDBRANCH  13  19
ENDBRANCH  10  13
ENDBRANCH   7   9
BRANCH   7  23
ATOM     23  CB  ARG d   1       8.522   1.899   3.242  0.00  0.00    -0.036 C 
ATOM     24  H10 ARG d   1       9.006   2.753   2.745  0.00  0.00     0.036 H 
ATOM     25  H11 ARG d   1       8.723   0.980   2.671  0.00  0.00     0.036 H 
BRANCH  23  26
ATOM     26  CG  ARG d   1       9.153   1.740   4.634  0.00  0.00    -0.048 C 
ATOM     27  H12 ARG d   1       8.764   0.823   5.099  0.00  0.00     0.035 H 
ATOM     28  H13 ARG d   1       8.880   2.609   5.251  0.00  0.00     0.035 H 
BRANCH  26  29
ATOM     29  CD  ARG d   1      10.691   1.647   4.555  0.00  0.00     0.009 C 
ATOM     30  H14 ARG d   1      11.094   1.563   5.575  0.00  0.00     0.064 H 
ATOM     31  H15 ARG d   1      11.077   2.562   4.082  0.00  0.00     0.064 H 
BRANCH  29  32
ATOM     32  NE  ARG d   1      11.137   0.490   3.776  0.00  0.00    -0.227 N 
ATOM     33  CZ  ARG d   1      11.315  -0.736   4.271  0.00  0.00     0.665 C 
ATOM     34  NH1 ARG d   1      11.096  -0.977   5.558  0.00  0.00    -0.235 N 
ATOM     35  NH2 ARG d   1      11.687  -1.729   3.472  0.00  0.00    -0.235 N 
ATOM     36  H17 ARG d   1      11.235  -1.925   5.935  0.00  0.00     0.174 HD
ATOM     37  H18 ARG d   1      10.787  -0.216   6.179  0.00  0.00     0.174 HD
ATOM     38  H19 ARG d   1      11.859  -1.549   2.473  0.00  0.00     0.174 HD
ATOM     39  H20 ARG d   1      11.804  -2.679   3.852  0.00  0.00     0.174 HD
ATOM     40  H16 ARG d   1      11.327   0.633   2.774  0.00  0.00     0.177 HD
ENDBRANCH  29  32
ENDBRANCH  26  29
ENDBRANCH  23  26
ENDBRANCH   7  23
ENDBRANCH   4   7
ENDBRANCH   1   3
BRANCH   1  41
ATOM     41  C   THR d   1       4.939   6.001   4.437  0.00  0.00     0.243 C 
ATOM     42  O   THR d   1       4.618   6.973   5.117  0.00  0.00    -0.271 OA
ATOM     43  N   LYS d   1       4.067   5.084   4.043  0.00  0.00    -0.346 N 
ATOM     44  H28 LYS d   1       4.370   4.339   3.449  0.00  0.00     0.163 HD
BRANCH  43  45
ATOM     45  CA  LYS d   1       2.676   5.145   4.461  0.00  0.00     0.089 C 
ATOM     46  H29 LYS d   1       2.485   6.094   4.983  0.00  0.00     0.087 H 
BRANCH  45  47
ATOM     47  C   LYS d   1       2.460   3.981   5.395  0.00  0.00     0.241 C 
ATOM     48  O   LYS d   1       3.203   3.002   5.344  0.00  0.00    -0.271 OA
ATOM     49  N   GLN d   1       1.452   4.076   6.251  0.00  0.00    -0.346 N 
ATOM     50  H41 GLN d   1       0.871   4.890   6.250  0.00  0.00     0.163 HD
BRANCH  49  51
ATOM     51  CA  GLN d   1       1.190   2.996   7.193  0.00  0.00     0.089 C 
ATOM     52  H42 GLN d   1       2.138   2.482   7.412  0.00  0.00     0.087 H 
BRANCH  51  53
ATOM     53  C   GLN d   1       0.202   1.975   6.619  0.00  0.00     0.238 C 
ATOM     54  O   GLN d   1      -0.849   2.409   6.084  0.00  0.00    -0.271 OA
ATOM     55  N   THR d   1       0.493   0.757   6.721  0.00  0.00    -0.368 N 
ATOM     56  H49 THR d   1      -0.128   0.062   6.358  0.00  0.00     0.159 HD
ATOM     57  H50 THR d   1       1.346   0.482   7.165  0.00  0.00     0.159 HD
ENDBRANCH  51  53
BRANCH  51  58
ATOM     58  CB  GLN d   1       0.633   3.580   8.480  0.00  0.00    -0.030 C 
ATOM     59  H43 GLN d   1      -0.317   4.084   8.250  0.00  0.00     0.037 H 
ATOM     60  H44 GLN d   1       1.353   4.315   8.868  0.00  0.00     0.037 H 
BRANCH  58  61
ATOM     61  CG  GLN d   1       0.379   2.553   9.552  0.00  0.00     0.011 C 
ATOM     62  H45 GLN d   1       1.339   2.264  10.005  0.00  0.00     0.047 H 
ATOM     63  H46 GLN d   1      -0.092   1.670   9.096  0.00  0.00     0.047 H 
BRANCH  61  64
ATOM     64  CD  GLN d   1      -0.530   3.093  10.631  0.00  0.00     0.215 C 
ATOM     65  OE1 GLN d   1      -0.455   4.274  10.983  0.00  0.00    -0.274 OA
ATOM     66  NE2 GLN d   1      -1.386   2.231  11.175  0.00  0.00    -0.370 N 
ATOM     67  H47 GLN d   1      -2.012   2.534  11.894  0.00  0.00     0.159 HD
ATOM     68  H48 GLN d   1      -1.403   1.280  10.865  0.00  0.00     0.159 HD
ENDBRANCH  61  64
ENDBRANCH  58  61
ENDBRANCH  51  58
ENDBRANCH  49  51
ENDBRANCH  45  47
BRANCH  45  69
ATOM     69  CB  LYS d   1       1.724   5.021   3.279  0.00  0.00    -0.038 C 
ATOM     70  H30 LYS d   1       0.802   4.531   3.626  0.00  0.00     0.036 H 
ATOM     71  H31 LYS d   1       2.204   4.397   2.510  0.00  0.00     0.036 H 
BRANCH  69  72
ATOM     72  CG  LYS d   1       1.355   6.344   2.656  0.00  0.00    -0.061 C 
ATOM     73  H32 LYS d   1       2.255   6.792   2.210  0.00  0.00     0.033 H 
ATOM     74  H33 LYS d   1       0.963   7.010   3.438  0.00  0.00     0.033 H 
BRANCH  72  75
ATOM     75  CD  LYS d   1       0.300   6.176   1.576  0.00  0.00    -0.043 C 
ATOM     76  H34 LYS d   1      -0.679   6.002   2.046  0.00  0.00     0.035 H 
ATOM     77  H35 LYS d   1       0.561   5.315   0.942  0.00  0.00     0.035 H 
BRANCH  75  78
ATOM     78  CE  LYS d   1       0.232   7.425   0.723  0.00  0.00     0.080 C 
ATOM     79  H36 LYS d   1       1.243   7.661   0.360  0.00  0.00     0.075 H 
ATOM     80  H37 LYS d   1      -0.139   8.256   1.341  0.00  0.00     0.075 H 
BRANCH  78  81
ATOM     81  NZ  LYS d   1      -0.663   7.260  -0.438  0.00  0.00    -0.079 N 
ATOM     82  H38 LYS d   1      -0.677   8.113  -0.975  0.00  0.00     0.274 HD
ATOM     83  H39 LYS d   1      -1.595   7.050  -0.117  0.00  0.00     0.274 HD
ATOM     84  H40 LYS d   1      -0.328   6.505  -1.016  0.00  0.00     0.274 HD
ENDBRANCH  78  81
ENDBRANCH  75  78
ENDBRANCH  72  75
ENDBRANCH  69  72
ENDBRANCH  45  69
ENDBRANCH  43  45
ENDBRANCH   1  41
BRANCH   1  85
ATOM     85  CB  THR d   1       6.711   6.977   3.022  0.00  0.00     0.060 C 
ATOM     86  H23 THR d   1       6.506   7.933   3.525  0.00  0.00     0.086 H 
BRANCH  85  87
ATOM     87  OG1 THR d   1       5.894   6.873   1.853  0.00  0.00    -0.393 OA
ATOM     88  H24 THR d   1       4.979   6.919   2.103  0.00  0.00     0.210 HD
ENDBRANCH  85  87
BRANCH  85  89
ATOM     89  CG2 THR d   1       8.171   6.926   2.629  0.00  0.00    -0.050 C 
ATOM     90  H25 THR d   1       8.396   7.758   1.945  0.00  0.00     0.031 H 
ATOM     91  H26 THR d   1       8.382   5.971   2.126  0.00  0.00     0.031 H 
ATOM     92  H27 THR d   1       8.796   7.013   3.530  0.00  0.00     0.031 H 
ENDBRANCH  85  89
ENDBRANCH   1  85
TORSDOF 26
