REMARK  5 active torsions:
REMARK  status: ('A' for Active; 'I' for Inactive)
REMARK    1  A    between atoms: N_1  and  CA_2 
REMARK    2  A    between atoms: CA_2  and  C_3 
REMARK    3  A    between atoms: CA_2  and  CB_5 
REMARK    4  A    between atoms: CB_5  and  CG_6 
REMARK    5  A    between atoms: CZ_11  and  OH_12 
ROOT
ATOM      1  CG  TYR d   1      72.457  73.006  20.228  0.00  0.00    -0.056 A 
ATOM      2  CD1 TYR d   1      72.751  74.369  20.148  0.00  0.00    -0.074 A 
ATOM      3  CD2 TYR d   1      73.093  72.260  21.223  0.00  0.00    -0.074 A 
ATOM      4  CE1 TYR d   1      73.644  74.979  21.045  0.00  0.00    -0.051 A 
ATOM      5  CE2 TYR d   1      73.988  72.862  22.124  0.00  0.00    -0.051 A 
ATOM      6  CZ  TYR d   1      74.254  74.219  22.031  0.00  0.00     0.065 A 
ATOM      7  H7  TYR d   1      72.280  74.969  19.378  0.00  0.00     0.084 H 
ATOM      8  H8  TYR d   1      72.893  71.198  21.302  0.00  0.00     0.084 H 
ATOM      9  H9  TYR d   1      73.855  76.039  20.966  0.00  0.00     0.087 H 
ATOM     10  H10 TYR d   1      74.470  72.266  22.891  0.00  0.00     0.087 H 
ENDROOT
BRANCH   1  11
ATOM     11  CB  TYR d   1      71.405  72.376  19.331  0.00  0.00    -0.005 C 
ATOM     12  H5  TYR d   1      71.163  71.383  19.739  0.00  0.00     0.044 H 
ATOM     13  H6  TYR d   1      70.509  73.013  19.362  0.00  0.00     0.044 H 
BRANCH  11  14
ATOM     14  CA  TYR d   1      71.806  72.197  17.862  0.00  0.00     0.186 C 
ATOM     15  H4  TYR d   1      71.012  71.638  17.346  0.00  0.00     0.101 H 
BRANCH  14  16
ATOM     16  N   TYR d   1      73.069  71.450  17.768  0.00  0.00    -0.065 N 
ATOM     17  H1  TYR d   1      72.965  70.555  18.220  0.00  0.00     0.275 HD
ATOM     18  H2  TYR d   1      73.803  71.972  18.221  0.00  0.00     0.275 HD
ATOM     19  H3  TYR d   1      73.305  71.311  16.798  0.00  0.00     0.275 HD
ENDBRANCH  14  16
BRANCH  14  20
ATOM     20  C   TYR d   1      72.003  73.533  17.172  0.00  0.00     0.204 C 
ATOM     21  O   TYR d   1      73.150  73.880  16.834  0.00  0.00    -0.646 OA
ATOM     22  OXT TYR d   1      70.993  74.188  16.908  0.00  0.00    -0.646 OA
ENDBRANCH  14  20
ENDBRANCH  11  14
ENDBRANCH   1  11
BRANCH   6  23
ATOM     23  OH  TYR d   1      75.099  74.803  22.957  0.00  0.00    -0.361 OA
ATOM     24  H11 TYR d   1      75.184  75.730  22.766  0.00  0.00     0.217 HD
ENDBRANCH   6  23
TORSDOF 5
