REMARK  16 active torsions:
REMARK  status: ('A' for Active; 'I' for Inactive)
REMARK    1  A    between atoms: N_1  and  CA_2 
REMARK    2  A    between atoms: CA_2  and  C_3 
REMARK    3  A    between atoms: CA_2  and  CB_5 
REMARK       I    between atoms: C_3  and  N1_8 
REMARK    4  A    between atoms: CB_5  and  OG1_6 
REMARK    5  A    between atoms: CB_5  and  CG2_7 
REMARK    6  A    between atoms: N1_8  and  C1_9 
REMARK    7  A    between atoms: C21_12  and  C31_14 
REMARK    8  A    between atoms: C2_16  and  C22_19 
REMARK    9  A    between atoms: C22_19  and  CG_20 
REMARK   10  A    between atoms: CG_20  and  CD1_21 
REMARK   11  A    between atoms: CG_20  and  CD2_22 
REMARK   12  A    between atoms: C4_33  and  C24_36 
REMARK   13  A    between atoms: C24_36  and  C33_37 
REMARK   14  A    between atoms: C8_64  and  C28_67 
REMARK   15  A    between atoms: C28_67  and  C36_68 
REMARK   16  A    between atoms: C10_85  and  C30_88 
ROOT
ATOM      1  C1  THR d   1      36.723 -20.121  37.791  0.00  0.00     0.114 C 
ATOM      2  C11 THR d   1      36.230 -21.146  36.804  0.00  0.00     0.243 C 
ATOM      3  O3  THR d   1      36.722 -21.192  35.667  0.00  0.00    -0.271 OA
ATOM      4  C21 THR d   1      35.622 -19.142  38.149  0.00  0.00     0.072 C 
ATOM      5  O12 THR d   1      35.452 -18.084  37.115  0.00  0.00    -0.314 OA
ATOM      6  H11 THR d   1      37.064 -20.640  38.699  0.00  0.00     0.091 H 
ATOM      7  H12 THR d   1      34.677 -19.698  38.230  0.00  0.00     0.087 H 
ATOM      8  N2  LEU d   1      35.371 -22.057  37.315  0.00  0.00    -0.346 N 
ATOM      9  C2  LEU d   1      35.132 -23.242  36.435  0.00  0.00     0.089 C 
ATOM     10  C12 LEU d   1      33.759 -23.335  35.809  0.00  0.00     0.241 C 
ATOM     11  O4  LEU d   1      33.116 -24.394  35.799  0.00  0.00    -0.271 OA
ATOM     12  H16 LEU d   1      34.932 -21.947  38.207  0.00  0.00     0.163 HD
ATOM     13  H17 LEU d   1      35.853 -23.162  35.608  0.00  0.00     0.087 H 
ATOM     14  N3  LYS d   1      33.337 -22.170  35.315  0.00  0.00    -0.346 N 
ATOM     15  C3  LYS d   1      32.050 -22.127  34.641  0.00  0.00     0.089 C 
ATOM     16  C13 LYS d   1      32.348 -22.396  33.168  0.00  0.00     0.241 C 
ATOM     17  O5  LYS d   1      33.397 -21.996  32.694  0.00  0.00    -0.271 OA
ATOM     18  C23 LYS d   1      31.433 -20.759  34.826  0.00  0.00    -0.038 C 
ATOM     19  C32 LYS d   1      30.057 -20.584  34.141  0.00  0.00    -0.061 C 
ATOM     20  CD  LYS d   1      29.522 -19.162  34.435  0.00  0.00    -0.050 C 
ATOM     21  CE  LYS d   1      28.109 -18.880  33.825  0.00  0.00    -0.005 C 
ATOM     22  NZ  LYS d   1      27.957 -19.163  32.380  0.00  0.00    -0.361 N 
ATOM     23  H27 LYS d   1      33.894 -21.344  35.406  0.00  0.00     0.163 HD
ATOM     24  H28 LYS d   1      31.374 -22.896  35.043  0.00  0.00     0.087 H 
ATOM     25  H29 LYS d   1      32.123 -20.011  34.409  0.00  0.00     0.036 H 
ATOM     26  H30 LYS d   1      31.306 -20.581  35.904  0.00  0.00     0.036 H 
ATOM     27  H31 LYS d   1      29.352 -21.331  34.534  0.00  0.00     0.033 H 
ATOM     28  H32 LYS d   1      30.166 -20.719  33.055  0.00  0.00     0.033 H 
ATOM     29  H33 LYS d   1      30.231 -18.432  34.019  0.00  0.00     0.035 H 
ATOM     30  H34 LYS d   1      29.461 -19.033  35.526  0.00  0.00     0.035 H 
ATOM     31  H35 LYS d   1      27.880 -17.816  33.985  0.00  0.00     0.064 H 
ATOM     32  H36 LYS d   1      27.379 -19.498  34.367  0.00  0.00     0.064 H 
ATOM     33  H37 LYS d   1      27.743 -20.093  32.080  0.00  0.00     0.162 HD
ATOM     34  N4  PHE d   1      31.368 -23.064  32.475  0.00  0.00    -0.346 N 
ATOM     35  C4  PHE d   1      31.596 -23.338  31.046  0.00  0.00     0.093 C 
ATOM     36  C14 PHE d   1      30.766 -22.375  30.160  0.00  0.00     0.243 C 
ATOM     37  O6  PHE d   1      29.546 -22.223  30.448  0.00  0.00    -0.271 OA
ATOM     38  H38 PHE d   1      30.525 -23.355  32.927  0.00  0.00     0.163 HD
ATOM     39  H39 PHE d   1      32.665 -23.212  30.819  0.00  0.00     0.088 H 
ATOM     40  N5  PRO d   1      31.318 -21.911  28.970  0.00  0.00    -0.337 N 
ATOM     41  C5  PRO d   1      32.737 -21.979  28.540  0.00  0.00     0.091 A 
ATOM     42  C15 PRO d   1      33.788 -21.323  29.422  0.00  0.00     0.241 C 
ATOM     43  O7  PRO d   1      34.925 -21.794  29.442  0.00  0.00    -0.271 OA
ATOM     44  C25 PRO d   1      32.738 -21.428  27.108  0.00  0.00    -0.036 A 
ATOM     45  C34 PRO d   1      31.303 -20.939  26.791  0.00  0.00    -0.048 A 
ATOM     46  C42 PRO d   1      30.449 -21.318  27.970  0.00  0.00    -0.001 A 
ATOM     47  H47 PRO d   1      33.010 -23.044  28.498  0.00  0.00     0.087 H 
ATOM     48  H48 PRO d   1      33.029 -22.220  26.402  0.00  0.00     0.036 H 
ATOM     49  H49 PRO d   1      33.446 -20.589  27.030  0.00  0.00     0.036 H 
ATOM     50  H50 PRO d   1      30.929 -21.427  25.879  0.00  0.00     0.035 H 
ATOM     51  H51 PRO d   1      31.296 -19.848  26.652  0.00  0.00     0.035 H 
ATOM     52  H52 PRO d   1      29.960 -20.423  28.382  0.00  0.00     0.064 H 
ATOM     53  H53 PRO d   1      29.683 -22.045  27.660  0.00  0.00     0.064 H 
ATOM     54  N6  SER d   1      33.364 -20.270  30.134  0.00  0.00    -0.344 N 
ATOM     55  C6  SER d   1      34.296 -19.620  31.058  0.00  0.00     0.110 C 
ATOM     56  C16 SER d   1      33.480 -18.791  32.031  0.00  0.00     0.243 C 
ATOM     57  O8  SER d   1      32.254 -18.664  31.923  0.00  0.00    -0.271 OA
ATOM     58  C26 SER d   1      35.252 -18.675  30.248  0.00  0.00     0.056 C 
ATOM     59  OG  SER d   1      34.473 -17.561  29.652  0.00  0.00    -0.319 OA
ATOM     60  H54 SER d   1      32.427 -19.934  30.036  0.00  0.00     0.163 HD
ATOM     61  H55 SER d   1      34.884 -20.375  31.600  0.00  0.00     0.090 H 
ATOM     62  H56 SER d   1      35.739 -19.249  29.446  0.00  0.00     0.079 H 
ATOM     63  H57 SER d   1      36.018 -18.265  30.923  0.00  0.00     0.079 H 
ATOM     64  N7  ASP d   1      34.208 -18.243  33.023  0.00  0.00    -0.345 N 
ATOM     65  C7  ASP d   1      33.511 -17.427  34.020  0.00  0.00     0.098 C 
ATOM     66  C17 ASP d   1      32.835 -16.142  33.528  0.00  0.00     0.241 C 
ATOM     67  O9  ASP d   1      31.747 -15.769  34.011  0.00  0.00    -0.271 OA
ATOM     68  C27 ASP d   1      34.513 -17.070  35.133  0.00  0.00     0.043 C 
ATOM     69  C35 ASP d   1      34.609 -18.253  36.083  0.00  0.00     0.261 C 
ATOM     70  OD1 ASP d   1      33.963 -19.286  35.937  0.00  0.00    -0.265 OA
ATOM     71  N9  ASP d   1      32.400 -15.778  30.142  0.00  0.00    -0.346 N 
ATOM     72  C9  ASP d   1      32.004 -16.032  28.742  0.00  0.00     0.098 C 
ATOM     73  C19 ASP d   1      30.961 -17.138  28.523  0.00  0.00     0.241 C 
ATOM     74  O11 ASP d   1      31.044 -17.834  27.510  0.00  0.00    -0.271 OA
ATOM     75  C29 ASP d   1      33.282 -16.333  27.909  0.00  0.00     0.043 C 
ATOM     76  C37 ASP d   1      34.107 -17.549  28.383  0.00  0.00     0.261 C 
ATOM     77  OD2 ASP d   1      34.390 -18.434  27.645  0.00  0.00    -0.265 OA
ATOM     78  N10 ASP d   1      29.999 -17.245  29.401  0.00  0.00    -0.344 N 
ATOM     79  C10 ASP d   1      28.722 -17.814  28.949  0.00  0.00     0.104 C 
ATOM     80  C20 ASP d   1      28.101 -18.201  31.477  0.00  0.00     0.220 C 
ATOM     81  O   ASP d   1      28.205 -16.995  31.740  0.00  0.00    -0.274 OA
ATOM     82  C44 ASP d   1      28.129 -18.766  30.037  0.00  0.00     0.037 C 
ATOM     83  H58 ASP d   1      35.196 -18.389  33.077  0.00  0.00     0.163 HD
ATOM     84  H59 ASP d   1      32.719 -18.057  34.451  0.00  0.00     0.088 H 
ATOM     85  H60 ASP d   1      34.162 -16.182  35.679  0.00  0.00     0.051 H 
ATOM     86  H61 ASP d   1      35.500 -16.864  34.694  0.00  0.00     0.051 H 
ATOM     87  H72 ASP d   1      32.304 -16.474  30.853  0.00  0.00     0.163 HD
ATOM     88  H73 ASP d   1      31.559 -15.100  28.362  0.00  0.00     0.088 H 
ATOM     89  H74 ASP d   1      33.931 -15.446  27.949  0.00  0.00     0.051 H 
ATOM     90  H75 ASP d   1      32.974 -16.516  26.869  0.00  0.00     0.051 H 
ATOM     91  H76 ASP d   1      30.128 -16.950  30.348  0.00  0.00     0.163 HD
ATOM     92  H77 ASP d   1      28.926 -18.411  28.048  0.00  0.00     0.090 H 
ATOM     93  H78 ASP d   1      28.732 -19.686  30.046  0.00  0.00     0.051 H 
ATOM     94  H79 ASP d   1      27.095 -19.008  29.748  0.00  0.00     0.051 H 
ATOM     95  N8  TRP d   1      33.420 -15.517  32.570  0.00  0.00    -0.346 N 
ATOM     96  C8  TRP d   1      33.456 -14.274  31.811  0.00  0.00     0.093 C 
ATOM     97  C18 TRP d   1      32.918 -14.504  30.417  0.00  0.00     0.241 C 
ATOM     98  O10 TRP d   1      33.039 -13.593  29.581  0.00  0.00    -0.271 OA
ATOM     99  H62 TRP d   1      34.128 -16.120  32.201  0.00  0.00     0.163 HD
ATOM    100  H63 TRP d   1      32.821 -13.530  32.315  0.00  0.00     0.088 H 
ENDROOT
BRANCH   1 101
ATOM    101  N1  THR d   1      37.817 -19.346  37.237  0.00  0.00    -0.344 N 
ATOM    102  C   THR d   1      39.040 -19.946  37.437  0.00  0.00     0.251 C 
ATOM    103  O   THR d   1      39.242 -21.053  37.953  0.00  0.00    -0.271 OA
ATOM    104  H10 THR d   1      37.696 -18.474  36.763  0.00  0.00     0.163 HD
BRANCH 102 105
ATOM    105  CA  THR d   1      40.229 -19.171  36.981  0.00  0.00     0.199 C 
ATOM    106  H4  THR d   1      39.905 -18.181  36.628  0.00  0.00     0.103 H 
BRANCH 105 107
ATOM    107  N   THR d   1      41.169 -19.007  38.112  0.00  0.00    -0.064 N 
ATOM    108  H1  THR d   1      40.708 -18.520  38.864  0.00  0.00     0.275 HD
ATOM    109  H2  THR d   1      41.970 -18.476  37.809  0.00  0.00     0.275 HD
ATOM    110  H3  THR d   1      41.469 -19.914  38.434  0.00  0.00     0.275 HD
ENDBRANCH 105 107
BRANCH 105 111
ATOM    111  CB  THR d   1      40.934 -19.915  35.833  0.00  0.00     0.068 C 
ATOM    112  H5  THR d   1      41.164 -20.942  36.152  0.00  0.00     0.086 H 
BRANCH 111 113
ATOM    113  OG1 THR d   1      42.149 -19.228  35.539  0.00  0.00    -0.393 OA
ATOM    114  H6  THR d   1      42.600 -19.673  34.831  0.00  0.00     0.210 HD
ENDBRANCH 111 113
BRANCH 111 115
ATOM    115  CG2 THR d   1      40.018 -19.973  34.565  0.00  0.00    -0.050 C 
ATOM    116  H7  THR d   1      40.541 -20.508  33.759  0.00  0.00     0.031 H 
ATOM    117  H8  THR d   1      39.784 -18.950  34.234  0.00  0.00     0.031 H 
ATOM    118  H9  THR d   1      39.085 -20.501  34.810  0.00  0.00     0.031 H 
ENDBRANCH 111 115
ENDBRANCH 105 111
ENDBRANCH 102 105
ENDBRANCH   1 101
BRANCH   4 119
ATOM    119  C31 THR d   1      35.937 -18.502  39.509  0.00  0.00    -0.049 C 
ATOM    120  H13 THR d   1      35.140 -17.791  39.773  0.00  0.00     0.031 H 
ATOM    121  H14 THR d   1      36.898 -17.971  39.450  0.00  0.00     0.031 H 
ATOM    122  H15 THR d   1      35.998 -19.286  40.278  0.00  0.00     0.031 H 
ENDBRANCH   4 119
BRANCH   9 123
ATOM    123  C22 LEU d   1      35.424 -24.568  37.188  0.00  0.00    -0.035 C 
ATOM    124  H18 LEU d   1      35.113 -25.395  36.533  0.00  0.00     0.037 H 
ATOM    125  H19 LEU d   1      34.810 -24.572  38.101  0.00  0.00     0.037 H 
BRANCH 123 126
ATOM    126  CG  LEU d   1      36.885 -24.834  37.610  0.00  0.00    -0.059 C 
ATOM    127  H20 LEU d   1      37.182 -24.067  38.340  0.00  0.00     0.038 H 
BRANCH 126 128
ATOM    128  CD1 LEU d   1      36.966 -26.211  38.286  0.00  0.00    -0.073 C 
ATOM    129  H21 LEU d   1      38.004 -26.410  38.590  0.00  0.00     0.028 H 
ATOM    130  H22 LEU d   1      36.637 -26.987  37.579  0.00  0.00     0.028 H 
ATOM    131  H23 LEU d   1      36.315 -26.223  39.173  0.00  0.00     0.028 H 
ENDBRANCH 126 128
BRANCH 126 132
ATOM    132  CD2 LEU d   1      37.853 -24.748  36.401  0.00  0.00    -0.073 C 
ATOM    133  H24 LEU d   1      37.774 -23.753  35.938  0.00  0.00     0.028 H 
ATOM    134  H25 LEU d   1      37.587 -25.519  35.663  0.00  0.00     0.028 H 
ATOM    135  H26 LEU d   1      38.885 -24.911  36.745  0.00  0.00     0.028 H 
ENDBRANCH 126 132
ENDBRANCH 123 126
ENDBRANCH   9 123
BRANCH  96 136
ATOM    136  C28 TRP d   1      34.960 -13.716  31.759  0.00  0.00    -0.012 C 
ATOM    137  H64 TRP d   1      35.314 -13.631  32.797  0.00  0.00     0.044 H 
ATOM    138  H65 TRP d   1      34.923 -12.717  31.301  0.00  0.00     0.044 H 
BRANCH 136 139
ATOM    139  C36 TRP d   1      36.031 -14.559  30.964  0.00  0.00    -0.028 A 
ATOM    140  C39 TRP d   1      36.086 -14.788  29.555  0.00  0.00    -0.015 A 
ATOM    141  NE1 TRP d   1      37.136 -15.582  29.178  0.00  0.00    -0.365 N 
ATOM    142  H66 TRP d   1      35.366 -14.373  28.852  0.00  0.00     0.112 H 
ATOM    143  C43 TRP d   1      37.868 -15.936  30.324  0.00  0.00     0.042 A 
ATOM    144  H67 TRP d   1      37.353 -15.872  28.214  0.00  0.00     0.165 HD
ATOM    145  C41 TRP d   1      37.208 -15.308  31.469  0.00  0.00    -0.002 A 
ATOM    146  CZ2 TRP d   1      39.054 -16.745  30.508  0.00  0.00    -0.056 A 
ATOM    147  CE3 TRP d   1      37.757 -15.511  32.769  0.00  0.00    -0.070 A 
ATOM    148  CZ3 TRP d   1      38.947 -16.320  32.953  0.00  0.00    -0.082 A 
ATOM    149  H68 TRP d   1      37.280 -15.056  33.629  0.00  0.00     0.084 H 
ATOM    150  CH2 TRP d   1      39.594 -16.937  31.833  0.00  0.00    -0.081 A 
ATOM    151  H70 TRP d   1      39.351 -16.459  33.949  0.00  0.00     0.083 H 
ATOM    152  H71 TRP d   1      40.481 -17.543  31.979  0.00  0.00     0.083 H 
ATOM    153  H69 TRP d   1      39.536 -17.206  29.653  0.00  0.00     0.086 H 
ENDBRANCH 136 139
ENDBRANCH  96 136
BRANCH  35 154
ATOM    154  C24 PHE d   1      31.161 -24.802  30.730  0.00  0.00    -0.014 C 
ATOM    155  H40 PHE d   1      30.086 -24.915  30.936  0.00  0.00     0.043 H 
ATOM    156  H41 PHE d   1      31.731 -25.496  31.365  0.00  0.00     0.043 H 
BRANCH 154 157
ATOM    157  C33 PHE d   1      31.432 -25.124  29.255  0.00  0.00    -0.056 A 
ATOM    158  C38 PHE d   1      32.753 -25.565  28.874  0.00  0.00    -0.077 A 
ATOM    159  CE1 PHE d   1      33.022 -25.852  27.503  0.00  0.00    -0.082 A 
ATOM    160  H42 PHE d   1      33.531 -25.677  29.621  0.00  0.00     0.084 H 
ATOM    161  CZ  PHE d   1      31.995 -25.694  26.531  0.00  0.00    -0.083 A 
ATOM    162  H44 PHE d   1      34.007 -26.190  27.202  0.00  0.00     0.083 H 
ATOM    163  CE2 PHE d   1      30.692 -25.255  26.901  0.00  0.00    -0.082 A 
ATOM    164  H46 PHE d   1      32.208 -25.912  25.491  0.00  0.00     0.083 H 
ATOM    165  C40 PHE d   1      30.404 -24.969  28.282  0.00  0.00    -0.077 A 
ATOM    166  H45 PHE d   1      29.922 -25.137  26.147  0.00  0.00     0.083 H 
ATOM    167  H43 PHE d   1      29.415 -24.639  28.578  0.00  0.00     0.084 H 
ENDBRANCH 154 157
ENDBRANCH  35 154
BRANCH  79 168
ATOM    168  C30 ASP d   1      27.670 -16.714  28.563  0.00  0.00     0.197 C 
ATOM    169  O1  ASP d   1      26.603 -17.066  28.025  0.00  0.00    -0.646 OA
ATOM    170  O2  ASP d   1      27.950 -15.518  28.783  0.00  0.00    -0.646 OA
ENDBRANCH  79 168
TORSDOF 16
