REMARK  8 active torsions:
REMARK  status: ('A' for Active; 'I' for Inactive)
REMARK    1  A    between atoms: C4_4  and  C5_5 
REMARK    2  A    between atoms: C5_5  and  O1_6 
REMARK    3  A    between atoms: C5_5  and  C15_21 
REMARK    4  A    between atoms: O1_6  and  C6_7 
REMARK    5  A    between atoms: N1_10  and  C9_11 
REMARK    6  A    between atoms: C9_11  and  C10_12 
REMARK    7  A    between atoms: C10_12  and  C11_13 
REMARK    8  A    between atoms: C11_13  and  C12_14 
ROOT
ATOM      1  C6  HQL d   1       5.481  13.618  35.256  0.00  0.00     0.043 C 
ATOM      2  C7  HQL d   1       4.215  13.221  34.272  0.00  0.00    -0.018 C 
ATOM      3  C8  HQL d   1       3.111  12.491  35.156  0.00  0.00     0.086 C 
ATOM      4  N1  HQL d   1       2.781  13.578  36.283  0.00  0.00    -0.071 N 
ATOM      5  C13 HQL d   1       3.871  14.172  37.239  0.00  0.00     0.086 C 
ATOM      6  C14 HQL d   1       5.113  14.600  36.432  0.00  0.00    -0.018 C 
ATOM      7  H5  HQL d   1       6.254  14.082  34.625  0.00  0.00     0.083 H 
ATOM      8  H6  HQL d   1       4.560  12.546  33.475  0.00  0.00     0.039 H 
ATOM      9  H7  HQL d   1       3.791  14.132  33.824  0.00  0.00     0.039 H 
ATOM     10  H8  HQL d   1       3.508  11.567  35.601  0.00  0.00     0.076 H 
ATOM     11  H9  HQL d   1       2.217  12.256  34.559  0.00  0.00     0.076 H 
ATOM     12  H10 HQL d   1       2.456  14.403  35.803  0.00  0.00     0.279 HD
ATOM     13  H18 HQL d   1       4.162  13.409  37.976  0.00  0.00     0.076 H 
ATOM     14  H19 HQL d   1       3.458  15.048  37.761  0.00  0.00     0.076 H 
ATOM     15  H20 HQL d   1       4.922  15.595  36.005  0.00  0.00     0.039 H 
ATOM     16  H21 HQL d   1       5.970  14.654  37.119  0.00  0.00     0.039 H 
ENDROOT
BRANCH   1  17
ATOM     17  O1  HQL d   1       6.044  12.464  35.951  0.00  0.00    -0.371 OA
BRANCH  17  18
ATOM     18  C5  HQL d   1       6.689  11.481  35.069  0.00  0.00     0.089 C 
ATOM     19  H4  HQL d   1       6.086  11.431  34.151  0.00  0.00     0.098 H 
BRANCH  18  20
ATOM     20  C4  HQL d   1       6.663  10.095  35.686  0.00  0.00    -0.025 C 
ATOM     21  C3  HQL d   1       6.693   8.931  34.753  0.00  0.00    -0.074 C 
ATOM     22  C2  HQL d   1       6.825   7.588  35.299  0.00  0.00    -0.082 C 
ATOM     23  H3  HQL d   1       6.617   9.083  33.682  0.00  0.00     0.084 H 
ATOM     24  C1  HQL d   1       6.707   7.304  36.777  0.00  0.00    -0.083 C 
ATOM     25  H2  HQL d   1       7.014   6.764  34.621  0.00  0.00     0.083 H 
ATOM     26  C22 HQL d   1       6.570   8.443  37.732  0.00  0.00    -0.082 C 
ATOM     27  H1  HQL d   1       6.722   6.283  37.141  0.00  0.00     0.083 H 
ATOM     28  C21 HQL d   1       6.581   9.863  37.203  0.00  0.00    -0.074 C 
ATOM     29  H28 HQL d   1       6.464   8.256  38.794  0.00  0.00     0.083 H 
ATOM     30  H27 HQL d   1       6.532  10.704  37.885  0.00  0.00     0.084 H 
ENDBRANCH  18  20
BRANCH  18  31
ATOM     31  C15 HQL d   1       8.107  11.923  34.641  0.00  0.00    -0.025 A 
ATOM     32  C16 HQL d   1       8.403  11.956  33.162  0.00  0.00    -0.074 A 
ATOM     33  C17 HQL d   1       9.777  12.360  32.702  0.00  0.00    -0.082 A 
ATOM     34  H22 HQL d   1       7.637  11.693  32.442  0.00  0.00     0.084 H 
ATOM     35  C18 HQL d   1      10.820  12.778  33.715  0.00  0.00    -0.083 A 
ATOM     36  H23 HQL d   1      10.020  12.352  31.645  0.00  0.00     0.083 H 
ATOM     37  C19 HQL d   1      10.505  12.777  35.165  0.00  0.00    -0.082 A 
ATOM     38  H24 HQL d   1      11.805  13.081  33.379  0.00  0.00     0.083 H 
ATOM     39  C20 HQL d   1       9.142  12.390  35.638  0.00  0.00    -0.074 A 
ATOM     40  H25 HQL d   1      11.267  13.058  35.883  0.00  0.00     0.083 H 
ATOM     41  H26 HQL d   1       8.896  12.444  36.692  0.00  0.00     0.084 H 
ENDBRANCH  18  31
ENDBRANCH  17  18
ENDBRANCH   1  17
BRANCH   4  42
ATOM     42  C9  HQL d   1       1.559  12.868  36.811  0.00  0.00     0.084 C 
ATOM     43  H11 HQL d   1       1.849  11.832  37.038  0.00  0.00     0.076 H 
ATOM     44  H12 HQL d   1       0.802  12.871  36.013  0.00  0.00     0.076 H 
BRANCH  42  45
ATOM     45  C10 HQL d   1       0.929  13.432  38.026  0.00  0.00    -0.036 C 
ATOM     46  H13 HQL d   1       1.037  14.526  38.066  0.00  0.00     0.036 H 
ATOM     47  H14 HQL d   1       1.347  12.988  38.941  0.00  0.00     0.036 H 
BRANCH  45  48
ATOM     48  C11 HQL d   1      -0.458  13.038  37.826  0.00  0.00    -0.005 C 
ATOM     49  H15 HQL d   1      -0.498  11.943  37.731  0.00  0.00     0.044 H 
ATOM     50  H16 HQL d   1      -0.821  13.500  36.896  0.00  0.00     0.044 H 
BRANCH  48  51
ATOM     51  C12 HQL d   1      -1.333  13.436  38.906  0.00  0.00     0.145 A 
ATOM     52  N2  HQL d   1      -2.603  13.590  38.749  0.00  0.00    -0.114 NA
ATOM     53  N3  HQL d   1      -3.115  13.949  39.881  0.00  0.00    -0.023 NA
ATOM     54  N4  HQL d   1      -2.164  14.013  40.788  0.00  0.00    -0.047 NA
ATOM     55  N5  HQL d   1      -1.029  13.696  40.235  0.00  0.00    -0.243 N 
ATOM     56  H17 HQL d   1      -0.104  13.648  40.687  0.00  0.00     0.192 HD
ENDBRANCH  48  51
ENDBRANCH  45  48
ENDBRANCH  42  45
ENDBRANCH   4  42
TORSDOF 8
