REMARK  3 active torsions:
REMARK  status: ('A' for Active; 'I' for Inactive)
REMARK    1  A    between atoms: C3_3  and  O3_4 
REMARK    2  A    between atoms: C13_14  and  C18_20 
REMARK    3  A    between atoms: C17_18  and  O17_19 
ROOT
ATOM      1  C1  EST d   1     128.610 -58.375   1.768  0.00  0.00    -0.073 A 
ATOM      2  C2  EST d   1     129.190 -59.681   1.869  0.00  0.00    -0.051 A 
ATOM      3  C3  EST d   1     130.102 -60.140   0.862  0.00  0.00     0.066 A 
ATOM      4  C4  EST d   1     130.444 -59.316  -0.252  0.00  0.00    -0.044 A 
ATOM      5  C5  EST d   1     129.870 -57.988  -0.382  0.00  0.00    -0.049 A 
ATOM      6  C6  EST d   1     130.251 -57.121  -1.604  0.00  0.00    -0.040 C 
ATOM      7  C7  EST d   1     129.566 -55.718  -1.675  0.00  0.00    -0.057 C 
ATOM      8  C8  EST d   1     129.279 -55.097  -0.301  0.00  0.00    -0.042 C 
ATOM      9  C9  EST d   1     128.309 -56.072   0.528  0.00  0.00    -0.024 C 
ATOM     10  C10 EST d   1     128.925 -57.495   0.659  0.00  0.00    -0.047 A 
ATOM     11  C11 EST d   1     128.044 -55.408   1.922  0.00  0.00    -0.057 C 
ATOM     12  C12 EST d   1     127.432 -53.981   1.846  0.00  0.00    -0.055 C 
ATOM     13  C13 EST d   1     128.320 -53.015   1.008  0.00  0.00    -0.014 C 
ATOM     14  C14 EST d   1     128.575 -53.670  -0.425  0.00  0.00    -0.041 C 
ATOM     15  C15 EST d   1     129.237 -52.493  -1.159  0.00  0.00    -0.058 C 
ATOM     16  C16 EST d   1     128.245 -51.320  -0.839  0.00  0.00    -0.040 C 
ATOM     17  C17 EST d   1     127.646 -51.676   0.568  0.00  0.00     0.043 C 
ATOM     18  H1  EST d   1     127.922 -58.038   2.535  0.00  0.00     0.084 H 
ATOM     19  H2  EST d   1     128.940 -60.322   2.706  0.00  0.00     0.087 H 
ATOM     20  H4  EST d   1     131.134 -59.682  -1.003  0.00  0.00     0.088 H 
ATOM     21  H5  EST d   1     129.978 -57.678  -2.513  0.00  0.00     0.040 H 
ATOM     22  H6  EST d   1     131.340 -56.965  -1.583  0.00  0.00     0.040 H 
ATOM     23  H7  EST d   1     128.613 -55.825  -2.213  0.00  0.00     0.034 H 
ATOM     24  H8  EST d   1     130.227 -55.037  -2.232  0.00  0.00     0.034 H 
ATOM     25  H9  EST d   1     130.230 -54.980   0.240  0.00  0.00     0.041 H 
ATOM     26  H10 EST d   1     127.352 -56.163  -0.007  0.00  0.00     0.048 H 
ATOM     27  H11 EST d   1     129.001 -55.344   2.460  0.00  0.00     0.034 H 
ATOM     28  H12 EST d   1     127.350 -56.051   2.483  0.00  0.00     0.034 H 
ATOM     29  H13 EST d   1     127.335 -53.581   2.866  0.00  0.00     0.034 H 
ATOM     30  H14 EST d   1     126.437 -54.044   1.380  0.00  0.00     0.034 H 
ATOM     31  H15 EST d   1     127.611 -53.863  -0.918  0.00  0.00     0.042 H 
ATOM     32  H16 EST d   1     129.301 -52.680  -2.241  0.00  0.00     0.033 H 
ATOM     33  H17 EST d   1     130.242 -52.287  -0.762  0.00  0.00     0.033 H 
ATOM     34  H18 EST d   1     127.450 -51.267  -1.597  0.00  0.00     0.036 H 
ATOM     35  H19 EST d   1     128.780 -50.359  -0.801  0.00  0.00     0.036 H 
ATOM     36  H20 EST d   1     126.563 -51.847   0.475  0.00  0.00     0.084 H 
ENDROOT
BRANCH  13  37
ATOM     37  C18 EST d   1     129.643 -52.666   1.827  0.00  0.00    -0.066 C 
ATOM     38  H22 EST d   1     130.133 -53.598   2.146  0.00  0.00     0.028 H 
ATOM     39  H23 EST d   1     129.379 -52.068   2.712  0.00  0.00     0.028 H 
ATOM     40  H24 EST d   1     130.329 -52.091   1.188  0.00  0.00     0.028 H 
ENDBRANCH  13  37
BRANCH  17  41
ATOM     41  O17 EST d   1     127.843 -50.555   1.471  0.00  0.00    -0.395 OA
ATOM     42  H21 EST d   1     127.481 -50.769   2.323  0.00  0.00     0.210 HD
ENDBRANCH  17  41
BRANCH   3  43
ATOM     43  O3  EST d   1     130.650 -61.388   0.975  0.00  0.00    -0.361 OA
ATOM     44  H3  EST d   1     129.957 -62.038   0.980  0.00  0.00     0.217 HD
ENDBRANCH   3  43
TORSDOF 3
