REMARK  22 active torsions:
REMARK  status: ('A' for Active; 'I' for Inactive)
REMARK    1  A    between atoms: CA_2  and  N_1 
REMARK    2  A    between atoms: CA_2  and  CB_5 
REMARK    3  A    between atoms: C_3  and  CA_2 
REMARK       I    between atoms: N_10  and  C_3 
REMARK    4  A    between atoms: CB_5  and  CG_6 
REMARK    5  A    between atoms: CG_6  and  CD_7 
REMARK    6  A    between atoms: CD_7  and  CE_8 
REMARK    7  A    between atoms: CE_8  and  NZ_9 
REMARK    8  A    between atoms: CA_11  and  N_10 
REMARK    9  A    between atoms: CA_11  and  CB_14 
REMARK   10  A    between atoms: C_12  and  CA_11 
REMARK       I    between atoms: N_21  and  C_12 
REMARK   11  A    between atoms: CB_14  and  CG_15 
REMARK   12  A    between atoms: CG_15  and  CD_16 
REMARK   13  A    between atoms: CD_16  and  NE_17 
REMARK       I    between atoms: NE_17  and  CZ_18 
REMARK       I    between atoms: CZ_18  and  NH1_19 
REMARK   14  A    between atoms: C_23  and  CA_22 
REMARK       I    between atoms: N_28  and  C_23 
REMARK   15  A    between atoms: C_30  and  CA_29 
REMARK       I    between atoms: N_35  and  C_30 
REMARK   16  A    between atoms: C_37  and  CA_36 
REMARK       I    between atoms: N_42  and  C_37 
REMARK   17  A    between atoms: C_44  and  CA_43 
REMARK       I    between atoms: N_49  and  C_44 
REMARK   18  A    between atoms: C_51  and  CA_50 
REMARK       I    between atoms: N_56  and  C_51 
REMARK   19  A    between atoms: C_58  and  CA_57 
REMARK       I    between atoms: C_58  and  N_63 
REMARK   20  A    between atoms: N_63  and  CA_64 
REMARK   21  A    between atoms: CA_64  and  C_65 
REMARK   22  A    between atoms: C_65  and  O1_67 
ROOT
ATOM      1  C   PRO d   1       6.646  62.813  20.902  0.00  0.00     0.243 C 
ATOM      2  O   PRO d   1       7.608  63.561  20.752  0.00  0.00    -0.271 OA
ATOM      3  N   PRO d   1       6.374  61.834  20.032  0.00  0.00    -0.337 N 
ATOM      4  CA  PRO d   1       7.239  61.670  18.862  0.00  0.00     0.092 C 
ATOM      5  CB  PRO d   1       6.782  60.333  18.286  0.00  0.00    -0.036 C 
ATOM      6  CG  PRO d   1       5.327  60.297  18.645  0.00  0.00    -0.048 C 
ATOM      7  CD  PRO d   1       5.331  60.792  20.070  0.00  0.00    -0.001 C 
ATOM      8  H36 PRO d   1       8.299  61.627  19.152  0.00  0.00     0.087 H 
ATOM      9  H37 PRO d   1       7.325  59.496  18.749  0.00  0.00     0.036 H 
ATOM     10  H38 PRO d   1       6.922  60.303  17.195  0.00  0.00     0.036 H 
ATOM     11  H39 PRO d   1       4.740  60.962  17.994  0.00  0.00     0.035 H 
ATOM     12  H40 PRO d   1       4.927  59.275  18.580  0.00  0.00     0.035 H 
ATOM     13  H41 PRO d   1       4.354  61.215  20.349  0.00  0.00     0.064 H 
ATOM     14  H42 PRO d   1       5.596  59.987  20.771  0.00  0.00     0.064 H 
ENDROOT
BRANCH   4  15
ATOM     15  C   PRO d   1       7.027  62.827  17.898  0.00  0.00     0.243 C 
ATOM     16  O   PRO d   1       5.966  63.441  17.885  0.00  0.00    -0.271 OA
ATOM     17  N   PRO d   1       8.041  63.157  17.091  0.00  0.00    -0.337 N 
ATOM     18  CA  PRO d   1       7.834  64.265  16.165  0.00  0.00     0.092 C 
ATOM     19  CD  PRO d   1       9.422  62.651  17.006  0.00  0.00    -0.001 C 
ATOM     20  CB  PRO d   1       9.257  64.630  15.748  0.00  0.00    -0.036 C 
ATOM     21  H43 PRO d   1       7.338  65.117  16.653  0.00  0.00     0.087 H 
ATOM     22  CG  PRO d   1       9.934  63.311  15.736  0.00  0.00    -0.048 C 
ATOM     23  H44 PRO d   1       9.723  65.310  16.476  0.00  0.00     0.036 H 
ATOM     24  H45 PRO d   1       9.273  65.094  14.751  0.00  0.00     0.036 H 
ATOM     25  H46 PRO d   1       9.650  62.729  14.846  0.00  0.00     0.035 H 
ATOM     26  H47 PRO d   1      11.027  63.428  15.764  0.00  0.00     0.035 H 
ATOM     27  H48 PRO d   1       9.440  61.555  16.919  0.00  0.00     0.064 H 
ATOM     28  H49 PRO d   1      10.013  62.959  17.881  0.00  0.00     0.064 H 
BRANCH  18  29
ATOM     29  C   PRO d   1       6.990  63.777  15.004  0.00  0.00     0.243 C 
ATOM     30  O   PRO d   1       7.039  62.605  14.643  0.00  0.00    -0.271 OA
ATOM     31  N   PRO d   1       6.188  64.664  14.411  0.00  0.00    -0.337 N 
ATOM     32  CA  PRO d   1       5.369  64.217  13.288  0.00  0.00     0.092 C 
ATOM     33  CD  PRO d   1       6.020  66.109  14.647  0.00  0.00    -0.001 C 
ATOM     34  CB  PRO d   1       4.458  65.416  13.039  0.00  0.00    -0.036 C 
ATOM     35  H50 PRO d   1       4.782  63.322  13.544  0.00  0.00     0.087 H 
ATOM     36  CG  PRO d   1       5.351  66.569  13.369  0.00  0.00    -0.048 C 
ATOM     37  H51 PRO d   1       3.578  65.392  13.699  0.00  0.00     0.036 H 
ATOM     38  H52 PRO d   1       4.128  65.455  11.990  0.00  0.00     0.036 H 
ATOM     39  H53 PRO d   1       6.090  66.740  12.572  0.00  0.00     0.035 H 
ATOM     40  H54 PRO d   1       4.769  67.488  13.533  0.00  0.00     0.035 H 
ATOM     41  H55 PRO d   1       6.992  66.605  14.789  0.00  0.00     0.064 H 
ATOM     42  H56 PRO d   1       5.380  66.298  15.522  0.00  0.00     0.064 H 
BRANCH  32  43
ATOM     43  C   PRO d   1       6.270  63.917  12.097  0.00  0.00     0.243 C 
ATOM     44  O   PRO d   1       7.373  64.459  11.994  0.00  0.00    -0.271 OA
ATOM     45  N   PRO d   1       5.826  63.027  11.194  0.00  0.00    -0.337 N 
ATOM     46  CA  PRO d   1       6.640  62.701  10.020  0.00  0.00     0.092 C 
ATOM     47  CD  PRO d   1       4.573  62.249  11.204  0.00  0.00    -0.001 C 
ATOM     48  CB  PRO d   1       5.709  61.810   9.197  0.00  0.00    -0.036 C 
ATOM     49  H57 PRO d   1       7.566  62.172  10.289  0.00  0.00     0.087 H 
ATOM     50  CG  PRO d   1       4.884  61.126  10.245  0.00  0.00    -0.048 C 
ATOM     51  H58 PRO d   1       6.281  61.080   8.605  0.00  0.00     0.036 H 
ATOM     52  H59 PRO d   1       5.077  62.411   8.526  0.00  0.00     0.036 H 
ATOM     53  H60 PRO d   1       3.963  60.706   9.814  0.00  0.00     0.035 H 
ATOM     54  H61 PRO d   1       5.455  60.327  10.741  0.00  0.00     0.035 H 
ATOM     55  H62 PRO d   1       3.726  62.854  10.848  0.00  0.00     0.064 H 
ATOM     56  H63 PRO d   1       4.351  61.864  12.210  0.00  0.00     0.064 H 
BRANCH  46  57
ATOM     57  C   PRO d   1       6.963  64.013   9.302  0.00  0.00     0.243 C 
ATOM     58  O   PRO d   1       6.174  64.954   9.354  0.00  0.00    -0.271 OA
ATOM     59  N   PRO d   1       8.117  64.095   8.623  0.00  0.00    -0.337 N 
ATOM     60  CA  PRO d   1       8.449  65.344   7.929  0.00  0.00     0.091 C 
ATOM     61  CD  PRO d   1       9.111  63.051   8.319  0.00  0.00    -0.001 C 
ATOM     62  CB  PRO d   1       9.829  65.055   7.340  0.00  0.00    -0.036 C 
ATOM     63  H64 PRO d   1       8.512  66.172   8.651  0.00  0.00     0.087 H 
ATOM     64  CG  PRO d   1       9.767  63.590   7.064  0.00  0.00    -0.048 C 
ATOM     65  H65 PRO d   1      10.625  65.289   8.062  0.00  0.00     0.036 H 
ATOM     66  H66 PRO d   1       9.993  65.626   6.415  0.00  0.00     0.036 H 
ATOM     67  H67 PRO d   1       9.157  63.378   6.173  0.00  0.00     0.035 H 
ATOM     68  H68 PRO d   1      10.774  63.168   6.928  0.00  0.00     0.035 H 
ATOM     69  H69 PRO d   1       8.627  62.081   8.131  0.00  0.00     0.064 H 
ATOM     70  H70 PRO d   1       9.840  62.944   9.136  0.00  0.00     0.064 H 
BRANCH  60  71
ATOM     71  C   PRO d   1       7.421  65.717   6.863  0.00  0.00     0.241 C 
ATOM     72  O   PRO d   1       6.767  64.847   6.285  0.00  0.00    -0.271 OA
ATOM     73  N   GLY d   1       7.281  67.016   6.614  0.00  0.00    -0.349 N 
ATOM     74  H71 GLY d   1       7.834  67.680   7.118  0.00  0.00     0.163 HD
BRANCH  73  75
ATOM     75  CA  GLY d   1       6.333  67.479   5.618  0.00  0.00     0.072 C 
ATOM     76  H72 GLY d   1       6.310  68.579   5.635  0.00  0.00     0.080 H 
ATOM     77  H73 GLY d   1       5.336  67.087   5.868  0.00  0.00     0.080 H 
BRANCH  75  78
ATOM     78  C   GLY d   1       6.702  67.019   4.220  0.00  0.00     0.158 C 
ATOM     79  O   GLY d   1       7.755  66.360   4.072  0.00  0.00    -0.649 OA
BRANCH  78  80
ATOM     80  O1  GLY d   1       5.926  67.309   3.179  0.00  0.00    -0.775 OA
ATOM     81  H74 GLY d   1       6.421  67.819   2.549  0.00  0.00     0.167 HD
ENDBRANCH  78  80
ENDBRANCH  75  78
ENDBRANCH  73  75
ENDBRANCH  60  71
ENDBRANCH  46  57
ENDBRANCH  32  43
ENDBRANCH  18  29
ENDBRANCH   4  15
BRANCH   1  82
ATOM     82  CA  PRO d   1       5.720  62.960  22.110  0.00  0.00     0.092 C 
ATOM     83  CB  PRO d   1       4.592  63.958  21.859  0.00  0.00    -0.036 C 
ATOM     84  CG  PRO d   1       5.264  65.271  22.160  0.00  0.00    -0.048 C 
ATOM     85  H30 PRO d   1       3.743  63.779  22.535  0.00  0.00     0.036 H 
ATOM     86  H31 PRO d   1       4.246  63.916  20.816  0.00  0.00     0.036 H 
ATOM     87  CD  PRO d   1       6.004  64.956  23.449  0.00  0.00    -0.001 C 
ATOM     88  H32 PRO d   1       5.961  65.557  21.358  0.00  0.00     0.035 H 
ATOM     89  H33 PRO d   1       4.526  66.073  22.308  0.00  0.00     0.035 H 
ATOM     90  N   PRO d   1       6.446  63.567  23.225  0.00  0.00    -0.337 N 
ATOM     91  H34 PRO d   1       6.862  65.629  23.591  0.00  0.00     0.064 H 
ATOM     92  H35 PRO d   1       5.335  65.026  24.320  0.00  0.00     0.064 H 
ATOM     93  C   ARG d   1       7.329  62.837  23.916  0.00  0.00     0.243 C 
ATOM     94  O   ARG d   1       7.551  61.660  23.649  0.00  0.00    -0.271 OA
ATOM     95  H29 PRO d   1       5.317  61.974  22.384  0.00  0.00     0.087 H 
BRANCH  93  96
ATOM     96  CA  ARG d   1       8.056  63.525  25.057  0.00  0.00     0.089 C 
ATOM     97  H17 ARG d   1       7.341  64.138  25.625  0.00  0.00     0.087 H 
BRANCH  96  98
ATOM     98  N   ARG d   1       8.643  62.536  25.952  0.00  0.00    -0.346 N 
ATOM     99  C   LYS d   1       7.890  61.746  26.712  0.00  0.00     0.248 C 
ATOM    100  O   LYS d   1       6.657  61.792  26.719  0.00  0.00    -0.271 OA
ATOM    101  H16 ARG d   1       9.638  62.449  25.996  0.00  0.00     0.163 HD
BRANCH  99 102
ATOM    102  CA  LYS d   1       8.634  60.757  27.601  0.00  0.00     0.176 C 
ATOM    103  H4  LYS d   1       9.489  61.267  28.069  0.00  0.00     0.099 H 
BRANCH 102 104
ATOM    104  N   LYS d   1       7.723  60.254  28.670  0.00  0.00    -0.067 N 
ATOM    105  H1  LYS d   1       8.220  59.600  29.255  0.00  0.00     0.275 HD
ATOM    106  H2  LYS d   1       6.932  59.793  28.248  0.00  0.00     0.275 HD
ATOM    107  H3  LYS d   1       7.402  61.028  29.229  0.00  0.00     0.275 HD
ENDBRANCH 102 104
BRANCH 102 108
ATOM    108  CB  LYS d   1       9.152  59.588  26.753  0.00  0.00    -0.030 C 
ATOM    109  H5  LYS d   1       8.298  59.153  26.213  0.00  0.00     0.036 H 
ATOM    110  H6  LYS d   1       9.578  58.835  27.432  0.00  0.00     0.036 H 
BRANCH 108 111
ATOM    111  CG  LYS d   1      10.223  59.963  25.727  0.00  0.00    -0.061 C 
ATOM    112  H7  LYS d   1      11.059  60.458  26.243  0.00  0.00     0.033 H 
ATOM    113  H8  LYS d   1       9.789  60.652  24.988  0.00  0.00     0.033 H 
BRANCH 111 114
ATOM    114  CD  LYS d   1      10.742  58.723  25.010  0.00  0.00    -0.043 C 
ATOM    115  H9  LYS d   1       9.896  58.212  24.528  0.00  0.00     0.035 H 
ATOM    116  H10 LYS d   1      11.202  58.052  25.750  0.00  0.00     0.035 H 
BRANCH 114 117
ATOM    117  CE  LYS d   1      11.778  59.066  23.947  0.00  0.00     0.080 C 
ATOM    118  H11 LYS d   1      11.335  59.794  23.251  0.00  0.00     0.075 H 
ATOM    119  H12 LYS d   1      12.035  58.146  23.401  0.00  0.00     0.075 H 
BRANCH 117 120
ATOM    120  NZ  LYS d   1      13.031  59.649  24.505  0.00  0.00    -0.079 N 
ATOM    121  H13 LYS d   1      13.671  59.852  23.753  0.00  0.00     0.274 HD
ATOM    122  H14 LYS d   1      13.455  58.990  25.138  0.00  0.00     0.274 HD
ATOM    123  H15 LYS d   1      12.814  60.499  25.001  0.00  0.00     0.274 HD
ENDBRANCH 117 120
ENDBRANCH 114 117
ENDBRANCH 111 114
ENDBRANCH 108 111
ENDBRANCH 102 108
ENDBRANCH  99 102
ENDBRANCH  96  98
BRANCH  96 124
ATOM    124  CB  ARG d   1       9.139  64.431  24.472  0.00  0.00    -0.036 C 
ATOM    125  H18 ARG d   1       9.697  64.883  25.305  0.00  0.00     0.036 H 
ATOM    126  H19 ARG d   1       8.647  65.222  23.887  0.00  0.00     0.036 H 
BRANCH 124 127
ATOM    127  CG  ARG d   1      10.133  63.716  23.565  0.00  0.00    -0.048 C 
ATOM    128  H20 ARG d   1       9.583  63.104  22.835  0.00  0.00     0.035 H 
ATOM    129  H21 ARG d   1      10.779  63.067  24.175  0.00  0.00     0.035 H 
BRANCH 127 130
ATOM    130  CD  ARG d   1      10.993  64.726  22.826  0.00  0.00     0.009 C 
ATOM    131  H22 ARG d   1      11.509  65.351  23.570  0.00  0.00     0.064 H 
ATOM    132  H23 ARG d   1      10.335  65.357  22.211  0.00  0.00     0.064 H 
BRANCH 130 133
ATOM    133  NE  ARG d   1      11.999  64.124  21.954  0.00  0.00    -0.227 N 
ATOM    134  CZ  ARG d   1      13.067  63.456  22.383  0.00  0.00     0.665 C 
ATOM    135  NH2 ARG d   1      13.938  62.965  21.512  0.00  0.00    -0.235 N 
ATOM    136  NH1 ARG d   1      13.275  63.294  23.682  0.00  0.00    -0.235 N 
ATOM    137  H27 ARG d   1      13.781  63.088  20.502  0.00  0.00     0.174 HD
ATOM    138  H28 ARG d   1      14.772  62.460  21.846  0.00  0.00     0.174 HD
ATOM    139  H25 ARG d   1      14.103  62.776  24.010  0.00  0.00     0.174 HD
ATOM    140  H26 ARG d   1      12.609  63.686  24.363  0.00  0.00     0.174 HD
ATOM    141  H24 ARG d   1      11.873  64.224  20.937  0.00  0.00     0.177 HD
ENDBRANCH 130 133
ENDBRANCH 127 130
ENDBRANCH 124 127
ENDBRANCH  96 124
ENDBRANCH  93  96
ENDBRANCH   1  82
TORSDOF 22
