REMARK  12 active torsions:
REMARK  status: ('A' for Active; 'I' for Inactive)
REMARK    1  A    between atoms: O1_7  and  C1_1 
REMARK    2  A    between atoms: C2_2  and  O2_8 
REMARK    3  A    between atoms: C3_3  and  O3_9 
REMARK    4  A    between atoms: C4_4  and  O4_10 
REMARK    5  A    between atoms: C5_5  and  C6_6 
REMARK    6  A    between atoms: C6_6  and  O6_12 
REMARK    7  A    between atoms: C4'_16  and  O1_7 
REMARK    8  A    between atoms: C1'_13  and  O1'_19 
REMARK    9  A    between atoms: C2'_14  and  O2'_20 
REMARK   10  A    between atoms: C3'_15  and  O3'_21 
REMARK   11  A    between atoms: C5'_17  and  C6'_18 
REMARK   12  A    between atoms: C6'_18  and  O6'_23 
ROOT
ATOM      1  O1  NON d   1      45.598   1.421  96.121  0.00  0.00    -0.348 OA
ENDROOT
BRANCH   1   2
ATOM      2  C1  NON d   1      45.932   2.502  95.210  0.00  0.00     0.159 C 
ATOM      3  C2  NON d   1      45.038   2.409  93.955  0.00  0.00     0.110 C 
ATOM      4  C3  NON d   1      45.349   1.102  93.193  0.00  0.00     0.092 C 
ATOM      5  H2  NON d   1      45.241   3.255  93.282  0.00  0.00     0.094 H 
ATOM      6  C4  NON d   1      46.860   1.216  92.769  0.00  0.00     0.090 C 
ATOM      7  H3  NON d   1      45.185   0.216  93.824  0.00  0.00     0.091 H 
ATOM      8  C5  NON d   1      47.729   1.262  94.057  0.00  0.00     0.089 C 
ATOM      9  H4  NON d   1      47.009   2.125  92.167  0.00  0.00     0.091 H 
ATOM     10  O5  NON d   1      47.337   2.391  94.888  0.00  0.00    -0.348 OA
ATOM     11  H5  NON d   1      47.535   0.328  94.605  0.00  0.00     0.090 H 
ATOM     12  H1  NON d   1      45.752   3.469  95.702  0.00  0.00     0.133 H 
BRANCH   3  13
ATOM     13  O2  NON d   1      43.710   2.512  94.439  0.00  0.00    -0.388 OA
ATOM     14  H8  NON d   1      43.104   2.469  93.709  0.00  0.00     0.210 HD
ENDBRANCH   3  13
BRANCH   4  15
ATOM     15  O3  NON d   1      44.513   1.064  92.067  0.00  0.00    -0.390 OA
ATOM     16  H9  NON d   1      44.738   0.312  91.532  0.00  0.00     0.210 HD
ENDBRANCH   4  15
BRANCH   6  17
ATOM     17  O4  NON d   1      47.266   0.115  92.065  0.00  0.00    -0.390 OA
ATOM     18  H10 NON d   1      46.758   0.047  91.265  0.00  0.00     0.210 HD
ENDBRANCH   6  17
BRANCH   8  19
ATOM     19  C6  NON d   1      49.247   1.387  93.874  0.00  0.00     0.043 C 
ATOM     20  H6  NON d   1      49.631   0.488  93.370  0.00  0.00     0.078 H 
ATOM     21  H7  NON d   1      49.728   1.490  94.858  0.00  0.00     0.078 H 
BRANCH  19  22
ATOM     22  O6  NON d   1      49.532   2.525  93.089  0.00  0.00    -0.398 OA
ATOM     23  H11 NON d   1      49.116   2.435  92.240  0.00  0.00     0.209 HD
ENDBRANCH  19  22
ENDBRANCH   8  19
ENDBRANCH   1   2
BRANCH   1  24
ATOM     24  C4' NON d   1      45.376   1.497  97.517  0.00  0.00     0.096 C 
ATOM     25  C3' NON d   1      43.966   0.882  97.848  0.00  0.00     0.092 C 
ATOM     26  C2' NON d   1      43.909   1.062  99.390  0.00  0.00     0.110 C 
ATOM     27  H14 NON d   1      43.935  -0.184  97.578  0.00  0.00     0.091 H 
ATOM     28  C1' NON d   1      45.012   0.380 100.237  0.00  0.00     0.156 C 
ATOM     29  H13 NON d   1      43.974   2.140  99.597  0.00  0.00     0.094 H 
ATOM     30  O5' NON d   1      46.335   0.783  99.812  0.00  0.00    -0.349 OA
ATOM     31  H12 NON d   1      44.891   0.701 101.282  0.00  0.00     0.133 H 
ATOM     32  C5' NON d   1      46.517   0.727  98.339  0.00  0.00     0.089 C 
ATOM     33  H16 NON d   1      46.451  -0.321  98.010  0.00  0.00     0.090 H 
ATOM     34  H15 NON d   1      45.384   2.555  97.817  0.00  0.00     0.091 H 
BRANCH  25  35
ATOM     35  O3' NON d   1      42.853   1.574  97.156  0.00  0.00    -0.390 OA
ATOM     36  H21 NON d   1      42.980   1.515  96.216  0.00  0.00     0.210 HD
ENDBRANCH  25  35
BRANCH  26  37
ATOM     37  O2' NON d   1      42.656   0.598  99.787  0.00  0.00    -0.388 OA
ATOM     38  H20 NON d   1      42.570   0.687 100.729  0.00  0.00     0.210 HD
ENDBRANCH  26  37
BRANCH  28  39
ATOM     39  O1' NON d   1      44.862  -0.694 100.197  0.00  0.00    -0.369 OA
ATOM     40  H19 NON d   1      43.981  -0.900 100.485  0.00  0.00     0.212 HD
ENDBRANCH  28  39
BRANCH  32  41
ATOM     41  C6' NON d   1      48.053   1.180  98.210  0.00  0.00     0.043 C 
ATOM     42  H17 NON d   1      48.469   0.916  97.227  0.00  0.00     0.078 H 
ATOM     43  H18 NON d   1      48.672   0.734  99.002  0.00  0.00     0.078 H 
BRANCH  41  44
ATOM     44  O6' NON d   1      47.937   2.670  98.376  0.00  0.00    -0.398 OA
ATOM     45  H22 NON d   1      47.556   2.864  99.224  0.00  0.00     0.209 HD
ENDBRANCH  41  44
ENDBRANCH  32  41
ENDBRANCH   1  24
TORSDOF 12
