REMARK  9 active torsions:
REMARK  status: ('A' for Active; 'I' for Inactive)
REMARK    1  A    between atoms: C1_1  and  C22_21 
REMARK    2  A    between atoms: C3_3  and  N9_9 
REMARK    3  A    between atoms: C4_4  and  C6_6 
REMARK    4  A    between atoms: N9_9  and  S11_10 
REMARK    5  A    between atoms: S11_10  and  C14_13 
REMARK    6  A    between atoms: C17_16  and  C21_20 
REMARK    7  A    between atoms: C19_18  and  C20_19 
REMARK    8  A    between atoms: C25_24  and  C27_26 
REMARK    9  A    between atoms: C27_26  and  C28_27 
ROOT
ATOM      1  C1  SNH d   1       9.061  32.449  72.431  0.00  0.00     0.025 A 
ATOM      2  C2  SNH d   1       8.861  33.176  73.584  0.00  0.00    -0.037 A 
ATOM      3  C3  SNH d   1       7.489  33.537  73.830  0.00  0.00     0.068 A 
ATOM      4  C4  SNH d   1       6.663  33.054  72.814  0.00  0.00     0.109 A 
ATOM      5  S5  SNH d   1       7.593  32.187  71.626  0.00  0.00    -0.080 SA
ATOM      6  H1  SNH d   1       9.673  33.455  74.254  0.00  0.00     0.089 H 
ENDROOT
BRANCH   3   7
ATOM      7  N9  SNH d   1       7.037  34.270  74.945  0.00  0.00    -0.279 N 
ATOM      8  H2  SNH d   1       6.140  34.026  75.314  0.00  0.00     0.179 HD
BRANCH   7   9
ATOM      9  S11 SNH d   1       7.865  35.518  75.715  0.00  0.00     0.263 S 
ATOM     10  O12 SNH d   1       7.004  36.152  76.686  0.00  0.00    -0.200 OA
ATOM     11  O13 SNH d   1       9.063  34.935  76.301  0.00  0.00    -0.200 OA
BRANCH   9  12
ATOM     12  C14 SNH d   1       8.301  36.767  74.483  0.00  0.00     0.085 A 
ATOM     13  C15 SNH d   1       9.681  36.932  74.170  0.00  0.00    -0.059 A 
ATOM     14  C16 SNH d   1      10.108  37.884  73.212  0.00  0.00    -0.076 A 
ATOM     15  H3  SNH d   1      10.418  36.318  74.674  0.00  0.00     0.085 H 
ATOM     16  C17 SNH d   1       9.163  38.699  72.540  0.00  0.00    -0.061 A 
ATOM     17  H4  SNH d   1      11.164  37.990  72.992  0.00  0.00     0.084 H 
ATOM     18  C18 SNH d   1       7.782  38.535  72.851  0.00  0.00    -0.070 A 
ATOM     19  C19 SNH d   1       7.325  37.581  73.813  0.00  0.00    -0.038 A 
ATOM     20  H5  SNH d   1       7.053  39.154  72.341  0.00  0.00     0.085 H 
BRANCH  16  21
ATOM     21  C21 SNH d   1       9.597  39.714  71.521  0.00  0.00    -0.051 C 
ATOM     22  H9  SNH d   1      10.692  39.689  71.422  0.00  0.00     0.033 H 
ATOM     23  H10 SNH d   1       9.280  40.717  71.844  0.00  0.00     0.033 H 
ATOM     24  H11 SNH d   1       9.136  39.479  70.550  0.00  0.00     0.033 H 
ENDBRANCH  16  21
BRANCH  19  25
ATOM     25  C20 SNH d   1       5.831  37.486  74.066  0.00  0.00    -0.050 C 
ATOM     26  H6  SNH d   1       5.636  36.714  74.825  0.00  0.00     0.033 H 
ATOM     27  H7  SNH d   1       5.317  37.218  73.131  0.00  0.00     0.033 H 
ATOM     28  H8  SNH d   1       5.457  38.456  74.425  0.00  0.00     0.033 H 
ENDBRANCH  19  25
ENDBRANCH   9  12
ENDBRANCH   7   9
ENDBRANCH   3   7
BRANCH   4  29
ATOM     29  C6  SNH d   1       5.193  33.231  72.722  0.00  0.00     0.219 C 
ATOM     30  O7  SNH d   1       4.608  32.731  71.743  0.00  0.00    -0.643 OA
ATOM     31  O8  SNH d   1       4.580  33.864  73.607  0.00  0.00    -0.643 OA
ENDBRANCH   4  29
BRANCH   1  32
ATOM     32  C22 SNH d   1      10.349  31.940  71.922  0.00  0.00     0.023 A 
ATOM     33  C23 SNH d   1      10.498  30.823  71.128  0.00  0.00    -0.064 A 
ATOM     34  C24 SNH d   1      11.841  30.556  70.784  0.00  0.00    -0.061 A 
ATOM     35  H12 SNH d   1       9.662  30.207  70.799  0.00  0.00     0.085 H 
ATOM     36  C25 SNH d   1      12.723  31.480  71.322  0.00  0.00     0.051 A 
ATOM     37  H13 SNH d   1      12.150  29.716  70.164  0.00  0.00     0.085 H 
ATOM     38  S26 SNH d   1      11.871  32.657  72.237  0.00  0.00    -0.086 SA
BRANCH  36  39
ATOM     39  C27 SNH d   1      14.208  31.461  71.138  0.00  0.00     0.162 C 
ATOM     40  O29 SNH d   1      14.922  32.313  71.649  0.00  0.00    -0.292 OA
BRANCH  39  41
ATOM     41  C28 SNH d   1      14.847  30.361  70.299  0.00  0.00    -0.016 C 
ATOM     42  H14 SNH d   1      15.937  30.505  70.274  0.00  0.00     0.038 H 
ATOM     43  H15 SNH d   1      14.448  30.403  69.275  0.00  0.00     0.038 H 
ATOM     44  H16 SNH d   1      14.617  29.381  70.743  0.00  0.00     0.038 H 
ENDBRANCH  39  41
ENDBRANCH  36  39
ENDBRANCH   1  32
TORSDOF 9
