REMARK  9 active torsions:
REMARK  status: ('A' for Active; 'I' for Inactive)
REMARK    1  A    between atoms: C3_3  and  O3_4 
REMARK    2  A    between atoms: O3_4  and  CH1_24 
REMARK    3  A    between atoms: C10_11  and  C19_20 
REMARK    4  A    between atoms: C13_14  and  C18_19 
REMARK    5  A    between atoms: C17_18  and  C20_21 
REMARK    6  A    between atoms: C20_21  and  C21_23 
REMARK    7  A    between atoms: CH1_24  and  CH2_26 
REMARK    8  A    between atoms: CH2_26  and  CH3_27 
REMARK    9  A    between atoms: CH3_27  and  CH4_28 
ROOT
ATOM      1  C1  S5H d   1     -19.609  43.212 -15.092  0.00  0.00    -0.055 C 
ATOM      2  C2  S5H d   1     -18.284  42.928 -15.878  0.00  0.00    -0.040 C 
ATOM      3  C3  S5H d   1     -17.021  43.627 -15.323  0.00  0.00     0.048 C 
ATOM      4  C4  S5H d   1     -17.002  43.445 -13.769  0.00  0.00    -0.036 C 
ATOM      5  C5  S5H d   1     -18.192  44.192 -13.182  0.00  0.00    -0.044 C 
ATOM      6  C6  S5H d   1     -18.091  44.349 -11.699  0.00  0.00    -0.060 C 
ATOM      7  C7  S5H d   1     -19.254  45.155 -11.150  0.00  0.00    -0.061 C 
ATOM      8  C8  S5H d   1     -20.646  44.678 -11.608  0.00  0.00    -0.046 C 
ATOM      9  C9  S5H d   1     -20.678  44.410 -13.130  0.00  0.00    -0.043 C 
ATOM     10  C10 S5H d   1     -19.516  43.461 -13.527  0.00  0.00    -0.036 C 
ATOM     11  C11 S5H d   1     -22.067  43.955 -13.565  0.00  0.00    -0.060 C 
ATOM     12  C12 S5H d   1     -23.214  44.857 -13.021  0.00  0.00    -0.057 C 
ATOM     13  C13 S5H d   1     -23.001  45.283 -11.545  0.00  0.00    -0.030 C 
ATOM     14  C14 S5H d   1     -21.636  45.779 -11.353  0.00  0.00    -0.043 C 
ATOM     15  C15 S5H d   1     -21.673  46.488 -10.012  0.00  0.00    -0.060 C 
ATOM     16  C16 S5H d   1     -23.143  46.964  -9.859  0.00  0.00    -0.054 C 
ATOM     17  C17 S5H d   1     -23.925  46.388 -11.062  0.00  0.00     0.011 C 
ATOM     18  H1  S5H d   1     -20.271  42.347 -15.245  0.00  0.00     0.034 H 
ATOM     19  H2  S5H d   1     -20.067  44.107 -15.538  0.00  0.00     0.034 H 
ATOM     20  H3  S5H d   1     -18.427  43.261 -16.917  0.00  0.00     0.036 H 
ATOM     21  H4  S5H d   1     -18.106  41.843 -15.862  0.00  0.00     0.036 H 
ATOM     22  H5  S5H d   1     -17.079  44.700 -15.559  0.00  0.00     0.084 H 
ATOM     23  H6  S5H d   1     -16.067  43.855 -13.358  0.00  0.00     0.037 H 
ATOM     24  H7  S5H d   1     -17.075  42.376 -13.519  0.00  0.00     0.037 H 
ATOM     25  H8  S5H d   1     -18.218  45.195 -13.633  0.00  0.00     0.041 H 
ATOM     26  H9  S5H d   1     -17.151  44.866 -11.456  0.00  0.00     0.033 H 
ATOM     27  H10 S5H d   1     -18.093  43.353 -11.232  0.00  0.00     0.033 H 
ATOM     28  H11 S5H d   1     -19.128  46.200 -11.471  0.00  0.00     0.033 H 
ATOM     29  H12 S5H d   1     -19.219  45.102 -10.052  0.00  0.00     0.033 H 
ATOM     30  H13 S5H d   1     -20.926  43.768 -11.057  0.00  0.00     0.041 H 
ATOM     31  H14 S5H d   1     -20.490  45.367 -13.639  0.00  0.00     0.041 H 
ATOM     32  H15 S5H d   1     -22.228  42.930 -13.201  0.00  0.00     0.033 H 
ATOM     33  H16 S5H d   1     -22.108  43.964 -14.664  0.00  0.00     0.033 H 
ATOM     34  H17 S5H d   1     -24.161  44.302 -13.092  0.00  0.00     0.034 H 
ATOM     35  H18 S5H d   1     -23.273  45.763 -13.642  0.00  0.00     0.034 H 
ATOM     36  H19 S5H d   1     -21.427  46.548 -12.111  0.00  0.00     0.041 H 
ATOM     37  H20 S5H d   1     -20.985  47.346 -10.008  0.00  0.00     0.033 H 
ATOM     38  H21 S5H d   1     -21.402  45.797  -9.200  0.00  0.00     0.033 H 
ATOM     39  H22 S5H d   1     -23.188  48.063  -9.869  0.00  0.00     0.034 H 
ATOM     40  H23 S5H d   1     -23.567  46.588  -8.916  0.00  0.00     0.034 H 
ATOM     41  H24 S5H d   1     -24.031  47.157 -11.842  0.00  0.00     0.052 H 
ENDROOT
BRANCH   3  42
ATOM     42  O3  S5H d   1     -15.815  43.103 -15.900  0.00  0.00    -0.316 OA
BRANCH  42  43
ATOM     43  CH1 S5H d   1     -15.785  42.304 -16.868  0.00  0.00     0.259 C 
ATOM     44  OH1 S5H d   1     -16.125  42.633 -18.032  0.00  0.00    -0.265 OA
BRANCH  43  45
ATOM     45  CH2 S5H d   1     -15.248  40.889 -16.671  0.00  0.00     0.025 C 
ATOM     46  H34 S5H d   1     -15.619  40.250 -17.486  0.00  0.00     0.048 H 
ATOM     47  H35 S5H d   1     -15.610  40.501 -15.707  0.00  0.00     0.048 H 
BRANCH  45  48
ATOM     48  CH3 S5H d   1     -13.745  40.859 -16.675  0.00  0.00     0.024 C 
ATOM     49  H36 S5H d   1     -13.374  41.429 -17.540  0.00  0.00     0.049 H 
ATOM     50  H37 S5H d   1     -13.405  39.816 -16.750  0.00  0.00     0.049 H 
BRANCH  48  51
ATOM     51  CH4 S5H d   1     -13.196  41.470 -15.405  0.00  0.00     0.172 C 
ATOM     52  OH4 S5H d   1     -13.972  41.428 -14.397  0.00  0.00    -0.648 OA
ATOM     53  OH5 S5H d   1     -12.022  41.983 -15.406  0.00  0.00    -0.648 OA
ENDBRANCH  48  51
ENDBRANCH  45  48
ENDBRANCH  43  45
ENDBRANCH  42  43
ENDBRANCH   3  42
BRANCH  10  54
ATOM     54  C19 S5H d   1     -19.629  42.134 -12.750  0.00  0.00    -0.068 C 
ATOM     55  H28 S5H d   1     -18.802  41.469 -13.038  0.00  0.00     0.028 H 
ATOM     56  H29 S5H d   1     -20.588  41.650 -12.988  0.00  0.00     0.028 H 
ATOM     57  H30 S5H d   1     -19.578  42.336 -11.670  0.00  0.00     0.028 H 
ENDBRANCH  10  54
BRANCH  13  58
ATOM     58  C18 S5H d   1     -23.181  44.034 -10.679  0.00  0.00    -0.068 C 
ATOM     59  H25 S5H d   1     -22.508  43.240 -11.036  0.00  0.00     0.028 H 
ATOM     60  H26 S5H d   1     -24.223  43.689 -10.745  0.00  0.00     0.028 H 
ATOM     61  H27 S5H d   1     -22.941  44.275  -9.633  0.00  0.00     0.028 H 
ENDBRANCH  13  58
BRANCH  17  62
ATOM     62  C20 S5H d   1     -25.306  45.900 -10.710  0.00  0.00     0.128 C 
ATOM     63  O20 S5H d   1     -25.510  45.173  -9.751  0.00  0.00    -0.298 OA
BRANCH  62  64
ATOM     64  C21 S5H d   1     -26.465  46.283 -11.554  0.00  0.00    -0.021 C 
ATOM     65  H31 S5H d   1     -27.382  45.836 -11.143  0.00  0.00     0.037 H 
ATOM     66  H32 S5H d   1     -26.308  45.919 -12.580  0.00  0.00     0.037 H 
ATOM     67  H33 S5H d   1     -26.565  47.378 -11.565  0.00  0.00     0.037 H 
ENDBRANCH  62  64
ENDBRANCH  17  62
TORSDOF 9
