REMARK  20 active torsions:
REMARK  status: ('A' for Active; 'I' for Inactive)
REMARK       I    between atoms: C4_5  and  N1_1 
REMARK    1  A    between atoms: N1_1  and  C5_7 
REMARK    2  A    between atoms: C1_20  and  C2_2 
REMARK       I    between atoms: C13_25  and  N3_4 
REMARK    3  A    between atoms: N3_4  and  C14_27 
REMARK    4  A    between atoms: CA_18  and  C4_5 
REMARK    5  A    between atoms: N_14  and  O4_6 
REMARK    6  A    between atoms: C5_7  and  C6_8 
REMARK    7  A    between atoms: C5_7  and  C10_11 
REMARK    8  A    between atoms: C6_8  and  C8_9 
REMARK    9  A    between atoms: C6_8  and  C9_10 
REMARK   10  A    between atoms: C6_8  and  C7_23 
REMARK       I    between atoms: C10_11  and  N2_24 
REMARK   11  A    between atoms: C11_12  and  C12_13 
REMARK   12  A    between atoms: N2_24  and  C11_12 
REMARK   13  A    between atoms: C11_12  and  C13_25 
REMARK       I    between atoms: C_15  and  N_14 
REMARK   14  A    between atoms: C0_17  and  C_15 
REMARK   15  A    between atoms: CA_18  and  C0_17 
REMARK   16  A    between atoms: CB_19  and  CA_18 
REMARK   17  A    between atoms: CB_19  and  C1_20 
REMARK   18  A    between atoms: C1_20  and  C3_21 
REMARK   19  A    between atoms: C14_27  and  C15_28 
REMARK   20  A    between atoms: C15_28  and  N4_29 
ROOT
ATOM      1  C5  INN d   1       6.096   4.838  23.974  0.00  0.00     0.095 C 
ATOM      2  H7  INN d   1       5.014   4.932  24.150  0.00  0.00     0.088 H 
ENDROOT
BRANCH   1   3
ATOM      3  N1  INN d   1       6.690   6.115  24.326  0.00  0.00    -0.347 N 
ATOM      4  C4  INN d   1       5.933   7.107  24.793  0.00  0.00     0.223 C 
ATOM      5  O1  INN d   1       4.753   7.006  25.014  0.00  0.00    -0.273 OA
ATOM      6  H1  INN d   1       7.675   6.251  24.217  0.00  0.00     0.163 HD
BRANCH   4   7
ATOM      7  CA  INN d   1       6.654   8.420  25.029  0.00  0.00     0.032 C 
ATOM      8  H21 INN d   1       7.718   8.319  24.770  0.00  0.00     0.055 H 
BRANCH   7   9
ATOM      9  C0  INN d   1       5.985   9.464  24.122  0.00  0.00     0.022 C 
ATOM     10  H19 INN d   1       5.998   9.104  23.083  0.00  0.00     0.048 H 
ATOM     11  H20 INN d   1       4.944   9.612  24.446  0.00  0.00     0.048 H 
BRANCH   9  12
ATOM     12  C   INN d   1       6.727  10.785  24.203  0.00  0.00     0.241 C 
ATOM     13  N   INN d   1       6.092  11.780  24.801  0.00  0.00    -0.237 N 
ATOM     14  H18 INN d   1       5.170  11.625  25.156  0.00  0.00     0.197 HD
ATOM     15  O   INN d   1       7.823  10.883  23.699  0.00  0.00    -0.271 OA
BRANCH  13  16
ATOM     16  O4  INN d   1       6.669  13.029  24.948  0.00  0.00    -0.287 OA
ATOM     17  H6  INN d   1       6.870  13.387  24.091  0.00  0.00     0.244 HD
ENDBRANCH  13  16
ENDBRANCH   9  12
ENDBRANCH   7   9
BRANCH   7  18
ATOM     18  CB  INN d   1       6.522   8.840  26.496  0.00  0.00    -0.051 C 
ATOM     19  H22 INN d   1       5.455   8.875  26.760  0.00  0.00     0.034 H 
ATOM     20  H23 INN d   1       6.964   9.840  26.620  0.00  0.00     0.034 H 
BRANCH  18  21
ATOM     21  C1  INN d   1       7.229   7.871  27.436  0.00  0.00    -0.060 C 
ATOM     22  H24 INN d   1       6.810   6.866  27.278  0.00  0.00     0.038 H 
BRANCH  21  23
ATOM     23  C2  INN d   1       6.954   8.294  28.889  0.00  0.00    -0.073 C 
ATOM     24  H2  INN d   1       7.461   7.600  29.575  0.00  0.00     0.028 H 
ATOM     25  H3  INN d   1       5.871   8.271  29.079  0.00  0.00     0.028 H 
ATOM     26  H4  INN d   1       7.334   9.313  29.052  0.00  0.00     0.028 H 
ENDBRANCH  21  23
BRANCH  21  27
ATOM     27  C3  INN d   1       8.725   7.804  27.164  0.00  0.00    -0.073 C 
ATOM     28  H25 INN d   1       9.193   7.095  27.863  0.00  0.00     0.028 H 
ATOM     29  H26 INN d   1       9.168   8.802  27.302  0.00  0.00     0.028 H 
ATOM     30  H27 INN d   1       8.895   7.467  26.131  0.00  0.00     0.028 H 
ENDBRANCH  21  27
ENDBRANCH  18  21
ENDBRANCH   7  18
ENDBRANCH   4   7
ENDBRANCH   1   3
BRANCH   1  31
ATOM     31  C6  INN d   1       6.286   4.532  22.468  0.00  0.00    -0.022 C 
BRANCH  31  32
ATOM     32  C8  INN d   1       5.524   5.536  21.598  0.00  0.00    -0.067 C 
ATOM     33  H8  INN d   1       5.678   5.293  20.536  0.00  0.00     0.028 H 
ATOM     34  H9  INN d   1       5.896   6.552  21.799  0.00  0.00     0.028 H 
ATOM     35  H10 INN d   1       4.451   5.485  21.834  0.00  0.00     0.028 H 
ENDBRANCH  31  32
BRANCH  31  36
ATOM     36  C9  INN d   1       5.805   3.113  22.106  0.00  0.00    -0.067 C 
ATOM     37  H11 INN d   1       6.342   2.376  22.721  0.00  0.00     0.028 H 
ATOM     38  H12 INN d   1       6.006   2.918  21.042  0.00  0.00     0.028 H 
ATOM     39  H13 INN d   1       4.725   3.032  22.296  0.00  0.00     0.028 H 
ENDBRANCH  31  36
BRANCH  31  40
ATOM     40  C7  INN d   1       7.763   4.570  22.052  0.00  0.00    -0.067 C 
ATOM     41  H28 INN d   1       8.183   5.561  22.280  0.00  0.00     0.028 H 
ATOM     42  H29 INN d   1       7.845   4.377  20.972  0.00  0.00     0.028 H 
ATOM     43  H30 INN d   1       8.320   3.800  22.605  0.00  0.00     0.028 H 
ENDBRANCH  31  40
ENDBRANCH   1  31
BRANCH   1  44
ATOM     44  C10 INN d   1       6.575   3.707  24.837  0.00  0.00     0.241 C 
ATOM     45  O2  INN d   1       7.778   3.627  25.058  0.00  0.00    -0.271 OA
ATOM     46  N2  INN d   1       5.656   2.851  25.297  0.00  0.00    -0.346 N 
ATOM     47  H31 INN d   1       4.692   3.030  25.098  0.00  0.00     0.163 HD
BRANCH  46  48
ATOM     48  C11 INN d   1       6.000   1.666  26.077  0.00  0.00     0.086 C 
ATOM     49  H14 INN d   1       7.072   1.712  26.320  0.00  0.00     0.086 H 
BRANCH  48  50
ATOM     50  C12 INN d   1       5.228   1.498  27.376  0.00  0.00    -0.049 C 
ATOM     51  H15 INN d   1       5.560   0.581  27.884  0.00  0.00     0.030 H 
ATOM     52  H16 INN d   1       4.152   1.427  27.157  0.00  0.00     0.030 H 
ATOM     53  H17 INN d   1       5.413   2.365  28.027  0.00  0.00     0.030 H 
ENDBRANCH  48  50
BRANCH  48  54
ATOM     54  C13 INN d   1       5.725   0.459  25.201  0.00  0.00     0.240 C 
ATOM     55  N3  INN d   1       6.575  -0.561  25.238  0.00  0.00    -0.358 N 
ATOM     56  H5  INN d   1       7.367  -0.524  25.847  0.00  0.00     0.162 HD
ATOM     57  O3  INN d   1       4.749   0.409  24.467  0.00  0.00    -0.271 OA
BRANCH  55  58
ATOM     58  C14 INN d   1       6.362  -1.742  24.393  0.00  0.00     0.017 C 
ATOM     59  H32 INN d   1       5.322  -2.079  24.511  0.00  0.00     0.066 H 
ATOM     60  H33 INN d   1       7.045  -2.539  24.720  0.00  0.00     0.066 H 
BRANCH  58  61
ATOM     61  C15 INN d   1       6.619  -1.450  22.917  0.00  0.00     0.094 C 
ATOM     62  H34 INN d   1       7.117  -2.313  22.451  0.00  0.00     0.077 H 
ATOM     63  H35 INN d   1       7.260  -0.561  22.823  0.00  0.00     0.077 H 
BRANCH  61  64
ATOM     64  N4  INN d   1       5.340  -1.205  22.254  0.00  0.00    -0.078 N 
ATOM     65  H36 INN d   1       5.499  -1.011  21.278  0.00  0.00     0.274 HD
ATOM     66  H37 INN d   1       4.885  -0.415  22.684  0.00  0.00     0.274 HD
ATOM     67  H38 INN d   1       4.754  -2.020  22.343  0.00  0.00     0.274 HD
ENDBRANCH  61  64
ENDBRANCH  58  61
ENDBRANCH  55  58
ENDBRANCH  48  54
ENDBRANCH  46  48
ENDBRANCH   1  44
TORSDOF 20
