REMARK WARNING: 32 MAX_TORS EXCEEDED!!!
REMARK  75 active torsions:
REMARK  status: ('A' for Active; 'I' for Inactive)
REMARK    1  A    between atoms: CA_2  and  C_3 
REMARK       I    between atoms: C_3  and  N_8 
REMARK    2  A    between atoms: CA_9  and  C_10 
REMARK       I    between atoms: C_10  and  N_15 
REMARK    3  A    between atoms: N_15  and  CA_16 
REMARK    4  A    between atoms: CA_16  and  C_17 
REMARK    5  A    between atoms: CA_16  and  CB_19 
REMARK       I    between atoms: C_17  and  N_22 
REMARK    6  A    between atoms: CB_19  and  CG1_20 
REMARK    7  A    between atoms: CB_19  and  CG2_21 
REMARK    8  A    between atoms: N_22  and  CA_23 
REMARK    9  A    between atoms: CA_23  and  C_24 
REMARK   10  A    between atoms: CA_23  and  CB_26 
REMARK       I    between atoms: C_24  and  N_30 
REMARK   11  A    between atoms: CB_26  and  CG1_27 
REMARK   12  A    between atoms: CB_26  and  CG2_28 
REMARK   13  A    between atoms: CG1_27  and  CD1_29 
REMARK   14  A    between atoms: N_30  and  CA_31 
REMARK   15  A    between atoms: CA_31  and  C_32 
REMARK   16  A    between atoms: CA_31  and  CB_34 
REMARK       I    between atoms: C_32  and  N_35 
REMARK   17  A    between atoms: CA_36  and  C_37 
REMARK       I    between atoms: C_37  and  N_42 
REMARK   18  A    between atoms: N_42  and  CA_43 
REMARK   19  A    between atoms: CA_43  and  C_44 
REMARK   20  A    between atoms: CA_43  and  CB_46 
REMARK       I    between atoms: C_44  and  N_53 
REMARK   21  A    between atoms: CB_46  and  CG_47 
REMARK   22  A    between atoms: CG_47  and  CD_48 
REMARK   23  A    between atoms: CD_48  and  NE_49 
REMARK       I    between atoms: NE_49  and  CZ_50 
REMARK       I    between atoms: CZ_50  and  NH1_51 
REMARK       I    between atoms: CZ_50  and  NH2_52 
REMARK   24  A    between atoms: CA_54  and  C_55 
REMARK       I    between atoms: C_55  and  N_60 
REMARK   25  A    between atoms: N_60  and  CA_61 
REMARK   26  A    between atoms: CA_61  and  C_62 
REMARK   27  A    between atoms: CA_61  and  CB_64 
REMARK       I    between atoms: C_62  and  N_69 
REMARK   28  A    between atoms: CB_64  and  CG_65 
REMARK   29  A    between atoms: CG_65  and  CD_66 
REMARK   30  A    between atoms: N_69  and  CA_70 
REMARK   31  A    between atoms: CA_70  and  C_71 
REMARK   32  A    between atoms: CA_70  and  CB_73 
REMARK       I    between atoms: C_71  and  N_79 
REMARK   33  A    between atoms: CB_73  and  CG_74 
REMARK   34  A    between atoms: N_79  and  CA_80 
REMARK   35  A    between atoms: CA_80  and  C_81 
REMARK   36  A    between atoms: CA_80  and  CB_83 
REMARK       I    between atoms: C_81  and  N_86 
REMARK   37  A    between atoms: CB_83  and  OG1_84 
REMARK   38  A    between atoms: CB_83  and  CG2_85 
REMARK   39  A    between atoms: N_86  and  CA_87 
REMARK   40  A    between atoms: CA_87  and  C_88 
REMARK   41  A    between atoms: CA_87  and  CB_90 
REMARK       I    between atoms: C_88  and  N_95 
REMARK   42  A    between atoms: CB_90  and  CG_91 
REMARK   43  A    between atoms: CG_91  and  CD_92 
REMARK   44  A    between atoms: CD_92  and  CE_93 
REMARK   45  A    between atoms: CE_93  and  NZ_94 
REMARK   46  A    between atoms: N_95  and  CA_96 
REMARK   47  A    between atoms: CA_96  and  C_97 
REMARK   48  A    between atoms: CA_96  and  CB_99 
REMARK       I    between atoms: C_97  and  N_101 
REMARK   49  A    between atoms: CB_99  and  OG_100 
REMARK   50  A    between atoms: N_101  and  CA_102 
REMARK   51  A    between atoms: CA_102  and  C_103 
REMARK   52  A    between atoms: CA_102  and  CB_105 
REMARK       I    between atoms: C_103  and  N_109 
REMARK   53  A    between atoms: CB_105  and  CG1_106 
REMARK   54  A    between atoms: CB_105  and  CG2_107 
REMARK   55  A    between atoms: CG1_106  and  CD1_108 
REMARK   56  A    between atoms: N_109  and  CA_110 
REMARK   57  A    between atoms: CA_110  and  C_111 
REMARK   58  A    between atoms: CA_110  and  CB_113 
REMARK       I    between atoms: C_111  and  N_121 
REMARK   59  A    between atoms: CB_113  and  CG_114 
REMARK   60  A    between atoms: CZ_119  and  OH_120 
REMARK   61  A    between atoms: N_121  and  CA_122 
REMARK   62  A    between atoms: CA_122  and  C_123 
REMARK   63  A    between atoms: CA_122  and  CB_125 
REMARK       I    between atoms: C_123  and  N_128 
REMARK   64  A    between atoms: CB_125  and  OG1_126 
REMARK   65  A    between atoms: CB_125  and  CG2_127 
REMARK   66  A    between atoms: N_128  and  CA_129 
REMARK   67  A    between atoms: CA_129  and  C_130 
REMARK   68  A    between atoms: CA_129  and  CB_132 
REMARK       I    between atoms: C_130  and  N_139 
REMARK   69  A    between atoms: CB_132  and  CG_133 
REMARK   70  A    between atoms: CG_133  and  CD_134 
REMARK   71  A    between atoms: CD_134  and  NE_135 
REMARK       I    between atoms: NE_135  and  CZ_136 
REMARK       I    between atoms: CZ_136  and  NH1_137 
REMARK   72  A    between atoms: N_139  and  CA_140 
REMARK   73  A    between atoms: CA_140  and  C_141 
REMARK   74  A    between atoms: CA_140  and  CB_143 
REMARK   75  A    between atoms: CB_143  and  OG_144 
ROOT
ATOM      1  CA  HIS d   1      40.371  39.070  11.389  0.00  0.00     0.094 C 
ATOM      2  H76 HIS d   1      39.590  39.500  12.033  0.00  0.00     0.088 H 
ENDROOT
BRANCH   1   3
ATOM      3  N   HIS d   1      41.343  38.447  12.270  0.00  0.00    -0.346 N 
ATOM      4  C   GLU d   1      40.928  37.627  13.230  0.00  0.00     0.241 C 
ATOM      5  O   GLU d   1      39.743  37.340  13.380  0.00  0.00    -0.271 OA
ATOM      6  H75 HIS d   1      42.319  38.634  12.155  0.00  0.00     0.163 HD
BRANCH   4   7
ATOM      7  CA  GLU d   1      41.988  37.034  14.144  0.00  0.00     0.090 C 
ATOM      8  H70 GLU d   1      41.609  36.082  14.544  0.00  0.00     0.087 H 
BRANCH   7   9
ATOM      9  N   GLU d   1      43.222  36.771  13.437  0.00  0.00    -0.346 N 
ATOM     10  C   PRO d   1      43.227  35.967  12.388  0.00  0.00     0.241 C 
ATOM     11  O   PRO d   1      42.212  35.425  11.957  0.00  0.00    -0.271 OA
ATOM     12  H69 GLU d   1      44.073  37.198  13.742  0.00  0.00     0.163 HD
BRANCH  10  13
ATOM     13  CA  PRO d   1      44.561  35.742  11.711  0.00  0.00     0.091 C 
ATOM     14  N   PRO d   1      44.520  34.393  11.151  0.00  0.00    -0.337 N 
ATOM     15  C   ARG d   1      44.581  33.353  11.991  0.00  0.00     0.243 C 
ATOM     16  CD  PRO d   1      44.674  34.427   9.689  0.00  0.00    -0.001 C 
ATOM     17  O   ARG d   1      44.709  33.507  13.199  0.00  0.00    -0.271 OA
ATOM     18  CG  PRO d   1      45.365  35.746   9.487  0.00  0.00    -0.048 C 
ATOM     19  H67 PRO d   1      43.698  34.404   9.182  0.00  0.00     0.064 H 
ATOM     20  H68 PRO d   1      45.293  33.591   9.331  0.00  0.00     0.064 H 
ATOM     21  CB  PRO d   1      44.711  36.626  10.483  0.00  0.00    -0.036 C 
ATOM     22  H65 PRO d   1      46.444  35.660   9.684  0.00  0.00     0.035 H 
ATOM     23  H66 PRO d   1      45.208  36.121   8.465  0.00  0.00     0.035 H 
ATOM     24  H63 PRO d   1      45.340  37.501  10.705  0.00  0.00     0.036 H 
ATOM     25  H64 PRO d   1      43.728  36.963  10.121  0.00  0.00     0.036 H 
ATOM     26  H62 PRO d   1      45.392  35.883  12.418  0.00  0.00     0.087 H 
BRANCH  15  27
ATOM     27  CA  ARG d   1      44.523  31.956  11.392  0.00  0.00     0.089 C 
ATOM     28  H50 ARG d   1      44.478  32.020  10.295  0.00  0.00     0.087 H 
BRANCH  27  29
ATOM     29  N   ARG d   1      45.719  31.229  11.787  0.00  0.00    -0.346 N 
ATOM     30  C   PRO d   1      46.914  31.722  11.507  0.00  0.00     0.241 C 
ATOM     31  O   PRO d   1      47.068  32.772  10.884  0.00  0.00    -0.271 OA
ATOM     32  H49 ARG d   1      45.638  30.357  12.270  0.00  0.00     0.163 HD
BRANCH  30  33
ATOM     33  CA  PRO d   1      48.123  30.920  11.968  0.00  0.00     0.091 C 
ATOM     34  N   PRO d   1      49.161  31.163  10.970  0.00  0.00    -0.337 N 
ATOM     35  C   ALA d   1      48.922  30.716   9.735  0.00  0.00     0.243 C 
ATOM     36  CD  PRO d   1      50.378  31.713  11.590  0.00  0.00    -0.001 C 
ATOM     37  O   ALA d   1      47.902  30.087   9.462  0.00  0.00    -0.271 OA
ATOM     38  CG  PRO d   1      50.208  31.298  13.028  0.00  0.00    -0.048 C 
ATOM     39  H47 PRO d   1      50.418  32.808  11.492  0.00  0.00     0.064 H 
ATOM     40  H48 PRO d   1      51.285  31.272  11.151  0.00  0.00     0.064 H 
ATOM     41  CB  PRO d   1      48.732  31.490  13.243  0.00  0.00    -0.036 C 
ATOM     42  H45 PRO d   1      50.499  30.248  13.177  0.00  0.00     0.035 H 
ATOM     43  H46 PRO d   1      50.796  31.940  13.700  0.00  0.00     0.035 H 
ATOM     44  H43 PRO d   1      48.386  30.936  14.128  0.00  0.00     0.036 H 
ATOM     45  H44 PRO d   1      48.484  32.556  13.357  0.00  0.00     0.036 H 
ATOM     46  H42 PRO d   1      47.874  29.854  12.078  0.00  0.00     0.087 H 
BRANCH  35  47
ATOM     47  CA  ALA d   1      49.986  30.973   8.683  0.00  0.00     0.086 C 
ATOM     48  H38 ALA d   1      50.977  30.976   9.161  0.00  0.00     0.086 H 
BRANCH  47  49
ATOM     49  N   ALA d   1      49.935  29.915   7.693  0.00  0.00    -0.346 N 
ATOM     50  C   ILE d   1      50.237  28.672   8.033  0.00  0.00     0.241 C 
ATOM     51  O   ILE d   1      50.579  28.355   9.171  0.00  0.00    -0.271 OA
ATOM     52  H37 ALA d   1      49.671  30.125   6.752  0.00  0.00     0.163 HD
BRANCH  50  53
ATOM     53  CA  ILE d   1      50.150  27.638   6.931  0.00  0.00     0.092 C 
ATOM     54  H27 ILE d   1      49.783  28.105   6.006  0.00  0.00     0.088 H 
BRANCH  53  55
ATOM     55  N   ILE d   1      51.477  27.098   6.706  0.00  0.00    -0.346 N 
ATOM     56  C   VAL d   1      52.273  27.582   5.764  0.00  0.00     0.241 C 
ATOM     57  O   VAL d   1      51.948  28.492   5.003  0.00  0.00    -0.271 OA
ATOM     58  H26 ILE d   1      51.799  26.342   7.276  0.00  0.00     0.163 HD
BRANCH  56  59
ATOM     59  CA  VAL d   1      53.634  26.926   5.659  0.00  0.00     0.092 C 
ATOM     60  H18 VAL d   1      53.645  26.014   6.274  0.00  0.00     0.088 H 
BRANCH  59  61
ATOM     61  N   VAL d   1      53.892  26.563   4.281  0.00  0.00    -0.346 N 
ATOM     62  C   PRO d   1      53.257  25.548   3.711  0.00  0.00     0.241 C 
ATOM     63  O   PRO d   1      52.431  24.852   4.308  0.00  0.00    -0.271 OA
ATOM     64  H17 VAL d   1      54.559  27.086   3.751  0.00  0.00     0.163 HD
BRANCH  62  65
ATOM     65  CA  PRO d   1      53.627  25.275   2.263  0.00  0.00     0.091 C 
ATOM     66  N   PRO d   1      53.285  23.922   1.824  0.00  0.00    -0.337 N 
ATOM     67  C   PRO d   1      53.815  22.849   2.424  0.00  0.00     0.251 C 
ATOM     68  CD  PRO d   1      52.374  23.957   0.671  0.00  0.00    -0.001 C 
ATOM     69  O   PRO d   1      54.609  22.953   3.358  0.00  0.00    -0.271 OA
ATOM     70  CG  PRO d   1      51.759  25.318   0.799  0.00  0.00    -0.048 C 
ATOM     71  H15 PRO d   1      51.612  23.166   0.740  0.00  0.00     0.064 H 
ATOM     72  H16 PRO d   1      52.924  23.855  -0.276  0.00  0.00     0.064 H 
ATOM     73  CB  PRO d   1      52.878  26.169   1.273  0.00  0.00    -0.036 C 
ATOM     74  H13 PRO d   1      51.383  25.671  -0.172  0.00  0.00     0.035 H 
ATOM     75  H14 PRO d   1      50.937  25.309   1.530  0.00  0.00     0.035 H 
ATOM     76  H11 PRO d   1      53.531  26.459   0.436  0.00  0.00     0.036 H 
ATOM     77  H12 PRO d   1      52.498  27.073   1.772  0.00  0.00     0.036 H 
ATOM     78  H10 PRO d   1      54.710  25.434   2.159  0.00  0.00     0.087 H 
BRANCH  67  79
ATOM     79  CA  PRO d   1      53.399  21.477   1.898  0.00  0.00     0.178 C 
ATOM     80  N   PRO d   1      54.345  20.435   2.349  0.00  0.00    -0.062 N 
ATOM     81  CD  PRO d   1      53.657  19.498   3.255  0.00  0.00     0.083 C 
ATOM     82  H1  PRO d   1      55.114  20.869   2.836  0.00  0.00     0.278 HD
ATOM     83  H2  PRO d   1      54.695  19.931   1.549  0.00  0.00     0.278 HD
ATOM     84  CG  PRO d   1      52.411  20.294   3.673  0.00  0.00    -0.040 C 
ATOM     85  H8  PRO d   1      54.284  19.254   4.126  0.00  0.00     0.075 H 
ATOM     86  H9  PRO d   1      53.379  18.571   2.732  0.00  0.00     0.075 H 
ATOM     87  CB  PRO d   1      52.029  21.082   2.427  0.00  0.00    -0.028 C 
ATOM     88  H6  PRO d   1      51.597  19.616   3.969  0.00  0.00     0.035 H 
ATOM     89  H7  PRO d   1      52.644  20.973   4.506  0.00  0.00     0.035 H 
ATOM     90  H4  PRO d   1      51.483  20.456   1.706  0.00  0.00     0.036 H 
ATOM     91  H5  PRO d   1      51.423  21.965   2.678  0.00  0.00     0.036 H 
ATOM     92  H3  PRO d   1      53.377  21.509   0.799  0.00  0.00     0.099 H 
ENDBRANCH  67  79
ENDBRANCH  62  65
ENDBRANCH  59  61
BRANCH  59  93
ATOM     93  CB  VAL d   1      54.703  27.895   6.186  0.00  0.00    -0.033 C 
ATOM     94  H19 VAL d   1      54.693  28.807   5.570  0.00  0.00     0.042 H 
BRANCH  93  95
ATOM     95  CG1 VAL d   1      54.399  28.275   7.625  0.00  0.00    -0.071 C 
ATOM     96  H20 VAL d   1      55.170  28.968   7.992  0.00  0.00     0.028 H 
ATOM     97  H21 VAL d   1      54.393  27.370   8.250  0.00  0.00     0.028 H 
ATOM     98  H22 VAL d   1      53.414  28.762   7.675  0.00  0.00     0.028 H 
ENDBRANCH  93  95
BRANCH  93  99
ATOM     99  CG2 VAL d   1      56.074  27.247   6.081  0.00  0.00    -0.071 C 
ATOM    100  H23 VAL d   1      56.274  26.980   5.033  0.00  0.00     0.028 H 
ATOM    101  H24 VAL d   1      56.099  26.339   6.702  0.00  0.00     0.028 H 
ATOM    102  H25 VAL d   1      56.841  27.953   6.432  0.00  0.00     0.028 H 
ENDBRANCH  93  99
ENDBRANCH  59  93
ENDBRANCH  56  59
ENDBRANCH  53  55
BRANCH  53 103
ATOM    103  CB  ILE d   1      49.180  26.543   7.366  0.00  0.00    -0.030 C 
ATOM    104  H28 ILE d   1      49.587  26.034   8.252  0.00  0.00     0.043 H 
BRANCH 103 105
ATOM    105  CG1 ILE d   1      49.023  25.523   6.240  0.00  0.00    -0.063 C 
ATOM    106  H29 ILE d   1      50.021  25.146   5.971  0.00  0.00     0.033 H 
ATOM    107  H30 ILE d   1      48.576  26.030   5.372  0.00  0.00     0.033 H 
BRANCH 105 108
ATOM    108  CD1 ILE d   1      48.155  24.351   6.605  0.00  0.00    -0.076 C 
ATOM    109  H34 ILE d   1      48.089  23.663   5.749  0.00  0.00     0.027 H 
ATOM    110  H35 ILE d   1      47.148  24.708   6.867  0.00  0.00     0.027 H 
ATOM    111  H36 ILE d   1      48.593  23.824   7.466  0.00  0.00     0.027 H 
ENDBRANCH 105 108
ENDBRANCH 103 105
BRANCH 103 112
ATOM    112  CG2 ILE d   1      47.843  27.153   7.726  0.00  0.00    -0.071 C 
ATOM    113  H31 ILE d   1      47.980  27.883   8.537  0.00  0.00     0.028 H 
ATOM    114  H32 ILE d   1      47.156  26.361   8.058  0.00  0.00     0.028 H 
ATOM    115  H33 ILE d   1      47.422  27.659   6.845  0.00  0.00     0.028 H 
ENDBRANCH 103 112
ENDBRANCH  53 103
ENDBRANCH  50  53
ENDBRANCH  47  49
BRANCH  47 116
ATOM    116  CB  ALA d   1      49.750  32.322   8.019  0.00  0.00    -0.049 C 
ATOM    117  H39 ALA d   1      49.791  33.117   8.778  0.00  0.00     0.030 H 
ATOM    118  H40 ALA d   1      48.761  32.326   7.537  0.00  0.00     0.030 H 
ATOM    119  H41 ALA d   1      50.528  32.499   7.261  0.00  0.00     0.030 H 
ENDBRANCH  47 116
ENDBRANCH  35  47
ENDBRANCH  30  33
ENDBRANCH  27  29
BRANCH  27 120
ATOM    120  CB  ARG d   1      43.269  31.255  11.916  0.00  0.00    -0.036 C 
ATOM    121  H51 ARG d   1      42.454  31.993  11.949  0.00  0.00     0.036 H 
ATOM    122  H52 ARG d   1      43.479  30.895  12.934  0.00  0.00     0.036 H 
BRANCH 120 123
ATOM    123  CG  ARG d   1      42.803  30.078  11.088  0.00  0.00    -0.048 C 
ATOM    124  H53 ARG d   1      42.038  29.520  11.648  0.00  0.00     0.035 H 
ATOM    125  H54 ARG d   1      43.659  29.419  10.880  0.00  0.00     0.035 H 
BRANCH 123 126
ATOM    126  CD  ARG d   1      42.213  30.557   9.780  0.00  0.00     0.009 C 
ATOM    127  H55 ARG d   1      42.026  29.685   9.136  0.00  0.00     0.064 H 
ATOM    128  H56 ARG d   1      42.935  31.227   9.290  0.00  0.00     0.064 H 
BRANCH 126 129
ATOM    129  NE  ARG d   1      40.960  31.276   9.971  0.00  0.00    -0.227 N 
ATOM    130  CZ  ARG d   1      39.811  30.695  10.296  0.00  0.00     0.665 C 
ATOM    131  NH1 ARG d   1      39.759  29.381  10.466  0.00  0.00    -0.235 N 
ATOM    132  NH2 ARG d   1      38.716  31.426  10.443  0.00  0.00    -0.235 N 
ATOM    133  H58 ARG d   1      38.868  28.929  10.718  0.00  0.00     0.174 HD
ATOM    134  H59 ARG d   1      40.609  28.812  10.346  0.00  0.00     0.174 HD
ATOM    135  H60 ARG d   1      38.757  32.447  10.311  0.00  0.00     0.174 HD
ATOM    136  H61 ARG d   1      37.824  30.974  10.689  0.00  0.00     0.174 HD
ATOM    137  H57 ARG d   1      40.966  32.298   9.846  0.00  0.00     0.177 HD
ENDBRANCH 126 129
ENDBRANCH 123 126
ENDBRANCH 120 123
ENDBRANCH  27 120
ENDBRANCH  15  27
ENDBRANCH  10  13
ENDBRANCH   7   9
BRANCH   7 138
ATOM    138  CB  GLU d   1      42.248  37.986  15.305  0.00  0.00    -0.029 C 
ATOM    139  H71 GLU d   1      42.609  38.942  14.898  0.00  0.00     0.037 H 
ATOM    140  H72 GLU d   1      43.023  37.546  15.950  0.00  0.00     0.037 H 
BRANCH 138 141
ATOM    141  CG  GLU d   1      41.021  38.254  16.144  0.00  0.00     0.018 C 
ATOM    142  H73 GLU d   1      40.270  38.760  15.520  0.00  0.00     0.049 H 
ATOM    143  H74 GLU d   1      41.302  38.908  16.983  0.00  0.00     0.049 H 
BRANCH 141 144
ATOM    144  CD  GLU d   1      40.416  36.982  16.699  0.00  0.00     0.172 C 
ATOM    145  OE1 GLU d   1      41.168  36.176  17.286  0.00  0.00    -0.648 OA
ATOM    146  OE2 GLU d   1      39.189  36.794  16.552  0.00  0.00    -0.648 OA
ENDBRANCH 141 144
ENDBRANCH 138 141
ENDBRANCH   7 138
ENDBRANCH   4   7
ENDBRANCH   1   3
BRANCH   1 147
ATOM    147  C   HIS d   1      39.683  38.098  10.446  0.00  0.00     0.241 C 
ATOM    148  O   HIS d   1      38.818  38.490   9.669  0.00  0.00    -0.271 OA
ATOM    149  N   THR d   1      40.074  36.831  10.504  0.00  0.00    -0.344 N 
ATOM    150  H82 THR d   1      40.814  36.566  11.122  0.00  0.00     0.163 HD
BRANCH 149 151
ATOM    151  CA  THR d   1      39.429  35.824   9.670  0.00  0.00     0.113 C 
ATOM    152  H83 THR d   1      38.787  36.327   8.932  0.00  0.00     0.091 H 
BRANCH 151 153
ATOM    153  C   THR d   1      38.600  34.919  10.558  0.00  0.00     0.243 C 
ATOM    154  O   THR d   1      37.896  34.040  10.074  0.00  0.00    -0.271 OA
ATOM    155  N   LYS d   1      38.692  35.135  11.862  0.00  0.00    -0.346 N 
ATOM    156  H89 LYS d   1      39.267  35.880  12.200  0.00  0.00     0.163 HD
BRANCH 155 157
ATOM    157  CA  LYS d   1      37.969  34.305  12.804  0.00  0.00     0.089 C 
ATOM    158  H90 LYS d   1      37.826  33.323  12.329  0.00  0.00     0.087 H 
BRANCH 157 159
ATOM    159  C   LYS d   1      36.603  34.820  13.194  0.00  0.00     0.241 C 
ATOM    160  O   LYS d   1      36.263  35.983  12.990  0.00  0.00    -0.271 OA
ATOM    161  N   SER d   1      35.825  33.911  13.761  0.00  0.00    -0.344 N 
ATOM    162 2H10 SER d   1      36.174  32.980  13.863  0.00  0.00     0.163 HD
BRANCH 161 163
ATOM    163  CA  SER d   1      34.489  34.206  14.241  0.00  0.00     0.109 C 
ATOM    164 3H10 SER d   1      34.424  35.232  14.632  0.00  0.00     0.090 H 
BRANCH 163 165
ATOM    165  C   SER d   1      34.278  33.181  15.338  0.00  0.00     0.243 C 
ATOM    166  O   SER d   1      35.185  32.407  15.648  0.00  0.00    -0.271 OA
ATOM    167  N   ILE d   1      33.092  33.171  15.931  0.00  0.00    -0.346 N 
ATOM    168 7H10 ILE d   1      32.389  33.826  15.653  0.00  0.00     0.163 HD
BRANCH 167 169
ATOM    169  CA  ILE d   1      32.813  32.208  16.985  0.00  0.00     0.092 C 
ATOM    170 8H10 ILE d   1      33.587  32.297  17.762  0.00  0.00     0.088 H 
BRANCH 169 171
ATOM    171  C   ILE d   1      32.848  30.805  16.392  0.00  0.00     0.241 C 
ATOM    172  O   ILE d   1      32.928  29.818  17.118  0.00  0.00    -0.271 OA
ATOM    173  N   TYR d   1      32.808  30.729  15.064  0.00  0.00    -0.346 N 
ATOM    174 8H11 TYR d   1      32.763  31.572  14.528  0.00  0.00     0.163 HD
BRANCH 173 175
ATOM    175  CA  TYR d   1      32.828  29.448  14.372  0.00  0.00     0.093 C 
ATOM    176 9H11 TYR d   1      32.282  28.726  14.997  0.00  0.00     0.088 H 
BRANCH 175 177
ATOM    177  C   TYR d   1      34.226  28.896  14.165  0.00  0.00     0.241 C 
ATOM    178  O   TYR d   1      34.401  27.775  13.692  0.00  0.00    -0.271 OA
ATOM    179  N   THR d   1      35.227  29.685  14.532  0.00  0.00    -0.344 N 
ATOM    180 7H12 THR d   1      35.035  30.595  14.899  0.00  0.00     0.163 HD
BRANCH 179 181
ATOM    181  CA  THR d   1      36.598  29.233  14.404  0.00  0.00     0.113 C 
ATOM    182 8H12 THR d   1      36.710  28.627  13.493  0.00  0.00     0.091 H 
BRANCH 181 183
ATOM    183  C   THR d   1      36.895  28.388  15.636  0.00  0.00     0.243 C 
ATOM    184  O   THR d   1      37.621  28.811  16.534  0.00  0.00    -0.271 OA
ATOM    185  N   ARG d   1      36.305  27.197  15.672  0.00  0.00    -0.346 N 
ATOM    186 4H13 ARG d   1      35.722  26.923  14.907  0.00  0.00     0.163 HD
BRANCH 185 187
ATOM    187  CA  ARG d   1      36.480  26.275  16.792  0.00  0.00     0.089 C 
ATOM    188 5H13 ARG d   1      36.864  26.833  17.658  0.00  0.00     0.087 H 
BRANCH 187 189
ATOM    189  C   ARG d   1      37.467  25.176  16.419  0.00  0.00     0.241 C 
ATOM    190  O   ARG d   1      37.396  24.613  15.326  0.00  0.00    -0.271 OA
ATOM    191  N   SER d   1      38.377  24.865  17.335  0.00  0.00    -0.343 N 
ATOM    192 7H14 SER d   1      38.383  25.357  18.206  0.00  0.00     0.163 HD
BRANCH 191 193
ATOM    193  CA  SER d   1      39.368  23.822  17.099  0.00  0.00     0.116 C 
ATOM    194 8H14 SER d   1      39.220  23.413  16.089  0.00  0.00     0.093 H 
BRANCH 193 195
ATOM    195  C   SER d   1      39.196  22.699  18.117  0.00  0.00     0.198 C 
ATOM    196  O   SER d   1      40.143  22.450  18.892  0.00  0.00    -0.646 OA
ATOM    197  OXT SER d   1      38.109  22.083  18.129  0.00  0.00    -0.646 OA
ENDBRANCH 193 195
BRANCH 193 198
ATOM    198  CB  SER d   1      40.781  24.402  17.195  0.00  0.00     0.045 C 
ATOM    199 9H14 SER d   1      40.951  24.769  18.218  0.00  0.00     0.077 H 
ATOM    200 0H15 SER d   1      40.876  25.237  16.486  0.00  0.00     0.077 H 
BRANCH 198 201
ATOM    201  OG  SER d   1      41.756  23.419  16.887  0.00  0.00    -0.398 OA
ATOM    202 1H15 SER d   1      41.616  23.102  16.003  0.00  0.00     0.209 HD
ENDBRANCH 198 201
ENDBRANCH 193 198
ENDBRANCH 191 193
ENDBRANCH 187 189
BRANCH 187 203
ATOM    203  CB  ARG d   1      35.146  25.620  17.162  0.00  0.00    -0.036 C 
ATOM    204 6H13 ARG d   1      35.247  25.193  18.171  0.00  0.00     0.036 H 
ATOM    205 7H13 ARG d   1      34.953  24.813  16.439  0.00  0.00     0.036 H 
BRANCH 203 206
ATOM    206  CG  ARG d   1      33.941  26.545  17.164  0.00  0.00    -0.048 C 
ATOM    207 8H13 ARG d   1      33.874  27.058  16.193  0.00  0.00     0.035 H 
ATOM    208 9H13 ARG d   1      34.056  27.290  17.965  0.00  0.00     0.035 H 
BRANCH 206 209
ATOM    209  CD  ARG d   1      32.666  25.744  17.399  0.00  0.00     0.009 C 
ATOM    210 0H14 ARG d   1      32.637  25.428  18.452  0.00  0.00     0.064 H 
ATOM    211 1H14 ARG d   1      32.683  24.856  16.750  0.00  0.00     0.064 H 
BRANCH 209 212
ATOM    212  NE  ARG d   1      31.461  26.513  17.108  0.00  0.00    -0.227 N 
ATOM    213  CZ  ARG d   1      30.227  26.016  17.144  0.00  0.00     0.665 C 
ATOM    214  NH1 ARG d   1      30.030  24.742  17.461  0.00  0.00    -0.235 N 
ATOM    215  NH2 ARG d   1      29.190  26.790  16.850  0.00  0.00    -0.235 N 
ATOM    216 3H14 ARG d   1      29.074  24.360  17.488  0.00  0.00     0.174 HD
ATOM    217 4H14 ARG d   1      30.833  24.136  17.680  0.00  0.00     0.174 HD
ATOM    218 5H14 ARG d   1      29.339  27.779  16.604  0.00  0.00     0.174 HD
ATOM    219 6H14 ARG d   1      28.236  26.402  16.868  0.00  0.00     0.174 HD
ATOM    220 2H14 ARG d   1      31.573  27.506  16.858  0.00  0.00     0.177 HD
ENDBRANCH 209 212
ENDBRANCH 206 209
ENDBRANCH 203 206
ENDBRANCH 187 203
ENDBRANCH 185 187
ENDBRANCH 181 183
BRANCH 181 221
ATOM    221  CB  THR d   1      37.561  30.421  14.343  0.00  0.00     0.060 C 
ATOM    222 9H12 THR d   1      37.577  30.927  15.319  0.00  0.00     0.086 H 
BRANCH 221 223
ATOM    223  OG1 THR d   1      37.112  31.336  13.337  0.00  0.00    -0.393 OA
ATOM    224 0H13 THR d   1      37.093  30.895  12.495  0.00  0.00     0.210 HD
ENDBRANCH 221 223
BRANCH 221 225
ATOM    225  CG2 THR d   1      38.962  29.948  14.002  0.00  0.00    -0.050 C 
ATOM    226 1H13 THR d   1      39.641  30.812  13.962  0.00  0.00     0.031 H 
ATOM    227 2H13 THR d   1      38.951  29.445  13.024  0.00  0.00     0.031 H 
ATOM    228 3H13 THR d   1      39.309  29.244  14.773  0.00  0.00     0.031 H 
ENDBRANCH 221 225
ENDBRANCH 181 221
ENDBRANCH 179 181
ENDBRANCH 175 177
BRANCH 175 229
ATOM    229  CB  TYR d   1      32.091  29.574  13.043  0.00  0.00    -0.014 C 
ATOM    230 0H12 TYR d   1      32.172  28.625  12.493  0.00  0.00     0.043 H 
ATOM    231 1H12 TYR d   1      32.547  30.381  12.451  0.00  0.00     0.043 H 
BRANCH 229 232
ATOM    232  CG  TYR d   1      30.642  29.889  13.275  0.00  0.00    -0.056 A 
ATOM    233  CD1 TYR d   1      30.085  31.095  12.856  0.00  0.00    -0.074 A 
ATOM    234  CE1 TYR d   1      28.768  31.414  13.157  0.00  0.00    -0.051 A 
ATOM    235 2H12 TYR d   1      30.688  31.794  12.287  0.00  0.00     0.084 H 
ATOM    236  CZ  TYR d   1      28.002  30.517  13.883  0.00  0.00     0.065 A 
ATOM    237 4H12 TYR d   1      28.343  32.355  12.827  0.00  0.00     0.087 H 
ATOM    238  CE2 TYR d   1      28.534  29.313  14.301  0.00  0.00    -0.051 A 
ATOM    239  CD2 TYR d   1      29.842  29.005  13.995  0.00  0.00    -0.074 A 
ATOM    240 5H12 TYR d   1      27.927  28.615  14.866  0.00  0.00     0.087 H 
ATOM    241 3H12 TYR d   1      30.256  28.057  14.321  0.00  0.00     0.084 H 
BRANCH 236 242
ATOM    242  OH  TYR d   1      26.707  30.824  14.203  0.00  0.00    -0.361 OA
ATOM    243 6H12 TYR d   1      26.488  31.678  13.848  0.00  0.00     0.217 HD
ENDBRANCH 236 242
ENDBRANCH 229 232
ENDBRANCH 175 229
ENDBRANCH 173 175
ENDBRANCH 169 171
BRANCH 169 244
ATOM    244  CB  ILE d   1      31.426  32.446  17.631  0.00  0.00    -0.030 C 
ATOM    245 9H10 ILE d   1      31.291  31.724  18.450  0.00  0.00     0.043 H 
BRANCH 244 246
ATOM    246  CG1 ILE d   1      30.313  32.224  16.604  0.00  0.00    -0.063 C 
ATOM    247 0H11 ILE d   1      29.350  32.229  17.136  0.00  0.00     0.033 H 
ATOM    248 1H11 ILE d   1      30.469  31.240  16.137  0.00  0.00     0.033 H 
BRANCH 246 249
ATOM    249  CD1 ILE d   1      30.248  33.260  15.506  0.00  0.00    -0.076 C 
ATOM    250 5H11 ILE d   1      29.422  33.017  14.821  0.00  0.00     0.027 H 
ATOM    251 6H11 ILE d   1      31.197  33.264  14.949  0.00  0.00     0.027 H 
ATOM    252 7H11 ILE d   1      30.078  34.253  15.948  0.00  0.00     0.027 H 
ENDBRANCH 246 249
ENDBRANCH 244 246
BRANCH 244 253
ATOM    253  CG2 ILE d   1      31.362  33.852  18.211  0.00  0.00    -0.071 C 
ATOM    254 2H11 ILE d   1      32.171  33.983  18.944  0.00  0.00     0.028 H 
ATOM    255 3H11 ILE d   1      30.391  34.001  18.706  0.00  0.00     0.028 H 
ATOM    256 4H11 ILE d   1      31.477  34.588  17.402  0.00  0.00     0.028 H 
ENDBRANCH 244 253
ENDBRANCH 169 244
ENDBRANCH 167 169
ENDBRANCH 163 165
BRANCH 163 257
ATOM    257  CB  SER d   1      33.458  34.004  13.136  0.00  0.00     0.044 C 
ATOM    258 4H10 SER d   1      33.810  34.499  12.219  0.00  0.00     0.077 H 
ATOM    259 5H10 SER d   1      32.501  34.448  13.449  0.00  0.00     0.077 H 
BRANCH 257 260
ATOM    260  OG  SER d   1      33.268  32.625  12.877  0.00  0.00    -0.398 OA
ATOM    261 6H10 SER d   1      34.092  32.239  12.604  0.00  0.00     0.209 HD
ENDBRANCH 257 260
ENDBRANCH 163 257
ENDBRANCH 161 163
ENDBRANCH 157 159
BRANCH 157 262
ATOM    262  CB  LYS d   1      38.798  34.112  14.066  0.00  0.00    -0.038 C 
ATOM    263  H91 LYS d   1      38.219  33.497  14.771  0.00  0.00     0.036 H 
ATOM    264  H92 LYS d   1      38.987  35.100  14.511  0.00  0.00     0.036 H 
BRANCH 262 265
ATOM    265  CG  LYS d   1      40.123  33.438  13.823  0.00  0.00    -0.061 C 
ATOM    266  H93 LYS d   1      40.735  34.072  13.164  0.00  0.00     0.033 H 
ATOM    267  H94 LYS d   1      39.950  32.465  13.339  0.00  0.00     0.033 H 
BRANCH 265 268
ATOM    268  CD  LYS d   1      40.859  33.220  15.127  0.00  0.00    -0.043 C 
ATOM    269  H95 LYS d   1      40.238  32.601  15.791  0.00  0.00     0.035 H 
ATOM    270  H96 LYS d   1      41.044  34.195  15.602  0.00  0.00     0.035 H 
BRANCH 268 271
ATOM    271  CE  LYS d   1      42.180  32.524  14.898  0.00  0.00     0.080 C 
ATOM    272  H97 LYS d   1      42.827  33.175  14.292  0.00  0.00     0.075 H 
ATOM    273  H98 LYS d   1      42.000  31.582  14.359  0.00  0.00     0.075 H 
BRANCH 271 274
ATOM    274  NZ  LYS d   1      42.864  32.223  16.184  0.00  0.00    -0.079 N 
ATOM    275  H99 LYS d   1      43.740  31.760  15.998  0.00  0.00     0.274 HD
ATOM    276 0H10 LYS d   1      42.279  31.623  16.743  0.00  0.00     0.274 HD
ATOM    277 1H10 LYS d   1      43.037  33.082  16.682  0.00  0.00     0.274 HD
ENDBRANCH 271 274
ENDBRANCH 268 271
ENDBRANCH 265 268
ENDBRANCH 262 265
ENDBRANCH 157 262
ENDBRANCH 155 157
ENDBRANCH 151 153
BRANCH 151 278
ATOM    278  CB  THR d   1      40.431  34.923   8.944  0.00  0.00     0.060 C 
ATOM    279  H84 THR d   1      39.886  34.286   8.232  0.00  0.00     0.086 H 
BRANCH 278 280
ATOM    280  OG1 THR d   1      41.104  34.090   9.894  0.00  0.00    -0.393 OA
ATOM    281  H85 THR d   1      41.565  34.635  10.521  0.00  0.00     0.210 HD
ENDBRANCH 278 280
BRANCH 278 282
ATOM    282  CG2 THR d   1      41.434  35.752   8.183  0.00  0.00    -0.050 C 
ATOM    283  H86 THR d   1      42.144  35.088   7.669  0.00  0.00     0.031 H 
ATOM    284  H87 THR d   1      41.980  36.401   8.883  0.00  0.00     0.031 H 
ATOM    285  H88 THR d   1      40.910  36.372   7.441  0.00  0.00     0.031 H 
ENDBRANCH 278 282
ENDBRANCH 151 278
ENDBRANCH 149 151
ENDBRANCH   1 147
BRANCH   1 286
ATOM    286  CB  HIS d   1      40.997  40.218  10.596  0.00  0.00     0.004 C 
ATOM    287  H77 HIS d   1      41.410  40.946  11.310  0.00  0.00     0.046 H 
ATOM    288  H78 HIS d   1      40.207  40.697  10.000  0.00  0.00     0.046 H 
BRANCH 286 289
ATOM    289  CG  HIS d   1      42.090  39.795   9.672  0.00  0.00     0.053 A 
ATOM    290  ND1 HIS d   1      43.374  39.542  10.102  0.00  0.00    -0.247 NA
ATOM    291  CE1 HIS d   1      44.125  39.217   9.066  0.00  0.00     0.064 A 
ATOM    292  NE2 HIS d   1      43.372  39.245   7.981  0.00  0.00    -0.359 N 
ATOM    293  H80 HIS d   1      45.185  38.968   9.100  0.00  0.00     0.143 H 
ATOM    294  CD2 HIS d   1      42.095  39.601   8.333  0.00  0.00     0.002 A 
ATOM    295  H81 HIS d   1      43.692  39.034   7.025  0.00  0.00     0.166 HD
ATOM    296  H79 HIS d   1      41.245  39.708   7.661  0.00  0.00     0.114 H 
ENDBRANCH 286 289
ENDBRANCH   1 286
TORSDOF 75
