REMARK  7 active torsions:
REMARK  status: ('A' for Active; 'I' for Inactive)
REMARK    1  A    between atoms: C25_2  and  N3_31 
REMARK    2  A    between atoms: C23_4  and  N4_34 
REMARK    3  A    between atoms: C22_5  and  O6_32 
REMARK    4  A    between atoms: C21_6  and  C26_7 
REMARK    5  A    between atoms: C21_6  and  N2_8 
REMARK    6  A    between atoms: O6_32  and  C27_33 
REMARK    7  A    between atoms: N4_34  and  C28_35 
ROOT
ATOM      1  O4  STU d   1     -15.011  20.162 -13.935  0.00  0.00    -0.333 OA
ATOM      2  C25 STU d   1     -14.841  18.934 -14.670  0.00  0.00     0.115 C 
ATOM      3  C24 STU d   1     -15.738  18.799 -15.923  0.00  0.00     0.005 C 
ATOM      4  C23 STU d   1     -16.448  20.092 -16.196  0.00  0.00     0.134 C 
ATOM      5  C22 STU d   1     -17.279  20.342 -14.942  0.00  0.00     0.113 C 
ATOM      6  C21 STU d   1     -16.316  20.685 -13.726  0.00  0.00     0.168 C 
ATOM      7  H1  STU d   1     -13.794  18.873 -15.004  0.00  0.00     0.118 H 
ATOM      8  H2  STU d   1     -16.481  18.006 -15.754  0.00  0.00     0.042 H 
ATOM      9  H3  STU d   1     -15.114  18.538 -16.790  0.00  0.00     0.042 H 
ATOM     10  H4  STU d   1     -15.733  20.913 -16.351  0.00  0.00     0.088 H 
ATOM     11  H5  STU d   1     -17.962  21.189 -15.104  0.00  0.00     0.094 H 
ENDROOT
BRANCH   4  12
ATOM     12  N4  STU d   1     -17.280  19.927 -17.403  0.00  0.00    -0.072 N 
ATOM     13  H23 STU d   1     -18.036  19.294 -17.192  0.00  0.00     0.277 HD
ATOM     14  H24 STU d   1     -16.711  19.538 -18.139  0.00  0.00     0.277 HD
BRANCH  12  15
ATOM     15  C28 STU d   1     -17.856  21.225 -17.874  0.00  0.00     0.065 C 
ATOM     16  H25 STU d   1     -18.466  21.051 -18.773  0.00  0.00     0.067 H 
ATOM     17  H26 STU d   1     -17.040  21.923 -18.114  0.00  0.00     0.067 H 
ATOM     18  H27 STU d   1     -18.485  21.656 -17.081  0.00  0.00     0.067 H 
ENDBRANCH  12  15
ENDBRANCH   4  12
BRANCH   5  19
ATOM     19  O6  STU d   1     -18.039  19.152 -14.723  0.00  0.00    -0.384 OA
BRANCH  19  20
ATOM     20  C27 STU d   1     -19.415  19.385 -14.348  0.00  0.00     0.005 C 
ATOM     21  H20 STU d   1     -19.923  18.421 -14.200  0.00  0.00     0.066 H 
ATOM     22  H21 STU d   1     -19.922  19.948 -15.145  0.00  0.00     0.066 H 
ATOM     23  H22 STU d   1     -19.447  19.964 -13.413  0.00  0.00     0.066 H 
ENDBRANCH  19  20
ENDBRANCH   5  19
BRANCH   2  24
ATOM     24  N3  STU d   1     -15.108  17.851 -13.735  0.00  0.00    -0.316 N 
ATOM     25  C19 STU d   1     -15.919  17.901 -12.654  0.00  0.00     0.077 A 
ATOM     26  C18 STU d   1     -16.745  18.949 -12.113  0.00  0.00     0.077 A 
ATOM     27  C6  STU d   1     -15.873  16.627 -11.985  0.00  0.00     0.022 A 
ATOM     28  N2  STU d   1     -16.939  20.249 -12.446  0.00  0.00    -0.308 N 
ATOM     29  C11 STU d   1     -17.461  18.637 -10.924  0.00  0.00     0.015 A 
ATOM     30  C17 STU d   1     -17.820  20.740 -11.537  0.00  0.00     0.049 A 
ATOM     31  C12 STU d   1     -18.256  19.784 -10.593  0.00  0.00     0.004 A 
ATOM     32  C16 STU d   1     -18.421  21.996 -11.517  0.00  0.00    -0.056 A 
ATOM     33  C13 STU d   1     -19.200  20.068  -9.585  0.00  0.00    -0.070 A 
ATOM     34  C14 STU d   1     -19.765  21.388  -9.573  0.00  0.00    -0.082 A 
ATOM     35  H12 STU d   1     -19.486  19.323  -8.852  0.00  0.00     0.084 H 
ATOM     36  C15 STU d   1     -19.391  22.340 -10.546  0.00  0.00    -0.081 A 
ATOM     37  H11 STU d   1     -20.486  21.656  -8.809  0.00  0.00     0.083 H 
ATOM     38  H10 STU d   1     -19.843  23.325 -10.549  0.00  0.00     0.083 H 
ATOM     39  H9  STU d   1     -18.139  22.729 -12.264  0.00  0.00     0.087 H 
ATOM     40  C10 STU d   1     -17.436  17.370 -10.258  0.00  0.00    -0.010 A 
ATOM     41  C7  STU d   1     -16.614  16.348 -10.792  0.00  0.00     0.054 A 
ATOM     42  C9  STU d   1     -18.112  16.778  -9.044  0.00  0.00     0.021 A 
ATOM     43  C8  STU d   1     -16.651  15.155 -10.052  0.00  0.00     0.253 A 
ATOM     44  N1  STU d   1     -17.547  15.395  -9.042  0.00  0.00    -0.353 N 
ATOM     45  O5  STU d   1     -16.010  14.108 -10.217  0.00  0.00    -0.268 OA
ATOM     46  H15 STU d   1     -17.800  14.705  -8.364  0.00  0.00     0.163 HD
ATOM     47  H13 STU d   1     -19.206  16.766  -9.158  0.00  0.00     0.071 H 
ATOM     48  H14 STU d   1     -17.844  17.324  -8.127  0.00  0.00     0.071 H 
ATOM     49  C5  STU d   1     -15.000  15.769 -12.717  0.00  0.00     0.004 A 
ATOM     50  C20 STU d   1     -14.565  16.606 -13.800  0.00  0.00     0.048 A 
ATOM     51  C4  STU d   1     -14.565  14.440 -12.574  0.00  0.00    -0.070 A 
ATOM     52  C1  STU d   1     -13.673  16.091 -14.772  0.00  0.00    -0.056 A 
ATOM     53  C2  STU d   1     -13.237  14.733 -14.638  0.00  0.00    -0.081 A 
ATOM     54  H16 STU d   1     -13.330  16.707 -15.595  0.00  0.00     0.087 H 
ATOM     55  C3  STU d   1     -13.665  13.926 -13.558  0.00  0.00    -0.082 A 
ATOM     56  H17 STU d   1     -12.565  14.315 -15.379  0.00  0.00     0.083 H 
ATOM     57  H18 STU d   1     -13.306  12.906 -13.476  0.00  0.00     0.083 H 
ATOM     58  H19 STU d   1     -14.901  13.826 -11.746  0.00  0.00     0.084 H 
ENDBRANCH   2  24
BRANCH   6  59
ATOM     59  C26 STU d   1     -16.052  22.196 -13.544  0.00  0.00    -0.028 C 
ATOM     60  H6  STU d   1     -17.006  22.717 -13.372  0.00  0.00     0.034 H 
ATOM     61  H7  STU d   1     -15.574  22.596 -14.450  0.00  0.00     0.034 H 
ATOM     62  H8  STU d   1     -15.389  22.351 -12.680  0.00  0.00     0.034 H 
ENDBRANCH   6  59
TORSDOF 7
