REMARK  1 active torsions:
REMARK  status: ('A' for Active; 'I' for Inactive)
REMARK    1  A    between atoms: C6_6  and  C1_1 
ROOT
ATOM      1  N2  1CD d   1      -6.936   8.269  14.593  0.00  0.00    -0.063 N 
ATOM      2  C3  1CD d   1      -7.664   6.990  14.374  0.00  0.00     0.108 C 
ATOM      3  C4  1CD d   1      -8.139   7.052  12.918  0.00  0.00     0.070 C 
ATOM      4  C5  1CD d   1      -6.744   7.497  12.503  0.00  0.00    -0.012 C 
ATOM      5  C6  1CD d   1      -6.241   8.670  13.341  0.00  0.00     0.103 C 
ATOM      6  C7  1CD d   1     -10.420   9.577  11.536  0.00  0.00     0.089 A 
ATOM      7  C8  1CD d   1      -9.758   8.279  11.548  0.00  0.00     0.098 A 
ATOM      8  C9  1CD d   1     -11.241   9.978  10.376  0.00  0.00     0.064 A 
ATOM      9  N10 1CD d   1     -10.214  10.395  12.626  0.00  0.00    -0.369 N 
ATOM     10  C11 1CD d   1      -9.858   7.343  10.413  0.00  0.00    -0.048 A 
ATOM     11  O12 1CD d   1      -9.101   8.092  12.762  0.00  0.00    -0.342 OA
ATOM     12  C13 1CD d   1     -11.340   9.035   9.262  0.00  0.00    -0.055 A 
ATOM     13  N14 1CD d   1     -11.778  11.225  10.535  0.00  0.00    -0.323 N 
ATOM     14  C15 1CD d   1     -10.696  11.676  12.838  0.00  0.00     0.115 A 
ATOM     15  C16 1CD d   1     -10.659   7.726   9.251  0.00  0.00    -0.078 A 
ATOM     16  C17 1CD d   1     -11.592  12.095  11.642  0.00  0.00     0.249 A 
ATOM     17  C18 1CD d   1     -10.115  12.516  13.930  0.00  0.00     0.003 A 
ATOM     18  O19 1CD d   1     -12.129  13.197  11.708  0.00  0.00    -0.270 OA
ATOM     19  C20 1CD d   1      -9.181  11.871  14.983  0.00  0.00     0.073 A 
ATOM     20  C21 1CD d   1     -10.230  13.971  13.841  0.00  0.00    -0.072 A 
ATOM     21  C22 1CD d   1      -8.365  12.748  15.874  0.00  0.00     0.062 A 
ATOM     22  N23 1CD d   1      -8.796  10.611  15.344  0.00  0.00    -0.294 N 
ATOM     23  C24 1CD d   1      -9.421  14.774  14.744  0.00  0.00    -0.081 A 
ATOM     24  C25 1CD d   1      -7.556  11.801  16.656  0.00  0.00     0.274 A 
ATOM     25  C26 1CD d   1      -8.501  14.204  15.738  0.00  0.00    -0.065 A 
ATOM     26  N27 1CD d   1      -7.833  10.498  16.314  0.00  0.00    -0.255 N 
ATOM     27  C28 1CD d   1      -7.210   9.291  16.876  0.00  0.00     0.041 C 
ATOM     28  O29 1CD d   1      -6.731  12.139  17.508  0.00  0.00    -0.266 OA
ATOM     29  C30 1CD d   1      -6.278   8.611  15.874  0.00  0.00     0.100 C 
ATOM     30  H4  1CD d   1      -7.704   8.921  14.623  0.00  0.00     0.280 HD
ATOM     31  H5  1CD d   1      -8.522   6.911  15.058  0.00  0.00     0.080 H 
ATOM     32  H6  1CD d   1      -6.993   6.132  14.526  0.00  0.00     0.080 H 
ATOM     33  H7  1CD d   1      -8.489   6.105  12.480  0.00  0.00     0.086 H 
ATOM     34  H8  1CD d   1      -6.769   7.801  11.446  0.00  0.00     0.040 H 
ATOM     35  H9  1CD d   1      -6.051   6.651  12.625  0.00  0.00     0.040 H 
ATOM     36  H10 1CD d   1      -5.146   8.705  13.434  0.00  0.00     0.084 H 
ATOM     37  H11 1CD d   1      -9.628  10.005  13.377  0.00  0.00     0.161 HD
ATOM     38  H12 1CD d   1      -9.347   6.388  10.440  0.00  0.00     0.087 H 
ATOM     39  H13 1CD d   1     -11.942   9.311   8.404  0.00  0.00     0.087 H 
ATOM     40  H14 1CD d   1     -12.362  11.559   9.795  0.00  0.00     0.169 HD
ATOM     41  H15 1CD d   1     -11.546  11.375  13.468  0.00  0.00     0.095 H 
ATOM     42  H16 1CD d   1     -10.751   7.062   8.399  0.00  0.00     0.083 H 
ATOM     43  H17 1CD d   1     -10.897  14.436  13.124  0.00  0.00     0.084 H 
ATOM     44  H18 1CD d   1      -9.213   9.778  14.905  0.00  0.00     0.187 HD
ATOM     45  H19 1CD d   1      -9.501  15.853  14.680  0.00  0.00     0.083 H 
ATOM     46  H20 1CD d   1      -7.920  14.862  16.374  0.00  0.00     0.085 H 
ATOM     47  H21 1CD d   1      -8.002   8.583  17.163  0.00  0.00     0.070 H 
ATOM     48  H22 1CD d   1      -6.630   9.572  17.767  0.00  0.00     0.070 H 
ATOM     49  H23 1CD d   1      -5.438   9.290  15.664  0.00  0.00     0.078 H 
ATOM     50  H24 1CD d   1      -5.896   7.684  16.327  0.00  0.00     0.078 H 
ENDROOT
BRANCH   5  51
ATOM     51  C1  1CD d   1      -6.781  10.008  12.824  0.00  0.00    -0.049 C 
ATOM     52  H1  1CD d   1      -6.253  10.284  11.899  0.00  0.00     0.030 H 
ATOM     53  H2  1CD d   1      -6.620  10.787  13.584  0.00  0.00     0.030 H 
ATOM     54  H3  1CD d   1      -7.857   9.914  12.618  0.00  0.00     0.030 H 
ENDBRANCH   5  51
TORSDOF 1
