REMARK  1 active torsions:
REMARK  status: ('A' for Active; 'I' for Inactive)
REMARK    1  A    between atoms: C1_1  and  C2_2 
ROOT
ATOM      1  C1  NON d   1      53.439  25.127  41.056  0.00  0.00     0.279 C 
ATOM      2  O1  NON d   1      54.431  25.925  40.794  0.00  0.00    -0.639 OA
ATOM      3  O3  NON d   1      52.477  25.420  41.796  0.00  0.00    -0.639 OA
ENDROOT
BRANCH   1   4
ATOM      4  C2  NON d   1      53.416  23.787  40.439  0.00  0.00     0.279 C 
ATOM      5  O2  NON d   1      52.325  23.140  40.456  0.00  0.00    -0.639 OA
ATOM      6  O4  NON d   1      54.454  23.349  39.899  0.00  0.00    -0.639 OA
ENDBRANCH   1   4
TORSDOF 1
