REMARK  6 active torsions:
REMARK  status: ('A' for Active; 'I' for Inactive)
REMARK    1  A    between atoms: C1_2  and  C10_12 
REMARK    2  A    between atoms: C2_3  and  O3_19 
REMARK    3  A    between atoms: C5_6  and  C16_18 
REMARK    4  A    between atoms: N1_24  and  C7_8 
REMARK    5  A    between atoms: C13_15  and  O5_21 
REMARK    6  A    between atoms: C14_16  and  O4_20 
ROOT
ATOM      1  O1  371 d   1      26.782  29.083  26.843  0.00  0.00    -0.304 OA
ATOM      2  C1  371 d   1      27.315  30.325  27.113  0.00  0.00     0.123 A 
ATOM      3  C2  371 d   1      26.727  31.188  28.023  0.00  0.00     0.152 A 
ATOM      4  C3  371 d   1      25.457  30.734  28.724  0.00  0.00     0.220 A 
ATOM      5  C4  371 d   1      23.736  28.865  28.987  0.00  0.00    -0.060 A 
ATOM      6  C5  371 d   1      23.256  27.574  28.641  0.00  0.00    -0.059 A 
ATOM      7  C6  371 d   1      23.978  26.784  27.685  0.00  0.00    -0.048 A 
ATOM      8  C7  371 d   1      25.169  27.293  27.084  0.00  0.00     0.080 A 
ATOM      9  C8  371 d   1      25.624  28.591  27.443  0.00  0.00     0.118 A 
ATOM     10  C9  371 d   1      24.914  29.378  28.394  0.00  0.00     0.054 A 
ATOM     11  O2  371 d   1      24.981  31.556  29.517  0.00  0.00    -0.284 OA
ATOM     12  H1  371 d   1      23.195  29.463  29.712  0.00  0.00     0.086 H 
ATOM     13  H2  371 d   1      23.618  25.797  27.418  0.00  0.00     0.087 H 
ENDROOT
BRANCH   2  14
ATOM     14  C10 371 d   1      28.535  30.616  26.337  0.00  0.00     0.004 A 
ATOM     15  C11 371 d   1      28.847  31.924  25.836  0.00  0.00    -0.068 A 
ATOM     16  C12 371 d   1      30.022  32.140  25.078  0.00  0.00    -0.047 A 
ATOM     17  H3  371 d   1      28.178  32.752  26.040  0.00  0.00     0.085 H 
ATOM     18  C13 371 d   1      30.876  31.049  24.819  0.00  0.00     0.098 A 
ATOM     19  H4  371 d   1      30.262  33.128  24.703  0.00  0.00     0.087 H 
ATOM     20  C14 371 d   1      30.574  29.736  25.314  0.00  0.00     0.099 A 
ATOM     21  C15 371 d   1      29.411  29.529  26.066  0.00  0.00    -0.035 A 
ATOM     22  H5  371 d   1      29.178  28.539  26.442  0.00  0.00     0.089 H 
BRANCH  18  23
ATOM     23  O5  371 d   1      32.023  31.202  24.084  0.00  0.00    -0.358 OA
ATOM     24  H11 371 d   1      31.981  30.647  23.314  0.00  0.00     0.217 HD
ENDBRANCH  18  23
BRANCH  20  25
ATOM     25  O4  371 d   1      31.467  28.708  25.011  0.00  0.00    -0.358 OA
ATOM     26  H10 371 d   1      32.185  29.056  24.496  0.00  0.00     0.217 HD
ENDBRANCH  20  25
ENDBRANCH   2  14
BRANCH   3  27
ATOM     27  O3  371 d   1      27.177  32.444  28.364  0.00  0.00    -0.355 OA
ATOM     28  H9  371 d   1      26.510  33.086  28.153  0.00  0.00     0.218 HD
ENDBRANCH   3  27
BRANCH   8  29
ATOM     29  N1  371 d   1      25.910  26.585  26.155  0.00  0.00    -0.273 N 
ATOM     30  C18 371 d   1      25.459  26.366  24.779  0.00  0.00     0.011 C 
ATOM     31  C17 371 d   1      26.562  25.541  24.063  0.00  0.00    -0.035 C 
ATOM     32  H14 371 d   1      24.510  25.809  24.777  0.00  0.00     0.066 H 
ATOM     33  H15 371 d   1      25.319  27.331  24.270  0.00  0.00     0.066 H 
ATOM     34  C19 371 d   1      27.900  25.874  24.742  0.00  0.00     0.048 C 
ATOM     35  H12 371 d   1      26.603  25.813  22.998  0.00  0.00     0.036 H 
ATOM     36  H13 371 d   1      26.349  24.466  24.159  0.00  0.00     0.036 H 
ATOM     37  S1  371 d   1      27.357  25.898  26.419  0.00  0.00     0.233 S 
ATOM     38  H16 371 d   1      28.294  26.850  24.422  0.00  0.00     0.059 H 
ATOM     39  H17 371 d   1      28.658  25.097  24.565  0.00  0.00     0.059 H 
ATOM     40  O7  371 d   1      27.086  24.562  26.866  0.00  0.00    -0.205 OA
ATOM     41  O6  371 d   1      28.179  26.766  27.218  0.00  0.00    -0.205 OA
ENDBRANCH   8  29
BRANCH   6  42
ATOM     42  C16 371 d   1      21.993  27.056  29.286  0.00  0.00    -0.051 C 
ATOM     43  H6  371 d   1      21.600  27.812  29.982  0.00  0.00     0.033 H 
ATOM     44  H7  371 d   1      22.216  26.130  29.837  0.00  0.00     0.033 H 
ATOM     45  H8  371 d   1      21.243  26.849  28.509  0.00  0.00     0.033 H 
ENDBRANCH   6  42
TORSDOF 6
