REMARK  31 active torsions:
REMARK  status: ('A' for Active; 'I' for Inactive)
REMARK    1  A    between atoms: N_1  and  CA_2 
REMARK    2  A    between atoms: CA_2  and  C_3 
REMARK       I    between atoms: C_3  and  N_5 
REMARK    3  A    between atoms: N_5  and  CA_6 
REMARK    4  A    between atoms: CA_6  and  C_7 
REMARK    5  A    between atoms: CA_6  and  CB_9 
REMARK       I    between atoms: C_7  and  N_19 
REMARK    6  A    between atoms: CB_9  and  CG_10 
REMARK    7  A    between atoms: N_19  and  CA_20 
REMARK    8  A    between atoms: CA_20  and  C_21 
REMARK    9  A    between atoms: CA_20  and  CB_23 
REMARK       I    between atoms: C_21  and  N_27 
REMARK   10  A    between atoms: CB_23  and  CG_24 
REMARK       I    between atoms: CG_24  and  ND2_26 
REMARK   11  A    between atoms: N_27  and  CA_28 
REMARK   12  A    between atoms: CA_28  and  C_29 
REMARK   13  A    between atoms: CA_28  and  CB_31 
REMARK       I    between atoms: C_29  and  N_33 
REMARK   14  A    between atoms: CB_31  and  OG_32 
REMARK   15  A    between atoms: N_33  and  CA_34 
REMARK   16  A    between atoms: CA_34  and  C_35 
REMARK   17  A    between atoms: CA_34  and  CB_37 
REMARK       I    between atoms: C_35  and  N_44 
REMARK   18  A    between atoms: CB_37  and  CG_38 
REMARK   19  A    between atoms: N_44  and  CA_45 
REMARK   20  A    between atoms: CA_45  and  C_46 
REMARK   21  A    between atoms: CA_45  and  CB_48 
REMARK       I    between atoms: C_46  and  N_53 
REMARK   22  A    between atoms: CB_48  and  CG_49 
REMARK   23  A    between atoms: CG_49  and  CD_50 
REMARK       I    between atoms: CD_50  and  NE2_52 
REMARK   24  A    between atoms: N_53  and  CA_54 
REMARK   25  A    between atoms: CA_54  and  C_55 
REMARK   26  A    between atoms: CA_54  and  CB_57 
REMARK       I    between atoms: C_55  and  N_59 
REMARK   27  A    between atoms: CB_57  and  OG_58 
REMARK   28  A    between atoms: N_59  and  CA_60 
REMARK   29  A    between atoms: CA_60  and  C_61 
REMARK   30  A    between atoms: CA_60  and  CB_63 
REMARK   31  A    between atoms: CB_63  and  OG_64 
ROOT
ATOM      1  C   SER d   1      -3.353 -15.990 127.406  0.00  0.00     0.243 C 
ATOM      2  O   SER d   1      -3.927 -16.411 126.401  0.00  0.00    -0.271 OA
ATOM      3  N   PHE d   1      -3.110 -14.700 127.614  0.00  0.00    -0.346 N 
ATOM      4  H27 PHE d   1      -2.655 -14.422 128.460  0.00  0.00     0.163 HD
ENDROOT
BRANCH   3   5
ATOM      5  CA  PHE d   1      -3.490 -13.676 126.641  0.00  0.00     0.093 C 
ATOM      6  H28 PHE d   1      -4.509 -13.888 126.284  0.00  0.00     0.088 H 
BRANCH   5   7
ATOM      7  C   PHE d   1      -2.538 -13.730 125.465  0.00  0.00     0.241 C 
ATOM      8  O   PHE d   1      -1.433 -14.243 125.586  0.00  0.00    -0.271 OA
ATOM      9  N   GLN d   1      -2.959 -13.184 124.333  0.00  0.00    -0.346 N 
ATOM     10  H36 GLN d   1      -3.830 -12.694 124.325  0.00  0.00     0.163 HD
BRANCH   9  11
ATOM     11  CA  GLN d   1      -2.187 -13.278 123.097  0.00  0.00     0.090 C 
ATOM     12  H37 GLN d   1      -1.211 -13.731 123.326  0.00  0.00     0.087 H 
BRANCH  11  13
ATOM     13  C   GLN d   1      -1.952 -11.883 122.520  0.00  0.00     0.241 C 
ATOM     14  O   GLN d   1      -2.859 -11.064 122.484  0.00  0.00    -0.271 OA
ATOM     15  N   SER d   1      -0.727 -11.635 122.069  0.00  0.00    -0.344 N 
ATOM     16  H44 SER d   1      -0.060 -12.380 122.073  0.00  0.00     0.163 HD
BRANCH  15  17
ATOM     17  CA  SER d   1      -0.308 -10.333 121.570  0.00  0.00     0.109 C 
ATOM     18  H45 SER d   1      -1.080  -9.587 121.811  0.00  0.00     0.090 H 
BRANCH  17  19
ATOM     19  C   SER d   1      -0.146 -10.414 120.055  0.00  0.00     0.243 C 
ATOM     20  O   SER d   1      -0.490 -11.446 119.452  0.00  0.00    -0.271 OA
ATOM     21  N   SER d   1       0.395  -9.341 119.458  0.00  0.00    -0.343 N 
ATOM     22  H49 SER d   1       0.817  -8.644 120.037  0.00  0.00     0.163 HD
BRANCH  21  23
ATOM     23  CA  SER d   1       0.405  -9.128 117.996  0.00  0.00     0.116 C 
ATOM     24  H50 SER d   1      -0.600  -9.378 117.624  0.00  0.00     0.093 H 
BRANCH  23  25
ATOM     25  C   SER d   1       1.407 -10.018 117.241  0.00  0.00     0.198 C 
ATOM     26  O   SER d   1       0.972 -10.582 116.216  0.00  0.00    -0.646 OA
ATOM     27  OXT SER d   1       2.568 -10.168 117.609  0.00  0.00    -0.646 OA
ENDBRANCH  23  25
BRANCH  23  28
ATOM     28  CB  SER d   1       0.678  -7.646 117.671  0.00  0.00     0.045 C 
ATOM     29  H51 SER d   1       0.411  -7.457 116.621  0.00  0.00     0.077 H 
ATOM     30  H52 SER d   1       1.748  -7.440 117.820  0.00  0.00     0.077 H 
BRANCH  28  31
ATOM     31  OG  SER d   1      -0.076  -6.778 118.499  0.00  0.00    -0.398 OA
ATOM     32  H53 SER d   1       0.118  -5.877 118.270  0.00  0.00     0.209 HD
ENDBRANCH  28  31
ENDBRANCH  23  28
ENDBRANCH  21  23
ENDBRANCH  17  19
BRANCH  17  33
ATOM     33  CB  SER d   1       1.006  -9.916 122.231  0.00  0.00     0.044 C 
ATOM     34  H46 SER d   1       1.209  -8.861 121.995  0.00  0.00     0.077 H 
ATOM     35  H47 SER d   1       1.821 -10.543 121.840  0.00  0.00     0.077 H 
BRANCH  33  36
ATOM     36  OG  SER d   1       0.936 -10.071 123.639  0.00  0.00    -0.398 OA
ATOM     37  H48 SER d   1       0.235  -9.528 123.982  0.00  0.00     0.209 HD
ENDBRANCH  33  36
ENDBRANCH  17  33
ENDBRANCH  15  17
ENDBRANCH  11  13
BRANCH  11  38
ATOM     38  CB  GLN d   1      -2.910 -14.172 122.080  0.00  0.00    -0.030 C 
ATOM     39  H38 GLN d   1      -2.322 -14.177 121.150  0.00  0.00     0.037 H 
ATOM     40  H39 GLN d   1      -3.901 -13.736 121.885  0.00  0.00     0.037 H 
BRANCH  38  41
ATOM     41  CG  GLN d   1      -3.108 -15.618 122.522  0.00  0.00     0.011 C 
ATOM     42  H40 GLN d   1      -3.694 -16.142 121.753  0.00  0.00     0.047 H 
ATOM     43  H41 GLN d   1      -3.663 -15.621 123.472  0.00  0.00     0.047 H 
BRANCH  41  44
ATOM     44  CD  GLN d   1      -1.812 -16.355 122.722  0.00  0.00     0.215 C 
ATOM     45  OE1 GLN d   1      -1.595 -16.960 123.760  0.00  0.00    -0.274 OA
ATOM     46  NE2 GLN d   1      -0.952 -16.320 121.722  0.00  0.00    -0.370 N 
ATOM     47  H42 GLN d   1      -0.074 -16.793 121.800  0.00  0.00     0.159 HD
ATOM     48  H43 GLN d   1      -1.178 -15.821 120.885  0.00  0.00     0.159 HD
ENDBRANCH  41  44
ENDBRANCH  38  41
ENDBRANCH  11  38
ENDBRANCH   9  11
ENDBRANCH   5   7
BRANCH   5  49
ATOM     49  CB  PHE d   1      -3.478 -12.279 127.276  0.00  0.00    -0.014 C 
ATOM     50  H29 PHE d   1      -3.606 -11.533 126.477  0.00  0.00     0.043 H 
ATOM     51  H30 PHE d   1      -2.505 -12.129 127.766  0.00  0.00     0.043 H 
BRANCH  49  52
ATOM     52  CG  PHE d   1      -4.562 -12.070 128.299  0.00  0.00    -0.056 A 
ATOM     53  CD1 PHE d   1      -4.383 -12.469 129.611  0.00  0.00    -0.077 A 
ATOM     54  CE1 PHE d   1      -5.375 -12.279 130.543  0.00  0.00    -0.082 A 
ATOM     55  H31 PHE d   1      -3.451 -12.936 129.907  0.00  0.00     0.084 H 
ATOM     56  CZ  PHE d   1      -6.564 -11.694 130.167  0.00  0.00    -0.083 A 
ATOM     57  H33 PHE d   1      -5.222 -12.588 131.571  0.00  0.00     0.083 H 
ATOM     58  CE2 PHE d   1      -6.761 -11.298 128.869  0.00  0.00    -0.082 A 
ATOM     59  H35 PHE d   1      -7.348 -11.546 130.901  0.00  0.00     0.083 H 
ATOM     60  CD2 PHE d   1      -5.771 -11.486 127.943  0.00  0.00    -0.077 A 
ATOM     61  H34 PHE d   1      -7.698 -10.838 128.577  0.00  0.00     0.083 H 
ATOM     62  H32 PHE d   1      -5.933 -11.175 126.917  0.00  0.00     0.084 H 
ENDBRANCH  49  52
ENDBRANCH   5  49
ENDBRANCH   3   5
BRANCH   1  63
ATOM     63  CA  SER d   1      -2.902 -16.943 128.513  0.00  0.00     0.109 C 
ATOM     64  H23 SER d   1      -3.287 -16.558 129.469  0.00  0.00     0.090 H 
BRANCH  63  65
ATOM     65  N   SER d   1      -3.458 -18.278 128.310  0.00  0.00    -0.344 N 
ATOM     66  C   ASN d   1      -4.747 -18.547 128.513  0.00  0.00     0.241 C 
ATOM     67  O   ASN d   1      -5.557 -17.718 128.961  0.00  0.00    -0.271 OA
ATOM     68  H22 SER d   1      -2.852 -19.014 128.009  0.00  0.00     0.163 HD
BRANCH  66  69
ATOM     69  CA  ASN d   1      -5.191 -19.966 128.163  0.00  0.00     0.097 C 
ATOM     70  H17 ASN d   1      -4.660 -20.671 128.819  0.00  0.00     0.088 H 
BRANCH  69  71
ATOM     71  N   ASN d   1      -6.624 -20.114 128.396  0.00  0.00    -0.346 N 
ATOM     72  C   TRP d   1      -7.147 -20.246 129.611  0.00  0.00     0.241 C 
ATOM     73  O   TRP d   1      -6.468 -20.305 130.636  0.00  0.00    -0.271 OA
ATOM     74  H16 ASN d   1      -7.239 -20.116 127.608  0.00  0.00     0.163 HD
BRANCH  72  75
ATOM     75  CA  TRP d   1      -8.673 -20.307 129.660  0.00  0.00     0.093 C 
ATOM     76  H7  TRP d   1      -9.004 -21.034 128.903  0.00  0.00     0.088 H 
BRANCH  75  77
ATOM     77  N   TRP d   1      -9.168 -20.792 130.958  0.00  0.00    -0.346 N 
ATOM     78  C   GLY d   1      -9.945 -21.868 131.092  0.00  0.00     0.243 C 
ATOM     79  O   GLY d   1     -10.472 -22.457 130.151  0.00  0.00    -0.272 OA
ATOM     80  H6  TRP d   1      -8.909 -20.289 131.782  0.00  0.00     0.163 HD
BRANCH  78  81
ATOM     81  CA  GLY d   1     -10.158 -22.368 132.503  0.00  0.00     0.152 C 
ATOM     82  H4  GLY d   1      -9.804 -21.612 133.219  0.00  0.00     0.090 H 
ATOM     83  H5  GLY d   1     -11.229 -22.557 132.669  0.00  0.00     0.090 H 
BRANCH  81  84
ATOM     84  N   GLY d   1      -9.389 -23.638 132.693  0.00  0.00    -0.071 N 
ATOM     85  H1  GLY d   1      -9.527 -23.977 133.632  0.00  0.00     0.274 HD
ATOM     86  H2  GLY d   1      -8.408 -23.463 132.539  0.00  0.00     0.274 HD
ATOM     87  H3  GLY d   1      -9.714 -24.329 132.035  0.00  0.00     0.274 HD
ENDBRANCH  81  84
ENDBRANCH  78  81
ENDBRANCH  75  77
BRANCH  75  88
ATOM     88  CB  TRP d   1      -9.238 -18.924 129.252  0.00  0.00    -0.012 C 
ATOM     89  H8  TRP d   1      -9.984 -19.097 128.462  0.00  0.00     0.044 H 
ATOM     90  H9  TRP d   1      -8.402 -18.338 128.844  0.00  0.00     0.044 H 
BRANCH  88  91
ATOM     91  CG  TRP d   1      -9.893 -18.088 130.305  0.00  0.00    -0.028 A 
ATOM     92  CD1 TRP d   1      -9.461 -17.869 131.575  0.00  0.00    -0.015 A 
ATOM     93  NE1 TRP d   1     -10.329 -17.030 132.232  0.00  0.00    -0.365 N 
ATOM     94  H10 TRP d   1      -8.558 -18.296 132.009  0.00  0.00     0.112 H 
ATOM     95  CE2 TRP d   1     -11.339 -16.674 131.378  0.00  0.00     0.042 A 
ATOM     96  H11 TRP d   1     -10.235 -16.719 133.209  0.00  0.00     0.165 HD
ATOM     97  CD2 TRP d   1     -11.088 -17.316 130.148  0.00  0.00    -0.002 A 
ATOM     98  CZ2 TRP d   1     -12.451 -15.851 131.589  0.00  0.00    -0.056 A 
ATOM     99  CE3 TRP d   1     -11.982 -17.109 129.090  0.00  0.00    -0.070 A 
ATOM    100  CZ3 TRP d   1     -13.082 -16.290 129.295  0.00  0.00    -0.082 A 
ATOM    101  H12 TRP d   1     -11.817 -17.581 128.128  0.00  0.00     0.084 H 
ATOM    102  CH2 TRP d   1     -13.303 -15.665 130.537  0.00  0.00    -0.081 A 
ATOM    103  H14 TRP d   1     -13.784 -16.128 128.485  0.00  0.00     0.083 H 
ATOM    104  H15 TRP d   1     -14.167 -15.023 130.661  0.00  0.00     0.083 H 
ATOM    105  H13 TRP d   1     -12.629 -15.380 132.549  0.00  0.00     0.086 H 
ENDBRANCH  88  91
ENDBRANCH  75  88
ENDBRANCH  72  75
ENDBRANCH  69  71
BRANCH  69 106
ATOM    106  CB  ASN d   1      -4.821 -20.294 126.699  0.00  0.00     0.036 C 
ATOM    107  H18 ASN d   1      -3.829 -20.768 126.686  0.00  0.00     0.051 H 
ATOM    108  H19 ASN d   1      -4.786 -19.355 126.127  0.00  0.00     0.051 H 
BRANCH 106 109
ATOM    109  CG  ASN d   1      -5.821 -21.237 126.027  0.00  0.00     0.217 C 
ATOM    110  OD1 ASN d   1      -5.908 -22.410 126.383  0.00  0.00    -0.274 OA
ATOM    111  ND2 ASN d   1      -6.593 -20.715 125.064  0.00  0.00    -0.370 N 
ATOM    112  H20 ASN d   1      -7.263 -21.290 124.594  0.00  0.00     0.159 HD
ATOM    113  H21 ASN d   1      -6.499 -19.751 124.816  0.00  0.00     0.159 HD
ENDBRANCH 106 109
ENDBRANCH  69 106
ENDBRANCH  66  69
ENDBRANCH  63  65
BRANCH  63 114
ATOM    114  CB  SER d   1      -1.369 -16.995 128.609  0.00  0.00     0.044 C 
ATOM    115  H24 SER d   1      -1.090 -17.641 129.454  0.00  0.00     0.077 H 
ATOM    116  H25 SER d   1      -0.992 -15.977 128.785  0.00  0.00     0.077 H 
BRANCH 114 117
ATOM    117  OG  SER d   1      -0.770 -17.504 127.431  0.00  0.00    -0.398 OA
ATOM    118  H26 SER d   1       0.174 -17.517 127.537  0.00  0.00     0.209 HD
ENDBRANCH 114 117
ENDBRANCH  63 114
ENDBRANCH   1  63
TORSDOF 31
