REMARK  6 active torsions:
REMARK  status: ('A' for Active; 'I' for Inactive)
REMARK    1  A    between atoms: C1_1  and  C2_2 
REMARK    2  A    between atoms: C2_2  and  N3_3 
REMARK    3  A    between atoms: C2_2  and  C30_30 
REMARK    4  A    between atoms: C2_2  and  C33_33 
REMARK       I    between atoms: N3_3  and  C4_4 
REMARK    5  A    between atoms: C4_4  and  C5_5 
REMARK    6  A    between atoms: C21_21  and  C22_22 
ROOT
ATOM      1  C5  JTP d   1     -14.383  -5.188   4.387  0.00  0.00     0.034 A 
ATOM      2  C6  JTP d   1     -13.414  -6.048   4.989  0.00  0.00    -0.067 A 
ATOM      3  C7  JTP d   1     -12.574  -5.572   6.021  0.00  0.00    -0.069 A 
ATOM      4  C8  JTP d   1     -12.668  -4.250   6.478  0.00  0.00    -0.000 A 
ATOM      5  C9  JTP d   1     -13.641  -3.368   5.881  0.00  0.00     0.046 A 
ATOM      6  N10 JTP d   1     -13.523  -2.129   6.512  0.00  0.00    -0.343 N 
ATOM      7  C11 JTP d   1     -12.523  -2.206   7.475  0.00  0.00     0.055 A 
ATOM      8  C12 JTP d   1     -12.177  -0.993   8.319  0.00  0.00     0.025 A 
ATOM      9  C13 JTP d   1     -12.005   0.256   7.650  0.00  0.00     0.081 A 
ATOM     10  C14 JTP d   1     -11.683   1.430   8.375  0.00  0.00    -0.050 A 
ATOM     11  C15 JTP d   1     -11.530   1.376   9.780  0.00  0.00    -0.080 A 
ATOM     12  C16 JTP d   1     -11.702   0.140  10.451  0.00  0.00    -0.082 A 
ATOM     13  C17 JTP d   1     -12.023  -1.032   9.728  0.00  0.00    -0.068 A 
ATOM     14  O18 JTP d   1     -12.155   0.340   6.258  0.00  0.00    -0.349 OA
ATOM     15  C19 JTP d   1     -13.515   0.330   5.788  0.00  0.00     0.041 C 
ATOM     16  C20 JTP d   1     -14.353  -0.920   6.191  0.00  0.00     0.021 C 
ATOM     17  C21 JTP d   1     -11.948  -3.499   7.506  0.00  0.00    -0.014 A 
ATOM     18  C28 JTP d   1     -14.478  -3.835   4.854  0.00  0.00    -0.041 A 
ATOM     19  H5  JTP d   1     -13.322  -7.074   4.651  0.00  0.00     0.085 H 
ATOM     20  H6  JTP d   1     -11.845  -6.240   6.466  0.00  0.00     0.085 H 
ATOM     21  H7  JTP d   1     -11.554   2.371   7.852  0.00  0.00     0.087 H 
ATOM     22  H8  JTP d   1     -11.283   2.272  10.338  0.00  0.00     0.083 H 
ATOM     23  H9  JTP d   1     -11.586   0.092  11.528  0.00  0.00     0.083 H 
ATOM     24  H10 JTP d   1     -12.153  -1.970  10.256  0.00  0.00     0.085 H 
ATOM     25  H11 JTP d   1     -13.495   0.385   4.690  0.00  0.00     0.077 H 
ATOM     26  H12 JTP d   1     -14.020   1.221   6.191  0.00  0.00     0.077 H 
ATOM     27  H13 JTP d   1     -14.951  -0.665   7.078  0.00  0.00     0.068 H 
ATOM     28  H14 JTP d   1     -15.024  -1.172   5.356  0.00  0.00     0.068 H 
ATOM     29  H26 JTP d   1     -15.204  -3.165   4.409  0.00  0.00     0.088 H 
ENDROOT
BRANCH  17  30
ATOM     30  C22 JTP d   1     -10.813  -4.007   8.425  0.00  0.00    -0.025 C 
ATOM     31  C23 JTP d   1      -9.531  -4.417   7.645  0.00  0.00    -0.058 C 
ATOM     32  C24 JTP d   1      -8.440  -4.925   8.619  0.00  0.00    -0.064 C 
ATOM     33  H16 JTP d   1      -9.147  -3.545   7.096  0.00  0.00     0.034 H 
ATOM     34  H17 JTP d   1      -9.781  -5.217   6.933  0.00  0.00     0.034 H 
ATOM     35  C25 JTP d   1      -8.949  -6.089   9.489  0.00  0.00    -0.065 C 
ATOM     36  H18 JTP d   1      -8.135  -4.097   9.275  0.00  0.00     0.033 H 
ATOM     37  H19 JTP d   1      -7.573  -5.269   8.035  0.00  0.00     0.033 H 
ATOM     38  C26 JTP d   1     -10.209  -5.680  10.271  0.00  0.00    -0.064 C 
ATOM     39  H20 JTP d   1      -8.162  -6.378  10.201  0.00  0.00     0.033 H 
ATOM     40  H21 JTP d   1      -9.189  -6.945   8.841  0.00  0.00     0.033 H 
ATOM     41  C27 JTP d   1     -11.332  -5.156   9.345  0.00  0.00    -0.058 C 
ATOM     42  H22 JTP d   1      -9.940  -4.887  10.985  0.00  0.00     0.033 H 
ATOM     43  H23 JTP d   1     -10.584  -6.556  10.820  0.00  0.00     0.033 H 
ATOM     44  H24 JTP d   1     -11.694  -5.983   8.717  0.00  0.00     0.034 H 
ATOM     45  H25 JTP d   1     -12.159  -4.776   9.963  0.00  0.00     0.034 H 
ATOM     46  H15 JTP d   1     -10.530  -3.169   9.079  0.00  0.00     0.047 H 
ENDBRANCH  17  30
BRANCH   1  47
ATOM     47  C4  JTP d   1     -15.250  -5.736   3.308  0.00  0.00     0.252 C 
ATOM     48  N3  JTP d   1     -16.111  -4.842   2.703  0.00  0.00    -0.338 N 
ATOM     49  H4  JTP d   1     -16.049  -3.894   3.015  0.00  0.00     0.164 HD
ATOM     50  O29 JTP d   1     -15.206  -6.923   2.985  0.00  0.00    -0.268 OA
BRANCH  48  51
ATOM     51  C2  JTP d   1     -17.120  -5.114   1.644  0.00  0.00     0.114 C 
BRANCH  51  52
ATOM     52  C1  JTP d   1     -18.295  -5.965   2.188  0.00  0.00    -0.044 C 
ATOM     53  H1  JTP d   1     -19.020  -6.147   1.381  0.00  0.00     0.031 H 
ATOM     54  H2  JTP d   1     -18.788  -5.426   3.010  0.00  0.00     0.031 H 
ATOM     55  H3  JTP d   1     -17.910  -6.926   2.559  0.00  0.00     0.031 H 
ENDBRANCH  51  52
BRANCH  51  56
ATOM     56  C30 JTP d   1     -16.456  -5.779   0.378  0.00  0.00     0.201 C 
ATOM     57  O31 JTP d   1     -16.600  -7.130   0.343  0.00  0.00    -0.646 OA
ATOM     58  O32 JTP d   1     -15.858  -5.173  -0.465  0.00  0.00    -0.646 OA
ENDBRANCH  51  56
BRANCH  51  59
ATOM     59  C33 JTP d   1     -17.667  -3.731   1.243  0.00  0.00    -0.044 C 
ATOM     60  H27 JTP d   1     -16.846  -3.111   0.854  0.00  0.00     0.031 H 
ATOM     61  H28 JTP d   1     -18.110  -3.242   2.123  0.00  0.00     0.031 H 
ATOM     62  H29 JTP d   1     -18.436  -3.852   0.466  0.00  0.00     0.031 H 
ENDBRANCH  51  59
ENDBRANCH  48  51
ENDBRANCH   1  47
TORSDOF 6
