REMARK  11 active torsions:
REMARK  status: ('A' for Active; 'I' for Inactive)
REMARK    1  A    between atoms: C41_41  and  C1_1 
REMARK    2  A    between atoms: C4_4  and  C11_11 
REMARK    3  A    between atoms: C5_5  and  C7_7 
REMARK    4  A    between atoms: C11_11  and  N12_12 
REMARK    5  A    between atoms: C15_15  and  N17_17 
REMARK    6  A    between atoms: N17_17  and  C18_18 
REMARK    7  A    between atoms: N17_17  and  C19_19 
REMARK    8  A    between atoms: N32_32  and  C28_28 
REMARK    9  A    between atoms: C38_38  and  N32_32 
REMARK   10  A    between atoms: N40_40  and  C34_34 
REMARK   11  A    between atoms: C37_37  and  C39_39 
REMARK       I    between atoms: N40_40  and  C41_41 
ROOT
ATOM      1  C1  406 d   1      15.655  50.546  16.618  0.00  0.00     0.033 A 
ATOM      2  C2  406 d   1      16.772  49.680  16.841  0.00  0.00    -0.067 A 
ATOM      3  C3  406 d   1      16.658  48.568  17.703  0.00  0.00    -0.073 A 
ATOM      4  C4  406 d   1      15.408  48.274  18.395  0.00  0.00    -0.017 A 
ATOM      5  C5  406 d   1      14.247  49.167  18.171  0.00  0.00     0.056 A 
ATOM      6  C6  406 d   1      14.422  50.263  17.290  0.00  0.00    -0.052 A 
ATOM      7  H1  406 d   1      17.714  49.880  16.343  0.00  0.00     0.085 H 
ATOM      8  H2  406 d   1      17.515  47.921  17.853  0.00  0.00     0.084 H 
ATOM      9  H3  406 d   1      13.579  50.922  17.116  0.00  0.00     0.086 H 
ENDROOT
BRANCH   1  10
ATOM     10  C41 406 d   1      15.660  51.753  15.737  0.00  0.00     0.256 C 
ATOM     11  N40 406 d   1      16.533  51.861  14.735  0.00  0.00    -0.323 N 
ATOM     12  H33 406 d   1      17.259  51.173  14.760  0.00  0.00     0.169 HD
ATOM     13  O42 406 d   1      14.855  52.655  15.971  0.00  0.00    -0.267 OA
BRANCH  11  14
ATOM     14  C34 406 d   1      16.638  52.771  13.625  0.00  0.00     0.037 A 
ATOM     15  C33 406 d   1      15.700  53.849  13.382  0.00  0.00    -0.030 A 
ATOM     16  C38 406 d   1      15.875  54.697  12.275  0.00  0.00     0.057 A 
ATOM     17  H27 406 d   1      14.863  54.001  14.054  0.00  0.00     0.090 H 
ATOM     18  C37 406 d   1      16.964  54.520  11.380  0.00  0.00    -0.035 A 
ATOM     19  C36 406 d   1      17.895  53.459  11.612  0.00  0.00    -0.073 A 
ATOM     20  C35 406 d   1      17.725  52.587  12.739  0.00  0.00    -0.057 A 
ATOM     21  H29 406 d   1      18.730  53.313  10.936  0.00  0.00     0.084 H 
ATOM     22  H28 406 d   1      18.433  51.784  12.912  0.00  0.00     0.086 H 
BRANCH  16  23
ATOM     23  N32 406 d   1      14.948  55.725  12.093  0.00  0.00    -0.188 N 
ATOM     24  H26 406 d   1      14.110  55.484  11.545  0.00  0.00     0.184 HD
BRANCH  23  25
ATOM     25  C28 406 d   1      15.014  57.032  12.558  0.00  0.00     0.727 A 
ATOM     26  N27 406 d   1      13.994  57.803  12.215  0.00  0.00    -0.062 NA
ATOM     27  C26 406 d   1      13.947  59.119  12.615  0.00  0.00     0.090 A 
ATOM     28  C24 406 d   1      12.852  59.902  12.229  0.00  0.00     0.028 A 
ATOM     29  C31 406 d   1      15.070  59.649  13.425  0.00  0.00    -0.036 A 
ATOM     30  C23 406 d   1      11.745  59.364  11.404  0.00  0.00     0.017 A 
ATOM     31  C25 406 d   1      12.629  61.315  12.563  0.00  0.00     0.017 A 
ATOM     32  N22 406 d   1      10.670  60.101  11.016  0.00  0.00    -0.253 NA
ATOM     33  H22 406 d   1      11.795  58.327  11.093  0.00  0.00     0.116 H 
ATOM     34  C21 406 d   1      10.626  61.380  11.413  0.00  0.00     0.086 A 
ATOM     35  N20 406 d   1      11.545  62.016  12.162  0.00  0.00    -0.253 NA
ATOM     36  H21 406 d   1       9.765  61.959  11.100  0.00  0.00     0.146 H 
ATOM     37  H23 406 d   1      13.374  61.823  13.164  0.00  0.00     0.116 H 
ATOM     38  C30 406 d   1      16.106  58.723  13.721  0.00  0.00     0.023 A 
ATOM     39  H25 406 d   1      15.099  60.676  13.769  0.00  0.00     0.089 H 
ATOM     40  N29 406 d   1      16.061  57.422  13.272  0.00  0.00    -0.075 NA
ATOM     41  H24 406 d   1      16.953  59.048  14.315  0.00  0.00     0.115 H 
ENDBRANCH  23  25
ENDBRANCH  16  23
BRANCH  18  42
ATOM     42  C39 406 d   1      17.237  55.392  10.156  0.00  0.00    -0.049 C 
ATOM     43  H30 406 d   1      18.142  55.032   9.644  0.00  0.00     0.033 H 
ATOM     44  H31 406 d   1      17.386  56.434  10.474  0.00  0.00     0.033 H 
ATOM     45  H32 406 d   1      16.380  55.337   9.468  0.00  0.00     0.033 H 
ENDBRANCH  18  42
ENDBRANCH  11  14
ENDBRANCH   1  10
BRANCH   5  46
ATOM     46  C7  406 d   1      12.832  49.003  18.836  0.00  0.00     0.418 C 
ATOM     47  F8  406 d   1      12.946  49.165  20.183  0.00  0.00    -0.166 F 
ATOM     48  F9  406 d   1      12.319  47.772  18.583  0.00  0.00    -0.166 F 
ATOM     49  F10 406 d   1      11.942  49.965  18.430  0.00  0.00    -0.166 F 
ENDBRANCH   5  46
BRANCH   4  50
ATOM     50  C11 406 d   1      15.420  47.020  19.323  0.00  0.00     0.108 C 
ATOM     51  H4  406 d   1      15.110  46.163  18.707  0.00  0.00     0.083 H 
ATOM     52  H5  406 d   1      14.671  47.197  20.109  0.00  0.00     0.083 H 
BRANCH  50  53
ATOM     53  N12 406 d   1      16.682  46.627  20.007  0.00  0.00    -0.065 N 
ATOM     54  C13 406 d   1      16.677  45.304  20.662  0.00  0.00     0.086 C 
ATOM     55  C14 406 d   1      17.182  45.567  22.085  0.00  0.00    -0.014 C 
ATOM     56  H7  406 d   1      17.348  44.609  20.136  0.00  0.00     0.076 H 
ATOM     57  H8  406 d   1      15.660  44.886  20.683  0.00  0.00     0.076 H 
ATOM     58  C15 406 d   1      18.092  46.795  21.839  0.00  0.00     0.127 C 
ATOM     59  H9  406 d   1      17.751  44.712  22.478  0.00  0.00     0.038 H 
ATOM     60  H10 406 d   1      16.356  45.805  22.772  0.00  0.00     0.038 H 
ATOM     61  C16 406 d   1      17.145  47.624  21.009  0.00  0.00     0.110 C 
ATOM     62  H11 406 d   1      18.965  46.498  21.239  0.00  0.00     0.087 H 
ATOM     63  H12 406 d   1      16.309  48.005  21.613  0.00  0.00     0.079 H 
ATOM     64  H13 406 d   1      17.664  48.467  20.528  0.00  0.00     0.079 H 
ATOM     65  H6  406 d   1      17.381  46.587  19.282  0.00  0.00     0.280 HD
BRANCH  58  66
ATOM     66  N17 406 d   1      18.628  47.508  23.083  0.00  0.00    -0.073 N 
ATOM     67  H14 406 d   1      17.824  47.719  23.653  0.00  0.00     0.279 HD
BRANCH  66  68
ATOM     68  C18 406 d   1      19.541  46.725  23.942  0.00  0.00     0.066 C 
ATOM     69  H15 406 d   1      19.857  47.340  24.798  0.00  0.00     0.068 H 
ATOM     70  H16 406 d   1      20.425  46.425  23.360  0.00  0.00     0.068 H 
ATOM     71  H17 406 d   1      19.021  45.827  24.308  0.00  0.00     0.068 H 
ENDBRANCH  66  68
BRANCH  66  72
ATOM     72  C19 406 d   1      19.254  48.823  22.689  0.00  0.00     0.066 C 
ATOM     73  H18 406 d   1      18.556  49.385  22.052  0.00  0.00     0.068 H 
ATOM     74  H19 406 d   1      20.185  48.634  22.135  0.00  0.00     0.068 H 
ATOM     75  H20 406 d   1      19.477  49.408  23.593  0.00  0.00     0.068 H 
ENDBRANCH  66  72
ENDBRANCH  58  66
ENDBRANCH  50  53
ENDBRANCH   4  50
TORSDOF 11
