REMARK WARNING: 32 MAX_TORS EXCEEDED!!!
REMARK  36 active torsions:
REMARK  status: ('A' for Active; 'I' for Inactive)
REMARK    1  A    between atoms: CA_2  and  N_1 
REMARK    2  A    between atoms: CA_2  and  CB_5 
REMARK    3  A    between atoms: C_3  and  CA_2 
REMARK       I    between atoms: N_10  and  C_3 
REMARK    4  A    between atoms: CB_5  and  CG_6 
REMARK    5  A    between atoms: CG_6  and  CD_7 
REMARK       I    between atoms: CD_7  and  NE2_9 
REMARK    6  A    between atoms: CA_11  and  N_10 
REMARK    7  A    between atoms: CA_11  and  CB_14 
REMARK    8  A    between atoms: C_12  and  CA_11 
REMARK       I    between atoms: N_18  and  C_12 
REMARK    9  A    between atoms: CB_14  and  CG_15 
REMARK   10  A    between atoms: CG_15  and  CD1_16 
REMARK   11  A    between atoms: CG_15  and  CD2_17 
REMARK   12  A    between atoms: CA_19  and  N_18 
REMARK   13  A    between atoms: CA_19  and  CB_22 
REMARK   14  A    between atoms: C_20  and  CA_19 
REMARK       I    between atoms: N_24  and  C_20 
REMARK   15  A    between atoms: CB_22  and  OG_23 
REMARK   16  A    between atoms: C_26  and  CA_25 
REMARK       I    between atoms: N_31  and  C_26 
REMARK   17  A    between atoms: CA_32  and  N_31 
REMARK   18  A    between atoms: CA_32  and  CB_35 
REMARK   19  A    between atoms: C_33  and  CA_32 
REMARK       I    between atoms: N_42  and  C_33 
REMARK   20  A    between atoms: CB_35  and  CG_36 
REMARK   21  A    between atoms: C_44  and  CA_43 
REMARK       I    between atoms: N_49  and  C_44 
REMARK   22  A    between atoms: CA_50  and  N_49 
REMARK   23  A    between atoms: CA_50  and  CB_53 
REMARK   24  A    between atoms: C_51  and  CA_50 
REMARK       I    between atoms: N_60  and  C_51 
REMARK   25  A    between atoms: CB_53  and  CG_54 
REMARK   26  A    between atoms: CA_61  and  N_60 
REMARK   27  A    between atoms: CA_61  and  CB_64 
REMARK   28  A    between atoms: C_62  and  CA_61 
REMARK       I    between atoms: C_62  and  N_68 
REMARK   29  A    between atoms: CB_64  and  CG_65 
REMARK   30  A    between atoms: N_68  and  CA_69 
REMARK   31  A    between atoms: CA_69  and  CB_72 
REMARK   32  A    between atoms: CA_69  and  C_70 
REMARK   33  A    between atoms: C_70  and  O1_76 
REMARK   34  A    between atoms: CB_72  and  CG_73 
REMARK   35  A    between atoms: CG_73  and  CD1_74 
REMARK   36  A    between atoms: CG_73  and  CD2_75 
ROOT
ATOM      1  CA  PHE d   1      39.435 -33.501  65.199  0.00  0.00     0.093 C 
ATOM      2  H35 PHE d   1      38.483 -33.410  65.743  0.00  0.00     0.088 H 
ENDROOT
BRANCH   1   3
ATOM      3  N   PHE d   1      39.428 -34.707  64.386  0.00  0.00    -0.346 N 
ATOM      4  C   PRO d   1      38.624 -34.893  63.340  0.00  0.00     0.241 C 
ATOM      5  O   PRO d   1      37.747 -34.097  62.987  0.00  0.00    -0.271 OA
ATOM      6  H34 PHE d   1      40.064 -35.440  64.626  0.00  0.00     0.163 HD
BRANCH   4   7
ATOM      7  CA  PRO d   1      38.825 -36.190  62.583  0.00  0.00     0.091 C 
ATOM      8  CB  PRO d   1      40.068 -36.079  61.699  0.00  0.00    -0.036 C 
ATOM      9  CG  PRO d   1      39.547 -35.515  60.407  0.00  0.00    -0.048 C 
ATOM     10  H28 PRO d   1      40.523 -37.068  61.539  0.00  0.00     0.036 H 
ATOM     11  H29 PRO d   1      40.809 -35.403  62.150  0.00  0.00     0.036 H 
ATOM     12  CD  PRO d   1      38.250 -36.297  60.233  0.00  0.00    -0.001 C 
ATOM     13  H30 PRO d   1      39.357 -34.435  60.488  0.00  0.00     0.035 H 
ATOM     14  H31 PRO d   1      40.244 -35.703  59.577  0.00  0.00     0.035 H 
ATOM     15  N   PRO d   1      37.743 -36.366  61.618  0.00  0.00    -0.337 N 
ATOM     16  H32 PRO d   1      37.547 -35.763  59.577  0.00  0.00     0.064 H 
ATOM     17  H33 PRO d   1      38.441 -37.301  59.827  0.00  0.00     0.064 H 
ATOM     18  C   SER d   1      36.465 -36.518  62.024  0.00  0.00     0.245 C 
ATOM     19  O   SER d   1      36.144 -36.567  63.215  0.00  0.00    -0.271 OA
ATOM     20  H27 PRO d   1      38.893 -37.038  63.280  0.00  0.00     0.087 H 
BRANCH  18  21
ATOM     21  CA  SER d   1      35.396 -36.588  60.937  0.00  0.00     0.109 C 
ATOM     22  H23 SER d   1      35.860 -36.913  59.994  0.00  0.00     0.090 H 
BRANCH  21  23
ATOM     23  N   SER d   1      34.363 -37.530  61.308  0.00  0.00    -0.344 N 
ATOM     24  C   LEU d   1      34.605 -38.808  61.561  0.00  0.00     0.241 C 
ATOM     25  O   LEU d   1      35.695 -39.345  61.369  0.00  0.00    -0.271 OA
ATOM     26  H22 SER d   1      33.421 -37.201  61.377  0.00  0.00     0.163 HD
BRANCH  24  27
ATOM     27  CA  LEU d   1      33.432 -39.591  62.133  0.00  0.00     0.089 C 
ATOM     28  H12 LEU d   1      32.541 -39.385  61.522  0.00  0.00     0.087 H 
BRANCH  27  29
ATOM     29  N   LEU d   1      33.683 -41.004  62.133  0.00  0.00    -0.346 N 
ATOM     30  C   GLN d   1      33.219 -41.824  61.206  0.00  0.00     0.249 C 
ATOM     31  O   GLN d   1      32.656 -41.468  60.174  0.00  0.00    -0.271 OA
ATOM     32  H11 LEU d   1      34.237 -41.388  62.872  0.00  0.00     0.163 HD
BRANCH  30  33
ATOM     33  CA  GLN d   1      33.460 -43.276  61.516  0.00  0.00     0.176 C 
ATOM     34  H4  GLN d   1      33.620 -43.357  62.601  0.00  0.00     0.099 H 
BRANCH  33  35
ATOM     35  N   GLN d   1      32.321 -44.170  61.176  0.00  0.00    -0.066 N 
ATOM     36  H1  GLN d   1      32.558 -45.121  61.412  0.00  0.00     0.275 HD
ATOM     37  H2  GLN d   1      32.127 -44.107  60.189  0.00  0.00     0.275 HD
ATOM     38  H3  GLN d   1      31.506 -43.888  61.697  0.00  0.00     0.275 HD
ENDBRANCH  33  35
BRANCH  33  39
ATOM     39  CB  GLN d   1      34.722 -43.729  60.824  0.00  0.00    -0.022 C 
ATOM     40  H5  GLN d   1      35.471 -42.926  60.891  0.00  0.00     0.037 H 
ATOM     41  H6  GLN d   1      34.494 -43.930  59.767  0.00  0.00     0.037 H 
BRANCH  39  42
ATOM     42  CG  GLN d   1      35.285 -44.960  61.434  0.00  0.00     0.011 C 
ATOM     43  H7  GLN d   1      36.381 -44.876  61.470  0.00  0.00     0.047 H 
ATOM     44  H8  GLN d   1      35.004 -45.828  60.820  0.00  0.00     0.047 H 
BRANCH  42  45
ATOM     45  CD  GLN d   1      34.766 -45.148  62.809  0.00  0.00     0.215 C 
ATOM     46  NE2 GLN d   1      33.509 -45.573  62.912  0.00  0.00    -0.370 N 
ATOM     47  H9  GLN d   1      33.103 -45.718  63.814  0.00  0.00     0.159 HD
ATOM     48  H10 GLN d   1      32.971 -45.747  62.087  0.00  0.00     0.159 HD
ATOM     49  OE1 GLN d   1      35.470 -44.893  63.786  0.00  0.00    -0.274 OA
ENDBRANCH  42  45
ENDBRANCH  39  42
ENDBRANCH  33  39
ENDBRANCH  30  33
ENDBRANCH  27  29
BRANCH  27  50
ATOM     50  CB  LEU d   1      33.171 -39.157  63.575  0.00  0.00    -0.035 C 
ATOM     51  H13 LEU d   1      33.446 -38.094  63.644  0.00  0.00     0.037 H 
ATOM     52  H14 LEU d   1      33.840 -39.752  64.215  0.00  0.00     0.037 H 
BRANCH  50  53
ATOM     53  CG  LEU d   1      31.758 -39.292  64.159  0.00  0.00    -0.059 C 
ATOM     54  H15 LEU d   1      31.273 -38.309  64.066  0.00  0.00     0.038 H 
BRANCH  53  55
ATOM     55  CD1 LEU d   1      30.865 -40.297  63.423  0.00  0.00    -0.073 C 
ATOM     56  H16 LEU d   1      29.877 -40.331  63.905  0.00  0.00     0.028 H 
ATOM     57  H17 LEU d   1      31.326 -41.295  63.462  0.00  0.00     0.028 H 
ATOM     58  H18 LEU d   1      30.751 -39.987  62.374  0.00  0.00     0.028 H 
ENDBRANCH  53  55
BRANCH  53  59
ATOM     59  CD2 LEU d   1      31.859 -39.622  65.647  0.00  0.00    -0.073 C 
ATOM     60  H19 LEU d   1      32.505 -38.883  66.143  0.00  0.00     0.028 H 
ATOM     61  H20 LEU d   1      32.288 -40.627  65.771  0.00  0.00     0.028 H 
ATOM     62  H21 LEU d   1      30.856 -39.593  66.098  0.00  0.00     0.028 H 
ENDBRANCH  53  59
ENDBRANCH  50  53
ENDBRANCH  27  50
ENDBRANCH  24  27
ENDBRANCH  21  23
BRANCH  21  63
ATOM     63  CB  SER d   1      34.774 -35.203  60.745  0.00  0.00     0.044 C 
ATOM     64  H24 SER d   1      34.151 -34.965  61.620  0.00  0.00     0.077 H 
ATOM     65  H25 SER d   1      34.148 -35.213  59.840  0.00  0.00     0.077 H 
BRANCH  63  66
ATOM     66  OG  SER d   1      35.772 -34.208  60.605  0.00  0.00    -0.398 OA
ATOM     67  H26 SER d   1      36.313 -34.192  61.386  0.00  0.00     0.209 HD
ENDBRANCH  63  66
ENDBRANCH  21  63
ENDBRANCH  18  21
ENDBRANCH   4   7
ENDBRANCH   1   3
BRANCH   1  68
ATOM     68  CB  PHE d   1      40.592 -33.621  66.187  0.00  0.00    -0.014 C 
ATOM     69  H36 PHE d   1      41.530 -33.451  65.638  0.00  0.00     0.043 H 
ATOM     70  H37 PHE d   1      40.587 -34.641  66.598  0.00  0.00     0.043 H 
BRANCH  68  71
ATOM     71  CG  PHE d   1      40.539 -32.654  67.335  0.00  0.00    -0.056 A 
ATOM     72  CD1 PHE d   1      39.819 -32.958  68.488  0.00  0.00    -0.077 A 
ATOM     73  CE1 PHE d   1      39.787 -32.071  69.564  0.00  0.00    -0.082 A 
ATOM     74  H38 PHE d   1      39.277 -33.895  68.550  0.00  0.00     0.084 H 
ATOM     75  CZ  PHE d   1      40.501 -30.887  69.496  0.00  0.00    -0.083 A 
ATOM     76  H40 PHE d   1      39.206 -32.307  70.448  0.00  0.00     0.083 H 
ATOM     77  CE2 PHE d   1      41.220 -30.574  68.341  0.00  0.00    -0.082 A 
ATOM     78  H42 PHE d   1      40.502 -30.204  70.338  0.00  0.00     0.083 H 
ATOM     79  CD2 PHE d   1      41.240 -31.464  67.280  0.00  0.00    -0.077 A 
ATOM     80  H41 PHE d   1      41.761 -29.637  68.275  0.00  0.00     0.083 H 
ATOM     81  H39 PHE d   1      41.814 -31.224  66.393  0.00  0.00     0.084 H 
ENDBRANCH  68  71
ENDBRANCH   1  68
BRANCH   1  82
ATOM     82  C   PHE d   1      39.636 -32.263  64.309  0.00  0.00     0.243 C 
ATOM     83  O   PHE d   1      40.557 -32.237  63.489  0.00  0.00    -0.271 OA
ATOM     84  N   PRO d   1      38.782 -31.237  64.467  0.00  0.00    -0.337 N 
ATOM     85  CA  PRO d   1      38.849 -30.033  63.630  0.00  0.00     0.091 C 
ATOM     86  CD  PRO d   1      37.683 -31.133  65.434  0.00  0.00    -0.001 C 
ATOM     87  CB  PRO d   1      37.573 -29.266  64.018  0.00  0.00    -0.036 C 
ATOM     88  H43 PRO d   1      38.846 -30.302  62.563  0.00  0.00     0.087 H 
ATOM     89  CG  PRO d   1      36.734 -30.235  64.728  0.00  0.00    -0.048 C 
ATOM     90  H44 PRO d   1      37.058 -28.898  63.119  0.00  0.00     0.036 H 
ATOM     91  H45 PRO d   1      37.819 -28.418  64.673  0.00  0.00     0.036 H 
ATOM     92  H46 PRO d   1      36.080 -29.723  65.449  0.00  0.00     0.035 H 
ATOM     93  H47 PRO d   1      36.120 -30.806  64.017  0.00  0.00     0.035 H 
ATOM     94  H48 PRO d   1      38.024 -30.689  66.381  0.00  0.00     0.064 H 
ATOM     95  H49 PRO d   1      37.231 -32.116  65.632  0.00  0.00     0.064 H 
BRANCH  85  96
ATOM     96  C   PRO d   1      40.072 -29.169  63.934  0.00  0.00     0.241 C 
ATOM     97  O   PRO d   1      40.667 -29.308  64.993  0.00  0.00    -0.271 OA
ATOM     98  N   PHE d   1      40.431 -28.275  63.016  0.00  0.00    -0.346 N 
ATOM     99  H50 PHE d   1      39.952 -28.257  62.139  0.00  0.00     0.163 HD
BRANCH  98 100
ATOM    100  CA  PHE d   1      41.509 -27.318  63.259  0.00  0.00     0.093 C 
ATOM    101  H51 PHE d   1      42.363 -27.859  63.693  0.00  0.00     0.088 H 
BRANCH 100 102
ATOM    102  CB  PHE d   1      41.956 -26.677  61.955  0.00  0.00    -0.014 C 
ATOM    103  H52 PHE d   1      42.433 -25.714  62.189  0.00  0.00     0.043 H 
ATOM    104  H53 PHE d   1      41.066 -26.503  61.333  0.00  0.00     0.043 H 
BRANCH 102 105
ATOM    105  CG  PHE d   1      42.937 -27.513  61.159  0.00  0.00    -0.056 A 
ATOM    106  CD1 PHE d   1      43.899 -26.896  60.365  0.00  0.00    -0.077 A 
ATOM    107  CE1 PHE d   1      44.808 -27.656  59.615  0.00  0.00    -0.082 A 
ATOM    108  H54 PHE d   1      43.946 -25.814  60.326  0.00  0.00     0.084 H 
ATOM    109  CZ  PHE d   1      44.759 -29.044  59.660  0.00  0.00    -0.083 A 
ATOM    110  H56 PHE d   1      45.550 -27.160  58.999  0.00  0.00     0.083 H 
ATOM    111  CE2 PHE d   1      43.811 -29.672  60.466  0.00  0.00    -0.082 A 
ATOM    112  H58 PHE d   1      45.453 -29.634  59.072  0.00  0.00     0.083 H 
ATOM    113  CD2 PHE d   1      42.904 -28.909  61.204  0.00  0.00    -0.077 A 
ATOM    114  H57 PHE d   1      43.778 -30.754  60.520  0.00  0.00     0.083 H 
ATOM    115  H55 PHE d   1      42.164 -29.407  61.820  0.00  0.00     0.084 H 
ENDBRANCH 102 105
ENDBRANCH 100 102
BRANCH 100 116
ATOM    116  C   PHE d   1      41.067 -26.249  64.242  0.00  0.00     0.241 C 
ATOM    117  O   PHE d   1      39.860 -26.069  64.486  0.00  0.00    -0.271 OA
ATOM    118  N   ASP d   1      42.048 -25.567  64.832  0.00  0.00    -0.345 N 
ATOM    119  H59 ASP d   1      42.994 -25.855  64.682  0.00  0.00     0.163 HD
BRANCH 118 120
ATOM    120  CA  ASP d   1      41.789 -24.416  65.688  0.00  0.00     0.098 C 
ATOM    121  H60 ASP d   1      41.178 -24.729  66.548  0.00  0.00     0.088 H 
BRANCH 120 122
ATOM    122  CB  ASP d   1      43.098 -23.797  66.178  0.00  0.00     0.043 C 
ATOM    123  H61 ASP d   1      42.863 -22.860  66.704  0.00  0.00     0.052 H 
ATOM    124  H62 ASP d   1      43.727 -23.578  65.303  0.00  0.00     0.052 H 
BRANCH 122 125
ATOM    125  CG  ASP d   1      43.889 -24.697  67.127  0.00  0.00     0.175 C 
ATOM    126  OD1 ASP d   1      43.615 -25.920  67.241  0.00  0.00    -0.648 OA
ATOM    127  OD2 ASP d   1      44.818 -24.154  67.765  0.00  0.00    -0.648 OA
ENDBRANCH 122 125
ENDBRANCH 120 122
BRANCH 120 128
ATOM    128  C   ASP d   1      41.057 -23.346  64.884  0.00  0.00     0.241 C 
ATOM    129  O   ASP d   1      41.419 -23.049  63.729  0.00  0.00    -0.271 OA
ATOM    130  N   LEU d   1      40.024 -22.774  65.488  0.00  0.00    -0.345 N 
ATOM    131  H63 LEU d   1      39.637 -23.198  66.307  0.00  0.00     0.163 HD
BRANCH 130 132
ATOM    132  CA  LEU d   1      39.446 -21.546  64.983  0.00  0.00     0.093 C 
ATOM    133  H64 LEU d   1      39.277 -21.647  63.901  0.00  0.00     0.089 H 
BRANCH 132 134
ATOM    134  CB  LEU d   1      38.106 -21.276  65.669  0.00  0.00    -0.034 C 
ATOM    135  H65 LEU d   1      38.051 -20.190  65.833  0.00  0.00     0.037 H 
ATOM    136  H66 LEU d   1      38.141 -21.792  66.640  0.00  0.00     0.037 H 
BRANCH 134 137
ATOM    137  CG  LEU d   1      36.782 -21.686  65.003  0.00  0.00    -0.059 C 
ATOM    138  H67 LEU d   1      36.480 -20.847  64.359  0.00  0.00     0.038 H 
BRANCH 137 139
ATOM    139  CD1 LEU d   1      36.877 -22.907  64.104  0.00  0.00    -0.073 C 
ATOM    140  H68 LEU d   1      35.888 -23.124  63.674  0.00  0.00     0.028 H 
ATOM    141  H69 LEU d   1      37.218 -23.771  64.694  0.00  0.00     0.028 H 
ATOM    142  H70 LEU d   1      37.594 -22.710  63.293  0.00  0.00     0.028 H 
ENDBRANCH 137 139
BRANCH 137 143
ATOM    143  CD2 LEU d   1      35.702 -21.861  66.054  0.00  0.00    -0.073 C 
ATOM    144  H71 LEU d   1      35.658 -20.963  66.688  0.00  0.00     0.028 H 
ATOM    145  H72 LEU d   1      35.935 -22.738  66.676  0.00  0.00     0.028 H 
ATOM    146  H73 LEU d   1      34.730 -22.009  65.560  0.00  0.00     0.028 H 
ENDBRANCH 137 143
ENDBRANCH 134 137
ENDBRANCH 132 134
BRANCH 132 147
ATOM    147  C   LEU d   1      40.415 -20.391  65.229  0.00  0.00     0.163 C 
ATOM    148  O   LEU d   1      40.408 -19.394  64.486  0.00  0.00    -0.648 OA
BRANCH 147 149
ATOM    149  O1  LEU d   1      41.272 -20.452  66.245  0.00  0.00    -0.775 OA
ATOM    150  H74 LEU d   1      42.160 -20.405  65.911  0.00  0.00     0.167 HD
ENDBRANCH 147 149
ENDBRANCH 132 147
ENDBRANCH 130 132
ENDBRANCH 120 128
ENDBRANCH 118 120
ENDBRANCH 100 116
ENDBRANCH  98 100
ENDBRANCH  85  96
ENDBRANCH   1  82
TORSDOF 36
