REMARK  6 active torsions:
REMARK  status: ('A' for Active; 'I' for Inactive)
REMARK    1  A    between atoms: CAW_13  and  CAV_14 
REMARK    2  A    between atoms: CAU_19  and  CAS_20 
REMARK    3  A    between atoms: CAS_20  and  CBB_21 
REMARK    4  A    between atoms: CBB_21  and  PBC_22 
REMARK    5  A    between atoms: CBB_21  and  PBD_26 
REMARK    6  A    between atoms: CBB_21  and  OAC_30 
ROOT
ATOM      1  CAV B29 d   1      28.371  46.780  11.500  0.00  0.00    -0.023 A 
ATOM      2  CAR B29 d   1      28.711  46.250  10.260  0.00  0.00    -0.066 A 
ATOM      3  CAM B29 d   1      28.454  48.156  11.695  0.00  0.00    -0.072 A 
ATOM      4  CAJ B29 d   1      28.865  48.993  10.661  0.00  0.00    -0.082 A 
ATOM      5  CAL B29 d   1      29.205  48.453   9.424  0.00  0.00    -0.077 A 
ATOM      6  CAU B29 d   1      29.136  47.078   9.224  0.00  0.00    -0.053 A 
ATOM      7  H8  B29 d   1      28.645  45.180  10.098  0.00  0.00     0.085 H 
ATOM      8  H9  B29 d   1      28.197  48.579  12.659  0.00  0.00     0.084 H 
ATOM      9  H10 B29 d   1      28.920  50.064  10.819  0.00  0.00     0.083 H 
ATOM     10  H11 B29 d   1      29.523  49.103   8.617  0.00  0.00     0.084 H 
ENDROOT
BRANCH   1  11
ATOM     11  CAW B29 d   1      27.984  45.930  12.530  0.00  0.00     0.009 A 
ATOM     12  CBA B29 d   1      28.443  46.132  13.828  0.00  0.00     0.098 A 
ATOM     13  OAT B29 d   1      29.368  46.995  14.337  0.00  0.00    -0.308 OA
ATOM     14  CAZ B29 d   1      28.034  45.291  14.858  0.00  0.00     0.012 A 
ATOM     15  CAX B29 d   1      29.556  46.716  15.663  0.00  0.00     0.087 A 
ATOM     16  CAY B29 d   1      28.718  45.662  16.009  0.00  0.00     0.011 A 
ATOM     17  CAO B29 d   1      30.491  47.178  16.585  0.00  0.00    -0.049 A 
ATOM     18  CAP B29 d   1      28.811  45.075  17.265  0.00  0.00    -0.069 A 
ATOM     19  CAI B29 d   1      29.753  45.531  18.181  0.00  0.00    -0.082 A 
ATOM     20  H1  B29 d   1      28.148  44.260  17.532  0.00  0.00     0.085 H 
ATOM     21  CAH B29 d   1      30.592  46.586  17.841  0.00  0.00    -0.080 A 
ATOM     22  H2  B29 d   1      29.833  45.065  19.157  0.00  0.00     0.083 H 
ATOM     23  H3  B29 d   1      31.325  46.948  18.553  0.00  0.00     0.083 H 
ATOM     24  H4  B29 d   1      31.144  48.003  16.324  0.00  0.00     0.087 H 
ATOM     25  CAQ B29 d   1      27.182  44.221  14.592  0.00  0.00    -0.069 A 
ATOM     26  CAK B29 d   1      26.736  44.005  13.292  0.00  0.00    -0.081 A 
ATOM     27  H5  B29 d   1      26.869  43.561  15.393  0.00  0.00     0.085 H 
ATOM     28  CAN B29 d   1      27.130  44.864  12.268  0.00  0.00    -0.069 A 
ATOM     29  H6  B29 d   1      26.082  43.168  13.076  0.00  0.00     0.083 H 
ATOM     30  H7  B29 d   1      26.768  44.700  11.259  0.00  0.00     0.085 H 
ENDBRANCH   1  11
BRANCH   6  31
ATOM     31  CAS B29 d   1      29.674  46.428   7.943  0.00  0.00     0.014 C 
ATOM     32  H12 B29 d   1      29.483  45.347   8.010  0.00  0.00     0.046 H 
ATOM     33  H13 B29 d   1      30.759  46.607   7.906  0.00  0.00     0.046 H 
BRANCH  31  34
ATOM     34  CBB B29 d   1      29.073  46.928   6.625  0.00  0.00     0.289 C 
BRANCH  34  35
ATOM     35  PBC B29 d   1      29.782  45.827   5.299  0.00  0.00     0.310 P 
ATOM     36  OAD B29 d   1      29.453  46.459   3.862  0.00  0.00    -0.637 OA
ATOM     37  OAE B29 d   1      31.359  46.025   5.548  0.00  0.00    -0.637 OA
ATOM     38  OAA B29 d   1      29.355  44.415   5.433  0.00  0.00    -0.637 OA
ENDBRANCH  34  35
BRANCH  34  39
ATOM     39  PBD B29 d   1      27.208  46.841   6.676  0.00  0.00     0.310 P 
ATOM     40  OAF B29 d   1      26.855  45.529   7.531  0.00  0.00    -0.637 OA
ATOM     41  OAG B29 d   1      26.784  48.131   7.545  0.00  0.00    -0.637 OA
ATOM     42  OAB B29 d   1      26.575  46.884   5.342  0.00  0.00    -0.637 OA
ENDBRANCH  34  39
BRANCH  34  43
ATOM     43  OAC B29 d   1      29.497  48.272   6.376  0.00  0.00    -0.365 OA
ATOM     44  H14 B29 d   1      29.184  48.549   5.523  0.00  0.00     0.212 HD
ENDBRANCH  34  43
ENDBRANCH  31  34
ENDBRANCH   6  31
TORSDOF 6
