REMARK  9 active torsions:
REMARK  status: ('A' for Active; 'I' for Inactive)
REMARK    1  A    between atoms: CBE_10  and  SBK_11 
REMARK    2  A    between atoms: SBK_11  and  NAZ_14 
REMARK    3  A    between atoms: NAZ_14  and  CBB_15 
REMARK    4  A    between atoms: CBD_20  and  CBC_21 
REMARK    5  A    between atoms: CBA_26  and  CAY_27 
REMARK    6  A    between atoms: CAY_27  and  CBH_28 
REMARK    7  A    between atoms: CBH_28  and  PBI_29 
REMARK    8  A    between atoms: CBH_28  and  PBJ_33 
REMARK    9  A    between atoms: CBH_28  and  OAE_37 
ROOT
ATOM      1  CBB B75 d   1      24.082  30.453  34.861  0.00  0.00     0.043 A 
ATOM      2  CAW B75 d   1      24.311  29.838  33.634  0.00  0.00    -0.046 A 
ATOM      3  CAO B75 d   1      25.164  30.955  35.576  0.00  0.00    -0.057 A 
ATOM      4  CAK B75 d   1      26.452  30.846  35.060  0.00  0.00    -0.080 A 
ATOM      5  CAQ B75 d   1      26.671  30.242  33.825  0.00  0.00    -0.072 A 
ATOM      6  CBD B75 d   1      25.594  29.739  33.102  0.00  0.00    -0.024 A 
ATOM      7  H9  B75 d   1      23.474  29.428  33.081  0.00  0.00     0.088 H 
ATOM      8  H10 B75 d   1      25.004  31.432  36.536  0.00  0.00     0.086 H 
ATOM      9  H11 B75 d   1      27.292  31.235  35.625  0.00  0.00     0.083 H 
ATOM     10  H12 B75 d   1      27.677  30.164  33.428  0.00  0.00     0.084 H 
ENDROOT
BRANCH   6  11
ATOM     11  CBC B75 d   1      25.768  29.215  31.826  0.00  0.00    -0.025 A 
ATOM     12  CAV B75 d   1      24.878  28.261  31.338  0.00  0.00    -0.066 A 
ATOM     13  CBA B75 d   1      24.991  27.801  30.031  0.00  0.00    -0.053 A 
ATOM     14  H13 B75 d   1      24.094  27.876  31.980  0.00  0.00     0.085 H 
ATOM     15  CAN B75 d   1      26.004  28.283  29.209  0.00  0.00    -0.077 A 
ATOM     16  CAJ B75 d   1      26.901  29.228  29.697  0.00  0.00    -0.082 A 
ATOM     17  H16 B75 d   1      26.095  27.923  28.190  0.00  0.00     0.084 H 
ATOM     18  CAP B75 d   1      26.782  29.692  31.001  0.00  0.00    -0.072 A 
ATOM     19  H15 B75 d   1      27.693  29.602  29.059  0.00  0.00     0.083 H 
ATOM     20  H14 B75 d   1      27.482  30.429  31.378  0.00  0.00     0.084 H 
BRANCH  13  21
ATOM     21  CAY B75 d   1      23.921  26.863  29.466  0.00  0.00     0.014 C 
ATOM     22  H17 B75 d   1      24.000  26.889  28.369  0.00  0.00     0.046 H 
ATOM     23  H18 B75 d   1      22.939  27.253  29.773  0.00  0.00     0.046 H 
BRANCH  21  24
ATOM     24  CBH B75 d   1      23.997  25.397  29.904  0.00  0.00     0.289 C 
BRANCH  24  25
ATOM     25  PBI B75 d   1      22.403  24.594  29.383  0.00  0.00     0.310 P 
ATOM     26  OAF B75 d   1      22.430  24.649  27.781  0.00  0.00    -0.637 OA
ATOM     27  OAG B75 d   1      22.508  23.048  29.837  0.00  0.00    -0.637 OA
ATOM     28  OAA B75 d   1      21.231  25.291  29.955  0.00  0.00    -0.637 OA
ENDBRANCH  24  25
BRANCH  24  29
ATOM     29  PBJ B75 d   1      25.386  24.488  29.067  0.00  0.00     0.310 P 
ATOM     30  OAH B75 d   1      25.280  24.804  27.493  0.00  0.00    -0.637 OA
ATOM     31  OAI B75 d   1      26.768  25.117  29.591  0.00  0.00    -0.637 OA
ATOM     32  OAB B75 d   1      25.265  23.041  29.349  0.00  0.00    -0.637 OA
ENDBRANCH  24  29
BRANCH  24  33
ATOM     33  OAE B75 d   1      24.135  25.230  31.315  0.00  0.00    -0.365 OA
ATOM     34  H19 B75 d   1      24.151  24.303  31.523  0.00  0.00     0.212 HD
ENDBRANCH  24  33
ENDBRANCH  21  24
ENDBRANCH  13  21
ENDBRANCH   6  11
BRANCH   1  35
ATOM     35  NAZ B75 d   1      22.806  30.640  35.199  0.00  0.00    -0.281 N 
ATOM     36  H8  B75 d   1      22.164  30.191  34.577  0.00  0.00     0.179 HD
BRANCH  35  37
ATOM     37  SBK B75 d   1      22.068  31.448  36.415  0.00  0.00     0.263 S 
ATOM     38  OAC B75 d   1      21.183  30.473  37.135  0.00  0.00    -0.200 OA
ATOM     39  OAD B75 d   1      21.188  32.489  35.789  0.00  0.00    -0.200 OA
BRANCH  37  40
ATOM     40  CBE B75 d   1      23.004  32.310  37.622  0.00  0.00     0.080 A 
ATOM     41  CAX B75 d   1      22.300  33.204  38.419  0.00  0.00    -0.050 A 
ATOM     42  CBG B75 d   1      22.891  33.795  39.531  0.00  0.00    -0.025 A 
ATOM     43  H1  B75 d   1      21.273  33.445  38.170  0.00  0.00     0.087 H 
ATOM     44  CAT B75 d   1      22.142  34.621  40.363  0.00  0.00    -0.072 A 
ATOM     45  CBF B75 d   1      24.211  33.497  39.842  0.00  0.00    -0.026 A 
ATOM     46  CAM B75 d   1      22.718  35.143  41.515  0.00  0.00    -0.082 A 
ATOM     47  H2  B75 d   1      21.114  34.856  40.114  0.00  0.00     0.084 H 
ATOM     48  CAL B75 d   1      24.038  34.843  41.831  0.00  0.00    -0.082 A 
ATOM     49  H3  B75 d   1      22.137  35.785  42.168  0.00  0.00     0.083 H 
ATOM     50  CAS B75 d   1      24.787  34.023  40.994  0.00  0.00    -0.072 A 
ATOM     51  H4  B75 d   1      24.484  35.249  42.731  0.00  0.00     0.083 H 
ATOM     52  H5  B75 d   1      25.818  33.794  41.239  0.00  0.00     0.084 H 
ATOM     53  CAU B75 d   1      24.928  32.622  39.033  0.00  0.00    -0.071 A 
ATOM     54  CAR B75 d   1      24.331  32.027  37.927  0.00  0.00    -0.059 A 
ATOM     55  H6  B75 d   1      25.963  32.401  39.267  0.00  0.00     0.084 H 
ATOM     56  H7  B75 d   1      24.898  31.345  37.304  0.00  0.00     0.085 H 
ENDBRANCH  37  40
ENDBRANCH  35  37
ENDBRANCH   1  35
TORSDOF 9
