REMARK  6 active torsions:
REMARK  status: ('A' for Active; 'I' for Inactive)
REMARK    1  A    between atoms: CAW_13  and  CAV_14 
REMARK    2  A    between atoms: CAU_19  and  CAS_20 
REMARK    3  A    between atoms: CAS_20  and  CBB_21 
REMARK    4  A    between atoms: CBB_21  and  PBC_22 
REMARK    5  A    between atoms: CBB_21  and  PBD_26 
REMARK    6  A    between atoms: CBB_21  and  OAC_30 
ROOT
ATOM      1  CAV B29 d   1      40.403  37.772  56.458  0.00  0.00    -0.023 A 
ATOM      2  CAR B29 d   1      40.527  39.154  56.345  0.00  0.00    -0.066 A 
ATOM      3  CAM B29 d   1      39.300  37.148  55.881  0.00  0.00    -0.072 A 
ATOM      4  CAJ B29 d   1      38.357  37.905  55.191  0.00  0.00    -0.082 A 
ATOM      5  CAL B29 d   1      38.487  39.285  55.069  0.00  0.00    -0.077 A 
ATOM      6  CAU B29 d   1      39.581  39.914  55.656  0.00  0.00    -0.053 A 
ATOM      7  H8  B29 d   1      41.376  39.650  56.802  0.00  0.00     0.085 H 
ATOM      8  H9  B29 d   1      39.176  36.075  55.969  0.00  0.00     0.084 H 
ATOM      9  H10 B29 d   1      37.505  37.410  54.740  0.00  0.00     0.083 H 
ATOM     10  H11 B29 d   1      37.747  39.861  54.525  0.00  0.00     0.084 H 
ENDROOT
BRANCH   1  11
ATOM     11  CAW B29 d   1      41.388  36.994  57.065  0.00  0.00     0.009 A 
ATOM     12  CBA B29 d   1      41.849  35.842  56.433  0.00  0.00     0.098 A 
ATOM     13  OAT B29 d   1      41.587  35.319  55.195  0.00  0.00    -0.308 OA
ATOM     14  CAZ B29 d   1      42.814  35.039  57.033  0.00  0.00     0.012 A 
ATOM     15  CAX B29 d   1      42.369  34.216  54.995  0.00  0.00     0.087 A 
ATOM     16  CAY B29 d   1      43.133  34.020  56.140  0.00  0.00     0.011 A 
ATOM     17  CAO B29 d   1      42.505  33.354  53.910  0.00  0.00    -0.049 A 
ATOM     18  CAP B29 d   1      44.020  32.950  56.197  0.00  0.00    -0.069 A 
ATOM     19  CAI B29 d   1      44.147  32.080  55.118  0.00  0.00    -0.082 A 
ATOM     20  H1  B29 d   1      44.617  32.793  57.088  0.00  0.00     0.085 H 
ATOM     21  CAH B29 d   1      43.390  32.283  53.969  0.00  0.00    -0.080 A 
ATOM     22  H2  B29 d   1      44.836  31.245  55.173  0.00  0.00     0.083 H 
ATOM     23  H3  B29 d   1      43.489  31.610  53.125  0.00  0.00     0.083 H 
ATOM     24  H4  B29 d   1      41.917  33.519  53.014  0.00  0.00     0.087 H 
ATOM     25  CAQ B29 d   1      43.321  35.400  58.277  0.00  0.00    -0.069 A 
ATOM     26  CAK B29 d   1      42.872  36.552  58.916  0.00  0.00    -0.081 A 
ATOM     27  H5  B29 d   1      44.072  34.779  58.752  0.00  0.00     0.085 H 
ATOM     28  CAN B29 d   1      41.905  37.347  58.308  0.00  0.00    -0.069 A 
ATOM     29  H6  B29 d   1      43.274  36.829  59.884  0.00  0.00     0.083 H 
ATOM     30  H7  B29 d   1      41.553  38.244  58.804  0.00  0.00     0.085 H 
ENDBRANCH   1  11
BRANCH   6  31
ATOM     31  CAS B29 d   1      39.785  41.415  55.423  0.00  0.00     0.014 C 
ATOM     32  H12 B29 d   1      39.300  41.686  54.474  0.00  0.00     0.046 H 
ATOM     33  H13 B29 d   1      40.865  41.610  55.351  0.00  0.00     0.046 H 
BRANCH  31  34
ATOM     34  CBB B29 d   1      39.208  42.304  56.530  0.00  0.00     0.289 C 
BRANCH  34  35
ATOM     35  PBC B29 d   1      39.967  43.997  56.390  0.00  0.00     0.310 P 
ATOM     36  OAD B29 d   1      39.531  44.680  55.007  0.00  0.00    -0.637 OA
ATOM     37  OAE B29 d   1      39.303  44.871  57.564  0.00  0.00    -0.637 OA
ATOM     38  OAA B29 d   1      41.428  43.858  56.600  0.00  0.00    -0.637 OA
ENDBRANCH  34  35
BRANCH  34  39
ATOM     39  PBD B29 d   1      37.351  42.485  56.479  0.00  0.00     0.310 P 
ATOM     40  OAF B29 d   1      36.956  42.856  54.972  0.00  0.00    -0.637 OA
ATOM     41  OAG B29 d   1      36.822  41.030  56.903  0.00  0.00    -0.637 OA
ATOM     42  OAB B29 d   1      36.930  43.572  57.395  0.00  0.00    -0.637 OA
ENDBRANCH  34  39
BRANCH  34  43
ATOM     43  OAC B29 d   1      39.570  41.806  57.820  0.00  0.00    -0.365 OA
ATOM     44  H14 B29 d   1      40.517  41.762  57.887  0.00  0.00     0.212 HD
ENDBRANCH  34  43
ENDBRANCH  31  34
ENDBRANCH   6  31
TORSDOF 6
