REMARK  7 active torsions:
REMARK  status: ('A' for Active; 'I' for Inactive)
REMARK    1  A    between atoms: CAW_6  and  CAY_7 
REMARK    2  A    between atoms: CAZ_12  and  CAX_13 
REMARK    3  A    between atoms: CAV_18  and  CAU_19 
REMARK    4  A    between atoms: CAU_19  and  CBA_20 
REMARK    5  A    between atoms: CBA_20  and  PBB_21 
REMARK    6  A    between atoms: CBA_20  and  PBC_25 
REMARK    7  A    between atoms: CBA_20  and  OAC_29 
ROOT
ATOM      1  CAX B08 d   1      40.183  38.059  56.395  0.00  0.00    -0.025 A 
ATOM      2  CAS B08 d   1      40.304  39.442  56.279  0.00  0.00    -0.066 A 
ATOM      3  CAP B08 d   1      39.061  37.432  55.865  0.00  0.00    -0.072 A 
ATOM      4  CAK B08 d   1      38.080  38.176  55.212  0.00  0.00    -0.082 A 
ATOM      5  CAM B08 d   1      38.213  39.555  55.088  0.00  0.00    -0.077 A 
ATOM      6  CAV B08 d   1      39.328  40.192  55.625  0.00  0.00    -0.053 A 
ATOM      7  H10 B08 d   1      41.168  39.941  56.703  0.00  0.00     0.085 H 
ATOM      8  H11 B08 d   1      38.949  36.358  55.960  0.00  0.00     0.084 H 
ATOM      9  H12 B08 d   1      37.210  37.678  54.799  0.00  0.00     0.083 H 
ATOM     10  H13 B08 d   1      37.451  40.131  54.575  0.00  0.00     0.084 H 
ENDROOT
BRANCH   1  11
ATOM     11  CAZ B08 d   1      41.222  37.297  56.930  0.00  0.00    -0.025 A 
ATOM     12  CAT B08 d   1      41.606  36.095  56.341  0.00  0.00    -0.061 A 
ATOM     13  CAY B08 d   1      42.642  35.324  56.865  0.00  0.00    -0.025 A 
ATOM     14  H6  B08 d   1      41.087  35.751  55.454  0.00  0.00     0.086 H 
ATOM     15  CAQ B08 d   1      43.298  35.774  58.006  0.00  0.00    -0.072 A 
ATOM     16  CAL B08 d   1      42.918  36.970  58.607  0.00  0.00    -0.081 A 
ATOM     17  H7  B08 d   1      44.108  35.191  58.428  0.00  0.00     0.084 H 
ATOM     18  CAR B08 d   1      41.883  37.732  58.073  0.00  0.00    -0.072 A 
ATOM     19  H8  B08 d   1      43.432  37.311  59.498  0.00  0.00     0.083 H 
ATOM     20  H9  B08 d   1      41.593  38.663  58.547  0.00  0.00     0.084 H 
BRANCH  13  21
ATOM     21  CAW B08 d   1      43.006  34.109  56.286  0.00  0.00    -0.026 A 
ATOM     22  CAN B08 d   1      42.619  33.791  54.988  0.00  0.00    -0.072 A 
ATOM     23  CAI B08 d   1      42.966  32.575  54.409  0.00  0.00    -0.082 A 
ATOM     24  H1  B08 d   1      42.036  34.505  54.417  0.00  0.00     0.084 H 
ATOM     25  CAH B08 d   1      43.713  31.649  55.133  0.00  0.00    -0.083 A 
ATOM     26  H2  B08 d   1      42.655  32.348  53.395  0.00  0.00     0.083 H 
ATOM     27  CAJ B08 d   1      44.099  31.956  56.433  0.00  0.00    -0.082 A 
ATOM     28  H3  B08 d   1      43.990  30.700  54.688  0.00  0.00     0.083 H 
ATOM     29  CAO B08 d   1      43.749  33.177  57.006  0.00  0.00    -0.072 A 
ATOM     30  H4  B08 d   1      44.677  31.240  57.005  0.00  0.00     0.083 H 
ATOM     31  H5  B08 d   1      44.058  33.403  58.020  0.00  0.00     0.084 H 
ENDBRANCH  13  21
ENDBRANCH   1  11
BRANCH   6  32
ATOM     32  CAU B08 d   1      39.528  41.692  55.381  0.00  0.00     0.014 C 
ATOM     33  H14 B08 d   1      39.025  41.962  54.441  0.00  0.00     0.046 H 
ATOM     34  H15 B08 d   1      40.606  41.890  55.290  0.00  0.00     0.046 H 
BRANCH  32  35
ATOM     35  CBA B08 d   1      38.966  42.571  56.502  0.00  0.00     0.289 C 
BRANCH  35  36
ATOM     36  PBB B08 d   1      39.691  44.285  56.382  0.00  0.00     0.310 P 
ATOM     37  OAD B08 d   1      41.288  44.099  56.436  0.00  0.00    -0.637 OA
ATOM     38  OAE B08 d   1      39.383  44.828  54.898  0.00  0.00    -0.637 OA
ATOM     39  OAA B08 d   1      39.153  45.137  57.466  0.00  0.00    -0.637 OA
ENDBRANCH  35  36
BRANCH  35  40
ATOM     40  PBC B08 d   1      37.109  42.767  56.446  0.00  0.00     0.310 P 
ATOM     41  OAF B08 d   1      36.722  43.115  54.921  0.00  0.00    -0.637 OA
ATOM     42  OAG B08 d   1      36.521  41.312  56.812  0.00  0.00    -0.637 OA
ATOM     43  OAB B08 d   1      36.618  43.818  57.370  0.00  0.00    -0.637 OA
ENDBRANCH  35  40
BRANCH  35  44
ATOM     44  OAC B08 d   1      39.384  42.018  57.751  0.00  0.00    -0.365 OA
ATOM     45  H16 B08 d   1      40.333  41.981  57.778  0.00  0.00     0.212 HD
ENDBRANCH  35  44
ENDBRANCH  32  35
ENDBRANCH   6  32
TORSDOF 7
