REMARK  9 active torsions:
REMARK  status: ('A' for Active; 'I' for Inactive)
REMARK    1  A    between atoms: CBE_10  and  SBK_11 
REMARK    2  A    between atoms: SBK_11  and  NAZ_14 
REMARK    3  A    between atoms: NAZ_14  and  CBB_15 
REMARK    4  A    between atoms: CBD_20  and  CBC_21 
REMARK    5  A    between atoms: CBA_26  and  CAY_27 
REMARK    6  A    between atoms: CAY_27  and  CBH_28 
REMARK    7  A    between atoms: CBH_28  and  PBI_29 
REMARK    8  A    between atoms: CBH_28  and  PBJ_33 
REMARK    9  A    between atoms: CBH_28  and  OAE_37 
ROOT
ATOM      1  CBB B75 d   1       7.789  36.029  27.872  0.00  0.00     0.043 A 
ATOM      2  CAW B75 d   1       8.125  35.447  29.089  0.00  0.00    -0.046 A 
ATOM      3  CAO B75 d   1       7.153  35.261  26.902  0.00  0.00    -0.057 A 
ATOM      4  CAK B75 d   1       6.838  33.927  27.126  0.00  0.00    -0.080 A 
ATOM      5  CAQ B75 d   1       7.190  33.345  28.338  0.00  0.00    -0.072 A 
ATOM      6  CBD B75 d   1       7.849  34.100  29.301  0.00  0.00    -0.024 A 
ATOM      7  H9  B75 d   1       8.598  36.037  29.866  0.00  0.00     0.088 H 
ATOM      8  H10 B75 d   1       6.898  35.714  25.951  0.00  0.00     0.086 H 
ATOM      9  H11 B75 d   1       6.325  33.348  26.366  0.00  0.00     0.083 H 
ATOM     10  H12 B75 d   1       6.951  32.306  28.532  0.00  0.00     0.084 H 
ENDROOT
BRANCH   6  11
ATOM     11  CBC B75 d   1       8.516  33.392  30.293  0.00  0.00    -0.025 A 
ATOM     12  CAV B75 d   1       8.497  32.002  30.248  0.00  0.00    -0.066 A 
ATOM     13  CBA B75 d   1       9.319  31.259  31.085  0.00  0.00    -0.053 A 
ATOM     14  H13 B75 d   1       7.836  31.495  29.555  0.00  0.00     0.085 H 
ATOM     15  CAN B75 d   1      10.159  31.912  31.981  0.00  0.00    -0.077 A 
ATOM     16  CAJ B75 d   1      10.170  33.302  32.035  0.00  0.00    -0.082 A 
ATOM     17  H16 B75 d   1      10.804  31.338  32.636  0.00  0.00     0.084 H 
ATOM     18  CAP B75 d   1       9.348  34.045  31.194  0.00  0.00    -0.072 A 
ATOM     19  H15 B75 d   1      10.823  33.809  32.736  0.00  0.00     0.083 H 
ATOM     20  H14 B75 d   1       9.357  35.128  31.241  0.00  0.00     0.084 H 
BRANCH  13  21
ATOM     21  CAY B75 d   1       9.311  29.733  30.977  0.00  0.00     0.014 C 
ATOM     22  H17 B75 d   1      10.293  29.348  31.290  0.00  0.00     0.046 H 
ATOM     23  H18 B75 d   1       9.123  29.451  29.931  0.00  0.00     0.046 H 
BRANCH  21  24
ATOM     24  CBH B75 d   1       8.229  29.109  31.862  0.00  0.00     0.289 C 
BRANCH  24  25
ATOM     25  PBI B75 d   1       7.948  27.349  31.316  0.00  0.00     0.310 P 
ATOM     26  OAF B75 d   1       9.402  26.664  31.231  0.00  0.00    -0.637 OA
ATOM     27  OAG B75 d   1       7.157  26.635  32.521  0.00  0.00    -0.637 OA
ATOM     28  OAA B75 d   1       7.206  27.261  30.041  0.00  0.00    -0.637 OA
ENDBRANCH  24  25
BRANCH  24  29
ATOM     29  PBJ B75 d   1       8.762  29.139  33.650  0.00  0.00     0.310 P 
ATOM     30  OAH B75 d   1      10.290  28.629  33.674  0.00  0.00    -0.637 OA
ATOM     31  OAI B75 d   1       8.772  30.684  34.102  0.00  0.00    -0.637 OA
ATOM     32  OAB B75 d   1       7.881  28.316  34.508  0.00  0.00    -0.637 OA
ENDBRANCH  24  29
BRANCH  24  33
ATOM     33  OAE B75 d   1       7.001  29.823  31.695  0.00  0.00    -0.365 OA
ATOM     34  H19 B75 d   1       7.121  30.725  31.968  0.00  0.00     0.212 HD
ENDBRANCH  24  33
ENDBRANCH  21  24
ENDBRANCH  13  21
ENDBRANCH   6  11
BRANCH   1  35
ATOM     35  NAZ B75 d   1       8.270  37.220  27.522  0.00  0.00    -0.281 N 
ATOM     36  H8  B75 d   1       8.685  37.835  28.192  0.00  0.00     0.179 HD
BRANCH  35  37
ATOM     37  SBK B75 d   1       8.150  37.627  25.947  0.00  0.00     0.263 S 
ATOM     38  OAC B75 d   1       6.763  37.319  25.468  0.00  0.00    -0.200 OA
ATOM     39  OAD B75 d   1       9.142  36.794  25.189  0.00  0.00    -0.200 OA
BRANCH  37  40
ATOM     40  CBE B75 d   1       8.489  39.307  25.597  0.00  0.00     0.080 A 
ATOM     41  CAX B75 d   1       9.056  39.655  24.376  0.00  0.00    -0.050 A 
ATOM     42  CBG B75 d   1       8.999  40.969  23.925  0.00  0.00    -0.025 A 
ATOM     43  H1  B75 d   1       9.545  38.898  23.773  0.00  0.00     0.087 H 
ATOM     44  CAT B75 d   1       9.500  41.299  22.671  0.00  0.00    -0.072 A 
ATOM     45  CBF B75 d   1       8.388  41.943  24.704  0.00  0.00    -0.026 A 
ATOM     46  CAM B75 d   1       9.384  42.602  22.201  0.00  0.00    -0.082 A 
ATOM     47  H2  B75 d   1       9.980  40.542  22.061  0.00  0.00     0.084 H 
ATOM     48  CAL B75 d   1       8.774  43.576  22.982  0.00  0.00    -0.082 A 
ATOM     49  H3  B75 d   1       9.771  42.859  21.222  0.00  0.00     0.083 H 
ATOM     50  CAS B75 d   1       8.275  43.246  24.238  0.00  0.00    -0.072 A 
ATOM     51  H4  B75 d   1       8.687  44.592  22.613  0.00  0.00     0.083 H 
ATOM     52  H5  B75 d   1       7.800  44.004  24.851  0.00  0.00     0.084 H 
ATOM     53  CAU B75 d   1       7.844  41.600  25.938  0.00  0.00    -0.071 A 
ATOM     54  CAR B75 d   1       7.895  40.285  26.385  0.00  0.00    -0.059 A 
ATOM     55  H6  B75 d   1       7.378  42.362  26.553  0.00  0.00     0.084 H 
ATOM     56  H7  B75 d   1       7.472  40.023  27.348  0.00  0.00     0.085 H 
ENDBRANCH  37  40
ENDBRANCH  35  37
ENDBRANCH   1  35
TORSDOF 9
