REMARK  8 active torsions:
REMARK  status: ('A' for Active; 'I' for Inactive)
REMARK    1  A    between atoms: CAX_6  and  CAZ_7 
REMARK    2  A    between atoms: CBA_12  and  CAY_13 
REMARK    3  A    between atoms: CAW_18  and  OAV_19 
REMARK    4  A    between atoms: OAV_19  and  CAU_20 
REMARK    5  A    between atoms: CAU_20  and  CBB_21 
REMARK    6  A    between atoms: CBB_21  and  PBC_22 
REMARK    7  A    between atoms: CBB_21  and  PBD_26 
REMARK    8  A    between atoms: CBB_21  and  OAC_30 
ROOT
ATOM      1  CAY B76 d   1      41.441  38.128  57.547  0.00  0.00    -0.023 A 
ATOM      2  CAS B76 d   1      40.889  39.286  57.003  0.00  0.00    -0.040 A 
ATOM      3  CAP B76 d   1      40.634  37.014  57.767  0.00  0.00    -0.072 A 
ATOM      4  CAK B76 d   1      39.282  37.081  57.446  0.00  0.00    -0.080 A 
ATOM      5  CAM B76 d   1      38.731  38.241  56.907  0.00  0.00    -0.051 A 
ATOM      6  CAW B76 d   1      39.539  39.352  56.680  0.00  0.00     0.069 A 
ATOM      7  H10 B76 d   1      41.522  40.148  56.829  0.00  0.00     0.089 H 
ATOM      8  H11 B76 d   1      41.054  36.106  58.183  0.00  0.00     0.084 H 
ATOM      9  H12 B76 d   1      38.648  36.218  57.618  0.00  0.00     0.083 H 
ATOM     10  H13 B76 d   1      37.675  38.279  56.665  0.00  0.00     0.087 H 
ENDROOT
BRANCH   1  11
ATOM     11  CBA B76 d   1      42.781  38.157  57.916  0.00  0.00    -0.025 A 
ATOM     12  CAT B76 d   1      43.487  39.340  57.695  0.00  0.00    -0.061 A 
ATOM     13  CAZ B76 d   1      44.789  39.487  58.156  0.00  0.00    -0.025 A 
ATOM     14  H6  B76 d   1      43.014  40.154  57.157  0.00  0.00     0.086 H 
ATOM     15  CAQ B76 d   1      45.403  38.437  58.830  0.00  0.00    -0.072 A 
ATOM     16  CAL B76 d   1      44.704  37.249  59.040  0.00  0.00    -0.081 A 
ATOM     17  H7  B76 d   1      46.420  38.542  59.190  0.00  0.00     0.084 H 
ATOM     18  CAR B76 d   1      43.396  37.102  58.587  0.00  0.00    -0.072 A 
ATOM     19  H8  B76 d   1      45.185  36.430  59.562  0.00  0.00     0.083 H 
ATOM     20  H9  B76 d   1      42.860  36.175  58.755  0.00  0.00     0.084 H 
BRANCH  13  21
ATOM     21  CAX B76 d   1      45.413  40.728  57.996  0.00  0.00    -0.026 A 
ATOM     22  CAN B76 d   1      46.643  40.988  58.592  0.00  0.00    -0.072 A 
ATOM     23  CAI B76 d   1      47.211  42.254  58.473  0.00  0.00    -0.082 A 
ATOM     24  H1  B76 d   1      47.156  40.210  59.146  0.00  0.00     0.084 H 
ATOM     25  CAH B76 d   1      46.557  43.255  57.760  0.00  0.00    -0.083 A 
ATOM     26  H2  B76 d   1      48.168  42.461  58.938  0.00  0.00     0.083 H 
ATOM     27  CAJ B76 d   1      45.331  42.993  57.161  0.00  0.00    -0.082 A 
ATOM     28  H3  B76 d   1      47.004  44.239  57.672  0.00  0.00     0.083 H 
ATOM     29  CAO B76 d   1      44.762  41.728  57.280  0.00  0.00    -0.072 A 
ATOM     30  H4  B76 d   1      44.820  43.770  56.604  0.00  0.00     0.083 H 
ATOM     31  H5  B76 d   1      43.806  41.521  56.812  0.00  0.00     0.084 H 
ENDBRANCH  13  21
ENDBRANCH   1  11
BRANCH   6  32
ATOM     32  OAV B76 d   1      39.064  40.458  56.042  0.00  0.00    -0.347 OA
BRANCH  32  33
ATOM     33  CAU B76 d   1      38.748  41.551  56.920  0.00  0.00     0.080 C 
ATOM     34  H14 B76 d   1      39.435  41.561  57.779  0.00  0.00     0.082 H 
ATOM     35  H15 B76 d   1      37.712  41.464  57.280  0.00  0.00     0.082 H 
BRANCH  33  36
ATOM     36  CBB B76 d   1      38.916  42.819  56.095  0.00  0.00     0.306 C 
BRANCH  36  37
ATOM     37  PBC B76 d   1      38.138  44.312  56.906  0.00  0.00     0.312 P 
ATOM     38  OAD B76 d   1      38.403  45.578  55.946  0.00  0.00    -0.637 OA
ATOM     39  OAE B76 d   1      36.548  44.062  56.845  0.00  0.00    -0.637 OA
ATOM     40  OAA B76 d   1      38.635  44.556  58.279  0.00  0.00    -0.637 OA
ENDBRANCH  36  37
BRANCH  36  41
ATOM     41  PBD B76 d   1      40.733  43.128  55.796  0.00  0.00     0.312 P 
ATOM     42  OAF B76 d   1      40.887  44.709  55.527  0.00  0.00    -0.637 OA
ATOM     43  OAG B76 d   1      41.488  42.838  57.189  0.00  0.00    -0.637 OA
ATOM     44  OAB B76 d   1      41.282  42.309  54.691  0.00  0.00    -0.637 OA
ENDBRANCH  36  41
BRANCH  36  45
ATOM     45  OAC B76 d   1      38.256  42.605  54.845  0.00  0.00    -0.363 OA
ATOM     46  H16 B76 d   1      38.636  41.849  54.413  0.00  0.00     0.212 HD
ENDBRANCH  36  45
ENDBRANCH  33  36
ENDBRANCH  32  33
ENDBRANCH   6  32
TORSDOF 8
