REMARK  6 active torsions:
REMARK  status: ('A' for Active; 'I' for Inactive)
REMARK    1  A    between atoms: C5_5  and  C1_1 
REMARK    2  A    between atoms: C2_2  and  N8_8 
REMARK    3  A    between atoms: N8_8  and  C9_9 
REMARK    4  A    between atoms: C9_9  and  C10_10 
REMARK    5  A    between atoms: C19_19  and  C22_22 
REMARK    6  A    between atoms: C25_25  and  C28_28 
ROOT
ATOM      1  C10 A58 d   1       0.907   8.925 -19.802  0.00  0.00    -0.032 A 
ATOM      2  C11 A58 d   1      -0.251   8.452 -19.031  0.00  0.00    -0.068 A 
ATOM      3  C12 A58 d   1      -1.519   9.108 -19.117  0.00  0.00    -0.041 A 
ATOM      4  C13 A58 d   1      -1.666  10.281 -19.998  0.00  0.00     0.002 A 
ATOM      5  C14 A58 d   1      -0.543  10.769 -20.765  0.00  0.00    -0.070 A 
ATOM      6  C15 A58 d   1       0.752  10.095 -20.675  0.00  0.00    -0.074 A 
ATOM      7  C16 A58 d   1      -2.796   8.856 -18.480  0.00  0.00    -0.012 A 
ATOM      8  C17 A58 d   1      -3.705   9.841 -18.953  0.00  0.00     0.006 A 
ATOM      9  C18 A58 d   1      -2.993  10.672 -19.855  0.00  0.00     0.096 A 
ATOM     10  C19 A58 d   1      -5.041  10.391 -18.929  0.00  0.00     0.069 A 
ATOM     11  N20 A58 d   1      -5.086  11.474 -19.774  0.00  0.00    -0.276 N 
ATOM     12  N21 A58 d   1      -3.837  11.612 -20.313  0.00  0.00    -0.173 NA
ATOM     13  H18 A58 d   1      -0.142   7.589 -18.384  0.00  0.00     0.085 H 
ATOM     14  H19 A58 d   1      -0.660  11.634 -21.407  0.00  0.00     0.085 H 
ATOM     15  H20 A58 d   1       1.595  10.459 -21.251  0.00  0.00     0.084 H 
ATOM     16  H21 A58 d   1      -2.693   8.932 -17.387  0.00  0.00     0.047 H 
ATOM     17  H22 A58 d   1      -3.158   7.852 -18.745  0.00  0.00     0.047 H 
ATOM     18  H23 A58 d   1      -5.905  12.069 -19.965  0.00  0.00     0.189 HD
ENDROOT
BRANCH   1  19
ATOM     19  C9  A58 d   1       2.211   8.177 -19.671  0.00  0.00     0.106 C 
ATOM     20  H16 A58 d   1       2.887   8.502 -20.475  0.00  0.00     0.083 H 
ATOM     21  H17 A58 d   1       2.659   8.417 -18.696  0.00  0.00     0.083 H 
BRANCH  19  22
ATOM     22  N8  A58 d   1       2.032   6.712 -19.764  0.00  0.00    -0.067 N 
ATOM     23  H14 A58 d   1       1.908   6.357 -18.829  0.00  0.00     0.277 HD
ATOM     24  H15 A58 d   1       1.199   6.537 -20.303  0.00  0.00     0.277 HD
BRANCH  22  25
ATOM     25  C2  A58 d   1       3.167   5.942 -20.404  0.00  0.00     0.102 C 
ATOM     26  C3  A58 d   1       3.085   4.445 -19.961  0.00  0.00    -0.038 C 
ATOM     27  C4  A58 d   1       4.140   3.535 -20.680  0.00  0.00    -0.060 C 
ATOM     28  H5  A58 d   1       2.079   4.065 -20.193  0.00  0.00     0.036 H 
ATOM     29  H6  A58 d   1       3.257   4.391 -18.876  0.00  0.00     0.036 H 
ATOM     30  C5  A58 d   1       4.163   3.665 -22.241  0.00  0.00    -0.058 C 
ATOM     31  H7  A58 d   1       3.918   2.488 -20.427  0.00  0.00     0.033 H 
ATOM     32  H8  A58 d   1       5.137   3.801 -20.300  0.00  0.00     0.033 H 
ATOM     33  C6  A58 d   1       4.183   5.218 -22.667  0.00  0.00    -0.060 C 
ATOM     34  H9  A58 d   1       5.082   3.198 -22.626  0.00  0.00     0.039 H 
ATOM     35  C7  A58 d   1       3.079   6.066 -21.961  0.00  0.00    -0.038 C 
ATOM     36  H10 A58 d   1       4.032   5.284 -23.755  0.00  0.00     0.033 H 
ATOM     37  H11 A58 d   1       5.166   5.639 -22.407  0.00  0.00     0.033 H 
ATOM     38  H12 A58 d   1       3.205   7.122 -22.243  0.00  0.00     0.036 H 
ATOM     39  H13 A58 d   1       2.091   5.713 -22.292  0.00  0.00     0.036 H 
ATOM     40  H4  A58 d   1       4.125   6.363 -20.067  0.00  0.00     0.084 H 
BRANCH  30  41
ATOM     41  C1  A58 d   1       3.008   2.923 -22.775  0.00  0.00    -0.073 C 
ATOM     42  H1  A58 d   1       3.061   1.875 -22.445  0.00  0.00     0.028 H 
ATOM     43  H2  A58 d   1       3.023   2.962 -23.874  0.00  0.00     0.028 H 
ATOM     44  H3  A58 d   1       2.077   3.377 -22.405  0.00  0.00     0.028 H 
ENDBRANCH  30  41
ENDBRANCH  22  25
ENDBRANCH  19  22
ENDBRANCH   1  19
BRANCH  10  45
ATOM     45  C22 A58 d   1      -6.217   9.879 -18.100  0.00  0.00    -0.007 A 
ATOM     46  C23 A58 d   1      -7.402  10.728 -17.974  0.00  0.00    -0.070 A 
ATOM     47  C24 A58 d   1      -8.554  10.307 -17.184  0.00  0.00    -0.066 A 
ATOM     48  H24 A58 d   1      -7.424  11.688 -18.477  0.00  0.00     0.084 H 
ATOM     49  C25 A58 d   1      -8.544   9.003 -16.492  0.00  0.00     0.040 A 
ATOM     50  H25 A58 d   1      -9.420  10.954 -17.105  0.00  0.00     0.085 H 
ATOM     51  C26 A58 d   1      -7.359   8.146 -16.617  0.00  0.00    -0.066 A 
ATOM     52  C27 A58 d   1      -6.223   8.582 -17.405  0.00  0.00    -0.070 A 
ATOM     53  H26 A58 d   1      -7.333   7.184 -16.118  0.00  0.00     0.085 H 
ATOM     54  H27 A58 d   1      -5.356   7.936 -17.484  0.00  0.00     0.084 H 
BRANCH  49  55
ATOM     55  C28 A58 d   1      -9.696   8.574 -15.694  0.00  0.00     0.209 C 
ATOM     56  O29 A58 d   1     -10.796   9.336 -15.740  0.00  0.00    -0.644 OA
ATOM     57  O30 A58 d   1      -9.648   7.576 -15.024  0.00  0.00    -0.644 OA
ENDBRANCH  49  55
ENDBRANCH  10  45
TORSDOF 6
