REMARK  2 active torsions:
REMARK  status: ('A' for Active; 'I' for Inactive)
REMARK    1  A    between atoms: N7_7  and  C28_28 
REMARK    2  A    between atoms: C28_28  and  C29_29 
ROOT
ATOM      1  C1  85A d   1       3.619  13.766  -3.770  0.00  0.00    -0.021 A 
ATOM      2  C2  85A d   1       2.423  13.446  -2.935  0.00  0.00     0.097 A 
ATOM      3  C3  85A d   1       2.433  13.818  -1.504  0.00  0.00     0.071 A 
ATOM      4  C4  85A d   1       3.628  14.496  -0.969  0.00  0.00    -0.031 A 
ATOM      5  C5  85A d   1       4.742  14.781  -1.803  0.00  0.00     0.062 A 
ATOM      6  C6  85A d   1       4.769  14.432  -3.205  0.00  0.00     0.053 A 
ATOM      7  N7  85A d   1       5.851  14.721  -3.987  0.00  0.00    -0.384 N 
ATOM      8 CL8  85A d   1       6.063  15.566  -1.087  0.00  0.00    -0.082 Cl
ATOM      9  C9  85A d   1      -4.744  10.534  -0.534  0.00  0.00     0.124 C 
ATOM     10  N10 85A d   1      -5.680   9.951  -0.846  0.00  0.00    -0.190 NA
ATOM     11  N11 85A d   1       1.286  13.520  -0.686  0.00  0.00    -0.306 N 
ATOM     12  C12 85A d   1       0.926  14.025   0.596  0.00  0.00     0.326 C 
ATOM     13  N13 85A d   1      -0.279  13.662   1.116  0.00  0.00    -0.292 N 
ATOM     14  O14 85A d   1       1.631  14.777   1.269  0.00  0.00    -0.247 OA
ATOM     15  C15 85A d   1      -1.351  12.881   0.712  0.00  0.00     0.152 A 
ATOM     16  N16 85A d   1      -1.438  12.449  -0.663  0.00  0.00    -0.203 NA
ATOM     17  C17 85A d   1      -2.558  11.666  -1.091  0.00  0.00     0.206 A 
ATOM     18  C18 85A d   1      -3.597  11.316  -0.101  0.00  0.00     0.189 A 
ATOM     19  N19 85A d   1      -3.481  11.744   1.220  0.00  0.00    -0.242 NA
ATOM     20  C20 85A d   1      -2.392  12.505   1.629  0.00  0.00     0.048 A 
ATOM     21  O21 85A d   1       1.239  12.808  -3.394  0.00  0.00    -0.349 OA
ATOM     22  C22 85A d   1       1.366  11.556  -4.042  0.00  0.00     0.026 C 
ATOM     23  C23 85A d   1      -1.542  10.089  -4.405  0.00  0.00    -0.044 C 
ATOM     24  C24 85A d   1      -1.753  10.165  -2.868  0.00  0.00     0.028 C 
ATOM     25  O25 85A d   1      -2.535  11.310  -2.483  0.00  0.00    -0.332 OA
ATOM     26  C26 85A d   1       0.505  11.527  -5.319  0.00  0.00    -0.045 C 
ATOM     27  C27 85A d   1      -0.781  11.447  -4.463  0.00  0.00    -0.061 C 
ATOM     28  H1  85A d   1       3.624  13.493  -4.819  0.00  0.00     0.091 H 
ATOM     29  H2  85A d   1       3.657  14.781   0.076  0.00  0.00     0.089 H 
ATOM     30  H3  85A d   1       6.732  14.230  -3.776  0.00  0.00     0.160 HD
ATOM     31  H4  85A d   1       0.646  12.859  -1.077  0.00  0.00     0.171 HD
ATOM     32  H5  85A d   1      -0.429  14.061   2.021  0.00  0.00     0.172 HD
ATOM     33  H6  85A d   1      -2.326  12.822   2.663  0.00  0.00     0.120 H 
ATOM     34  H7  85A d   1       1.032  10.759  -3.361  0.00  0.00     0.075 H 
ATOM     35  H8  85A d   1       2.420  11.391  -4.311  0.00  0.00     0.075 H 
ATOM     36  H9  85A d   1      -2.483  10.093  -4.974  0.00  0.00     0.036 H 
ATOM     37  H10 85A d   1      -0.927   9.232  -4.718  0.00  0.00     0.036 H 
ATOM     38  H11 85A d   1      -0.770  10.226  -2.378  0.00  0.00     0.075 H 
ATOM     39  H12 85A d   1      -2.272   9.254  -2.536  0.00  0.00     0.075 H 
ATOM     40  H13 85A d   1       0.676  10.645  -5.954  0.00  0.00     0.036 H 
ATOM     41  H14 85A d   1       0.580  12.439  -5.930  0.00  0.00     0.036 H 
ATOM     42  H15 85A d   1      -0.503  11.710  -3.432  0.00  0.00     0.033 H 
ATOM     43  H16 85A d   1      -1.482  12.198  -4.857  0.00  0.00     0.033 H 
ENDROOT
BRANCH   7  44
ATOM     44  C28 85A d   1       5.861  15.651  -5.076  0.00  0.00     0.017 C 
ATOM     45  H17 85A d   1       5.237  16.518  -4.814  0.00  0.00     0.071 H 
ATOM     46  H18 85A d   1       5.450  15.161  -5.971  0.00  0.00     0.071 H 
BRANCH  44  47
ATOM     47  C29 85A d   1       7.257  16.121  -5.370  0.00  0.00    -0.038 A 
ATOM     48  C30 85A d   1       7.981  15.603  -6.474  0.00  0.00    -0.058 A 
ATOM     49  C31 85A d   1       9.295  16.075  -6.709  0.00  0.00     0.002 A 
ATOM     50  H19 85A d   1       7.537  14.860  -7.126  0.00  0.00     0.086 H 
ATOM     51  N32 85A d   1       9.894  17.013  -5.909  0.00  0.00    -0.273 NA
ATOM     52  H20 85A d   1       9.848  15.680  -7.553  0.00  0.00     0.114 H 
ATOM     53  C33 85A d   1       9.191  17.508  -4.848  0.00  0.00     0.002 A 
ATOM     54  C34 85A d   1       7.875  17.091  -4.543  0.00  0.00    -0.058 A 
ATOM     55  H21 85A d   1       9.661  18.251  -4.214  0.00  0.00     0.114 H 
ATOM     56  H22 85A d   1       7.348  17.506  -3.691  0.00  0.00     0.086 H 
ENDBRANCH  44  47
ENDBRANCH   7  44
TORSDOF 2
