REMARK  7 active torsions:
REMARK  status: ('A' for Active; 'I' for Inactive)
REMARK    1  A    between atoms: C1_1  and  C2_2 
REMARK    2  A    between atoms: C2_2  and  C3_3 
REMARK    3  A    between atoms: C6_6  and  N13_13 
REMARK    4  A    between atoms: C7_7  and  C10_10 
REMARK    5  A    between atoms: C8_8  and  C9_9 
REMARK    6  A    between atoms: N13_13  and  S14_14 
REMARK    7  A    between atoms: S14_14  and  C17_17 
ROOT
ATOM      1  C3  F77 d   1      18.175  32.403  15.819  0.00  0.00    -0.051 A 
ATOM      2  C4  F77 d   1      16.776  32.688  16.044  0.00  0.00    -0.074 A 
ATOM      3  C5  F77 d   1      15.879  31.669  16.510  0.00  0.00    -0.055 A 
ATOM      4  C6  F77 d   1      16.349  30.328  16.771  0.00  0.00     0.060 A 
ATOM      5  C7  F77 d   1      17.754  30.017  16.555  0.00  0.00     0.074 A 
ATOM      6  C8  F77 d   1      18.661  31.051  16.075  0.00  0.00    -0.036 A 
ATOM      7  H6  F77 d   1      16.398  33.687  15.858  0.00  0.00     0.084 H 
ATOM      8  H7  F77 d   1      14.834  31.909  16.668  0.00  0.00     0.087 H 
ENDROOT
BRANCH   4   9
ATOM      9  N13 F77 d   1      15.473  29.343  17.222  0.00  0.00    -0.280 N 
ATOM     10  H11 F77 d   1      15.192  28.658  16.550  0.00  0.00     0.179 HD
BRANCH   9  11
ATOM     11  S14 F77 d   1      14.853  29.181  18.726  0.00  0.00     0.263 S 
ATOM     12  O15 F77 d   1      13.954  28.064  18.692  0.00  0.00    -0.200 OA
ATOM     13  O16 F77 d   1      14.285  30.476  19.065  0.00  0.00    -0.200 OA
BRANCH  11  14
ATOM     14  C17 F77 d   1      16.193  28.813  19.801  0.00  0.00     0.080 A 
ATOM     15  C18 F77 d   1      16.684  27.484  19.884  0.00  0.00    -0.057 A 
ATOM     16  C19 F77 d   1      17.769  27.190  20.745  0.00  0.00    -0.044 A 
ATOM     17  H12 F77 d   1      16.231  26.698  19.291  0.00  0.00     0.086 H 
ATOM     18  C20 F77 d   1      18.334  28.237  21.503  0.00  0.00     0.116 A 
ATOM     19  H13 F77 d   1      18.158  26.181  20.820  0.00  0.00     0.088 H 
ATOM     20  C21 F77 d   1      17.856  29.553  21.431  0.00  0.00    -0.044 A 
ATOM     21  F23 F77 d   1      19.351  27.974  22.315  0.00  0.00    -0.206 F 
ATOM     22  C22 F77 d   1      16.776  29.841  20.571  0.00  0.00    -0.057 A 
ATOM     23  H14 F77 d   1      18.309  30.337  22.027  0.00  0.00     0.088 H 
ATOM     24  H15 F77 d   1      16.394  30.853  20.502  0.00  0.00     0.086 H 
ENDBRANCH  11  14
ENDBRANCH   9  11
ENDBRANCH   4   9
BRANCH   5  25
ATOM     25  C10 F77 d   1      18.295  28.665  16.811  0.00  0.00     0.212 C 
ATOM     26  O11 F77 d   1      17.823  27.652  16.071  0.00  0.00    -0.644 OA
ATOM     27  O12 F77 d   1      19.099  28.497  17.675  0.00  0.00    -0.644 OA
ENDBRANCH   5  25
BRANCH   6  28
ATOM     28  C9  F77 d   1      20.156  30.719  15.836  0.00  0.00    -0.050 C 
ATOM     29  H8  F77 d   1      20.678  31.618  15.477  0.00  0.00     0.033 H 
ATOM     30  H9  F77 d   1      20.239  29.922  15.083  0.00  0.00     0.033 H 
ATOM     31  H10 F77 d   1      20.612  30.382  16.779  0.00  0.00     0.033 H 
ENDBRANCH   6  28
BRANCH   1  32
ATOM     32  C2  F77 d   1      19.092  33.511  15.324  0.00  0.00    -0.044 C 
ATOM     33  H4  F77 d   1      19.771  33.092  14.567  0.00  0.00     0.039 H 
ATOM     34  H5  F77 d   1      18.475  34.299  14.867  0.00  0.00     0.039 H 
BRANCH  32  35
ATOM     35  C1  F77 d   1      19.938  34.140  16.448  0.00  0.00    -0.073 C 
ATOM     36  H1  F77 d   1      20.577  34.931  16.027  0.00  0.00     0.028 H 
ATOM     37  H2  F77 d   1      20.569  33.366  16.909  0.00  0.00     0.028 H 
ATOM     38  H3  F77 d   1      19.273  34.573  17.209  0.00  0.00     0.028 H 
ENDBRANCH  32  35
ENDBRANCH   1  32
TORSDOF 7
