REMARK WARNING: 32 MAX_TORS EXCEEDED!!!
REMARK  36 active torsions:
REMARK  status: ('A' for Active; 'I' for Inactive)
REMARK    1  A    between atoms: N_1  and  CA_2 
REMARK    2  A    between atoms: CA_2  and  C_3 
REMARK    3  A    between atoms: CA_2  and  CB_5 
REMARK       I    between atoms: C_3  and  N_6 
REMARK    4  A    between atoms: N_6  and  CA_7 
REMARK    5  A    between atoms: CA_7  and  C_8 
REMARK    6  A    between atoms: CA_7  and  CB_10 
REMARK       I    between atoms: C_8  and  N_14 
REMARK    7  A    between atoms: CB_10  and  CG_11 
REMARK       I    between atoms: CG_11  and  ND2_13 
REMARK    8  A    between atoms: N_14  and  CA_15 
REMARK    9  A    between atoms: CA_15  and  C_16 
REMARK   10  A    between atoms: CA_15  and  CB_18 
REMARK       I    between atoms: C_16  and  N_20 
REMARK   11  A    between atoms: CB_18  and  OG_19 
REMARK   12  A    between atoms: N_20  and  CA_21 
REMARK   13  A    between atoms: CA_21  and  C_22 
REMARK   14  A    between atoms: CA_21  and  CB_24 
REMARK       I    between atoms: C_22  and  N_28 
REMARK   15  A    between atoms: CB_24  and  CG_25 
REMARK       I    between atoms: CG_25  and  ND2_27 
REMARK   16  A    between atoms: N_28  and  CA_29 
REMARK   17  A    between atoms: CA_29  and  C_30 
REMARK   18  A    between atoms: CA_29  and  CB_32 
REMARK       I    between atoms: C_30  and  N_36 
REMARK   19  A    between atoms: CB_32  and  CG_33 
REMARK       I    between atoms: CG_33  and  ND2_35 
REMARK   20  A    between atoms: CA_37  and  C_38 
REMARK       I    between atoms: C_38  and  N_43 
REMARK   21  A    between atoms: N_43  and  CA_44 
REMARK   22  A    between atoms: CA_44  and  C_45 
REMARK   23  A    between atoms: CA_44  and  CB_47 
REMARK       I    between atoms: C_45  and  N_51 
REMARK   24  A    between atoms: CB_47  and  CG_48 
REMARK   25  A    between atoms: N_51  and  CA_52 
REMARK   26  A    between atoms: CA_52  and  C_53 
REMARK   27  A    between atoms: CA_52  and  CB_55 
REMARK       I    between atoms: C_53  and  N_65 
REMARK   28  A    between atoms: CB_55  and  CG_56 
REMARK   29  A    between atoms: N_65  and  CA_66 
REMARK   30  A    between atoms: CA_66  and  C_67 
REMARK   31  A    between atoms: CA_66  and  CB_69 
REMARK       I    between atoms: C_67  and  N_73 
REMARK   32  A    between atoms: CB_69  and  CG_70 
REMARK   33  A    between atoms: N_73  and  CA_74 
REMARK   34  A    between atoms: CA_74  and  C_75 
REMARK   35  A    between atoms: CA_74  and  CB_77 
REMARK   36  A    between atoms: CB_77  and  CG_78 
ROOT
ATOM      1  C   ASN d   1      32.417  -2.362  40.055  0.00  0.00     0.243 C 
ATOM      2  O   ASN d   1      31.530  -1.540  39.848  0.00  0.00    -0.271 OA
ATOM      3  N   PRO d   1      33.480  -2.074  40.816  0.00  0.00    -0.337 N 
ATOM      4  CA  PRO d   1      33.657  -0.788  41.497  0.00  0.00     0.091 C 
ATOM      5  CB  PRO d   1      35.147  -0.792  41.860  0.00  0.00    -0.036 C 
ATOM      6  CG  PRO d   1      35.758  -1.691  40.831  0.00  0.00    -0.048 C 
ATOM      7  CD  PRO d   1      34.752  -2.814  40.781  0.00  0.00    -0.001 C 
ATOM      8  H31 PRO d   1      33.059  -0.800  42.420  0.00  0.00     0.087 H 
ATOM      9  H32 PRO d   1      35.303  -1.191  42.873  0.00  0.00     0.036 H 
ATOM     10  H33 PRO d   1      35.569   0.222  41.796  0.00  0.00     0.036 H 
ATOM     11  H34 PRO d   1      36.748  -2.051  41.148  0.00  0.00     0.035 H 
ATOM     12  H35 PRO d   1      35.846  -1.187  39.858  0.00  0.00     0.035 H 
ATOM     13  H36 PRO d   1      34.850  -3.400  39.855  0.00  0.00     0.064 H 
ATOM     14  H37 PRO d   1      34.852  -3.481  41.650  0.00  0.00     0.064 H 
ENDROOT
BRANCH   4  15
ATOM     15  C   PRO d   1      33.241   0.473  40.725  0.00  0.00     0.241 C 
ATOM     16  O   PRO d   1      32.548   1.335  41.276  0.00  0.00    -0.271 OA
ATOM     17  N   ASP d   1      33.649   0.581  39.459  0.00  0.00    -0.346 N 
ATOM     18  H38 ASP d   1      34.185  -0.157  39.050  0.00  0.00     0.163 HD
BRANCH  17  19
ATOM     19  CA  ASP d   1      33.323   1.766  38.657  0.00  0.00     0.098 C 
ATOM     20  H39 ASP d   1      33.692   2.634  39.222  0.00  0.00     0.088 H 
BRANCH  19  21
ATOM     21  C   ASP d   1      31.829   2.004  38.426  0.00  0.00     0.241 C 
ATOM     22  O   ASP d   1      31.446   2.911  37.689  0.00  0.00    -0.271 OA
ATOM     23  N   TRP d   1      30.993   1.200  39.076  0.00  0.00    -0.346 N 
ATOM     24  H42 TRP d   1      31.368   0.475  39.654  0.00  0.00     0.163 HD
BRANCH  23  25
ATOM     25  CA  TRP d   1      29.545   1.343  38.972  0.00  0.00     0.093 C 
ATOM     26  H43 TRP d   1      29.311   1.861  38.030  0.00  0.00     0.088 H 
BRANCH  25  27
ATOM     27  C   TRP d   1      28.998   2.172  40.135  0.00  0.00     0.241 C 
ATOM     28  O   TRP d   1      27.785   2.262  40.327  0.00  0.00    -0.271 OA
ATOM     29  N   ASP d   1      29.907   2.765  40.910  0.00  0.00    -0.345 N 
ATOM     30  H52 ASP d   1      30.875   2.631  40.699  0.00  0.00     0.163 HD
BRANCH  29  31
ATOM     31  CA  ASP d   1      29.551   3.604  42.056  0.00  0.00     0.098 C 
ATOM     32  H53 ASP d   1      28.457   3.622  42.172  0.00  0.00     0.088 H 
BRANCH  31  33
ATOM     33  C   ASP d   1      30.057   5.021  41.791  0.00  0.00     0.241 C 
ATOM     34  O   ASP d   1      31.264   5.231  41.650  0.00  0.00    -0.271 OA
ATOM     35  N   PHE d   1      29.142   5.991  41.727  0.00  0.00    -0.344 N 
ATOM     36  H56 PHE d   1      28.179   5.767  41.879  0.00  0.00     0.163 HD
BRANCH  35  37
ATOM     37  CA  PHE d   1      29.520   7.378  41.438  0.00  0.00     0.100 C 
ATOM     38  H57 PHE d   1      30.493   7.555  41.920  0.00  0.00     0.090 H 
BRANCH  37  39
ATOM     39  C   PHE d   1      28.560   8.449  41.965  0.00  0.00     0.197 C 
ATOM     40  O   PHE d   1      29.055   9.526  42.376  0.00  0.00    -0.646 OA
ATOM     41  OXT PHE d   1      27.333   8.189  41.956  0.00  0.00    -0.646 OA
ENDBRANCH  37  39
BRANCH  37  42
ATOM     42  CB  PHE d   1      29.697   7.540  39.925  0.00  0.00    -0.013 C 
ATOM     43  H58 PHE d   1      30.680   7.134  39.645  0.00  0.00     0.043 H 
ATOM     44  H59 PHE d   1      29.661   8.613  39.684  0.00  0.00     0.043 H 
BRANCH  42  45
ATOM     45  CG  PHE d   1      28.641   6.833  39.113  0.00  0.00    -0.056 A 
ATOM     46  CD1 PHE d   1      27.368   7.377  38.971  0.00  0.00    -0.077 A 
ATOM     47  CE1 PHE d   1      26.383   6.702  38.265  0.00  0.00    -0.082 A 
ATOM     48  H60 PHE d   1      27.144   8.339  39.417  0.00  0.00     0.084 H 
ATOM     49  CZ  PHE d   1      26.666   5.463  37.689  0.00  0.00    -0.083 A 
ATOM     50  H62 PHE d   1      25.395   7.136  38.161  0.00  0.00     0.083 H 
ATOM     51  CE2 PHE d   1      27.931   4.912  37.822  0.00  0.00    -0.082 A 
ATOM     52  H64 PHE d   1      25.898   4.932  37.138  0.00  0.00     0.083 H 
ATOM     53  CD2 PHE d   1      28.910   5.596  38.529  0.00  0.00    -0.077 A 
ATOM     54  H63 PHE d   1      28.155   3.950  37.375  0.00  0.00     0.083 H 
ATOM     55  H61 PHE d   1      29.898   5.162  38.629  0.00  0.00     0.084 H 
ENDBRANCH  42  45
ENDBRANCH  37  42
ENDBRANCH  35  37
ENDBRANCH  31  33
BRANCH  31  56
ATOM     56  CB  ASP d   1      30.181   3.040  43.334  0.00  0.00     0.043 C 
ATOM     57  H54 ASP d   1      30.189   3.829  44.100  0.00  0.00     0.052 H 
ATOM     58  H55 ASP d   1      31.214   2.734  43.112  0.00  0.00     0.052 H 
BRANCH  56  59
ATOM     59  CG  ASP d   1      29.423   1.837  43.881  0.00  0.00     0.175 C 
ATOM     60  OD1 ASP d   1      30.066   0.937  44.469  0.00  0.00    -0.648 OA
ATOM     61  OD2 ASP d   1      28.179   1.797  43.732  0.00  0.00    -0.648 OA
ENDBRANCH  56  59
ENDBRANCH  31  56
ENDBRANCH  29  31
ENDBRANCH  25  27
BRANCH  25  62
ATOM     62  CB  TRP d   1      28.873  -0.035  38.955  0.00  0.00    -0.012 C 
ATOM     63  H44 TRP d   1      27.831   0.082  39.287  0.00  0.00     0.044 H 
ATOM     64  H45 TRP d   1      29.409  -0.693  39.655  0.00  0.00     0.044 H 
BRANCH  62  65
ATOM     65  CG  TRP d   1      28.871  -0.683  37.600  0.00  0.00    -0.028 A 
ATOM     66  CD1 TRP d   1      29.936  -0.828  36.761  0.00  0.00    -0.015 A 
ATOM     67  NE1 TRP d   1      29.551  -1.473  35.609  0.00  0.00    -0.365 N 
ATOM     68  H46 TRP d   1      30.947  -0.482  36.973  0.00  0.00     0.112 H 
ATOM     69  CE2 TRP d   1      28.214  -1.762  35.687  0.00  0.00     0.042 A 
ATOM     70  H47 TRP d   1      30.168  -1.702  34.816  0.00  0.00     0.165 HD
ATOM     71  CD2 TRP d   1      27.750  -1.276  36.931  0.00  0.00    -0.002 A 
ATOM     72  CZ2 TRP d   1      27.377  -2.406  34.772  0.00  0.00    -0.056 A 
ATOM     73  CE3 TRP d   1      26.399  -1.446  37.262  0.00  0.00    -0.070 A 
ATOM     74  CZ3 TRP d   1      25.564  -2.088  36.352  0.00  0.00    -0.082 A 
ATOM     75  H48 TRP d   1      26.012  -1.085  38.208  0.00  0.00     0.084 H 
ATOM     76  CH2 TRP d   1      26.060  -2.560  35.120  0.00  0.00    -0.081 A 
ATOM     77  H50 TRP d   1      24.517  -2.227  36.594  0.00  0.00     0.083 H 
ATOM     78  H51 TRP d   1      25.385  -3.056  34.432  0.00  0.00     0.083 H 
ATOM     79  H49 TRP d   1      27.755  -2.770  33.823  0.00  0.00     0.086 H 
ENDBRANCH  62  65
ENDBRANCH  25  62
ENDBRANCH  23  25
ENDBRANCH  19  21
BRANCH  19  80
ATOM     80  CB  ASP d   1      34.078   1.738  37.316  0.00  0.00     0.043 C 
ATOM     81  H40 ASP d   1      35.152   1.619  37.522  0.00  0.00     0.052 H 
ATOM     82  H41 ASP d   1      33.907   2.694  36.799  0.00  0.00     0.052 H 
BRANCH  80  83
ATOM     83  CG  ASP d   1      33.636   0.613  36.405  0.00  0.00     0.175 C 
ATOM     84  OD1 ASP d   1      33.408  -0.520  36.889  0.00  0.00    -0.648 OA
ATOM     85  OD2 ASP d   1      33.538   0.865  35.188  0.00  0.00    -0.648 OA
ENDBRANCH  80  83
ENDBRANCH  19  80
ENDBRANCH  17  19
ENDBRANCH   4  15
BRANCH   1  86
ATOM     86  CA  ASN d   1      32.377  -3.755  39.418  0.00  0.00     0.097 C 
ATOM     87  H26 ASN d   1      33.317  -3.922  38.871  0.00  0.00     0.088 H 
BRANCH  86  88
ATOM     88  N   ASN d   1      32.247  -4.768  40.458  0.00  0.00    -0.346 N 
ATOM     89  C   ASN d   1      32.815  -5.966  40.343  0.00  0.00     0.241 C 
ATOM     90  O   ASN d   1      33.484  -6.297  39.366  0.00  0.00    -0.271 OA
ATOM     91  H25 ASN d   1      31.717  -4.557  41.279  0.00  0.00     0.163 HD
BRANCH  89  92
ATOM     92  CA  ASN d   1      32.604  -6.933  41.508  0.00  0.00     0.097 C 
ATOM     93  H20 ASN d   1      33.474  -7.602  41.575  0.00  0.00     0.088 H 
BRANCH  92  94
ATOM     94  N   ASN d   1      32.488  -6.194  42.757  0.00  0.00    -0.345 N 
ATOM     95  C   SER d   1      33.554  -5.628  43.318  0.00  0.00     0.243 C 
ATOM     96  O   SER d   1      34.689  -5.727  42.847  0.00  0.00    -0.271 OA
ATOM     97  H19 ASN d   1      31.595  -6.111  43.200  0.00  0.00     0.163 HD
BRANCH  95  98
ATOM     98  CA  SER d   1      33.317  -4.856  44.613  0.00  0.00     0.109 C 
ATOM     99  H15 SER d   1      33.838  -3.889  44.551  0.00  0.00     0.090 H 
BRANCH  98 100
ATOM    100  N   SER d   1      31.893  -4.606  44.814  0.00  0.00    -0.344 N 
ATOM    101  C   ASN d   1      31.336  -3.411  44.627  0.00  0.00     0.241 C 
ATOM    102  O   ASN d   1      31.967  -2.412  44.275  0.00  0.00    -0.271 OA
ATOM    103  H14 SER d   1      31.311  -5.365  45.105  0.00  0.00     0.163 HD
BRANCH 101 104
ATOM    104  CA  ASN d   1      29.833  -3.346  44.879  0.00  0.00     0.097 C 
ATOM    105  H9  ASN d   1      29.525  -4.322  45.281  0.00  0.00     0.088 H 
BRANCH 104 106
ATOM    106  N   ASN d   1      29.443  -2.334  45.855  0.00  0.00    -0.346 N 
ATOM    107  C   ALA d   1      30.062  -2.232  47.030  0.00  0.00     0.248 C 
ATOM    108  O   ALA d   1      30.993  -2.971  47.361  0.00  0.00    -0.271 OA
ATOM    109  H8  ASN d   1      28.697  -1.705  45.638  0.00  0.00     0.163 HD
BRANCH 107 110
ATOM    110  CA  ALA d   1      29.557  -1.139  47.974  0.00  0.00     0.172 C 
ATOM    111  H4  ALA d   1      28.469  -1.040  47.845  0.00  0.00     0.098 H 
BRANCH 110 112
ATOM    112  N   ALA d   1      29.840  -1.495  49.393  0.00  0.00    -0.067 N 
ATOM    113  H1  ALA d   1      29.500  -0.763  49.997  0.00  0.00     0.275 HD
ATOM    114  H2  ALA d   1      30.834  -1.601  49.521  0.00  0.00     0.275 HD
ATOM    115  H3  ALA d   1      29.377  -2.361  49.621  0.00  0.00     0.275 HD
ENDBRANCH 110 112
BRANCH 110 116
ATOM    116  CB  ALA d   1      30.215   0.194  47.639  0.00  0.00    -0.042 C 
ATOM    117  H5  ALA d   1      30.004   0.454  46.591  0.00  0.00     0.030 H 
ATOM    118  H6  ALA d   1      31.302   0.113  47.785  0.00  0.00     0.030 H 
ATOM    119  H7  ALA d   1      29.814   0.977  48.299  0.00  0.00     0.030 H 
ENDBRANCH 110 116
ENDBRANCH 107 110
ENDBRANCH 104 106
BRANCH 104 120
ATOM    120  CB  ASN d   1      29.096  -3.124  43.555  0.00  0.00     0.036 C 
ATOM    121  H10 ASN d   1      29.152  -2.057  43.295  0.00  0.00     0.051 H 
ATOM    122  H11 ASN d   1      28.043  -3.415  43.685  0.00  0.00     0.051 H 
BRANCH 120 123
ATOM    123  CG  ASN d   1      29.687  -3.934  42.415  0.00  0.00     0.217 C 
ATOM    124  OD1 ASN d   1      30.184  -5.043  42.613  0.00  0.00    -0.274 OA
ATOM    125  ND2 ASN d   1      29.609  -3.390  41.209  0.00  0.00    -0.370 N 
ATOM    126  H12 ASN d   1      29.980  -3.874  40.417  0.00  0.00     0.159 HD
ATOM    127  H13 ASN d   1      29.179  -2.495  41.091  0.00  0.00     0.159 HD
ENDBRANCH 120 123
ENDBRANCH 104 120
ENDBRANCH 101 104
ENDBRANCH  98 100
BRANCH  98 128
ATOM    128  CB  SER d   1      33.890  -5.654  45.788  0.00  0.00     0.044 C 
ATOM    129  H16 SER d   1      33.688  -5.113  46.724  0.00  0.00     0.077 H 
ATOM    130  H17 SER d   1      34.977  -5.762  45.654  0.00  0.00     0.077 H 
BRANCH 128 131
ATOM    131  OG  SER d   1      33.301  -6.942  45.860  0.00  0.00    -0.398 OA
ATOM    132  H18 SER d   1      32.363  -6.854  45.979  0.00  0.00     0.209 HD
ENDBRANCH 128 131
ENDBRANCH  98 128
ENDBRANCH  95  98
ENDBRANCH  92  94
BRANCH  92 133
ATOM    133  CB  ASN d   1      31.353  -7.779  41.260  0.00  0.00     0.036 C 
ATOM    134  H21 ASN d   1      31.325  -8.062  40.197  0.00  0.00     0.051 H 
ATOM    135  H22 ASN d   1      30.466  -7.175  41.503  0.00  0.00     0.051 H 
BRANCH 133 136
ATOM    136  CG  ASN d   1      31.324  -9.044  42.100  0.00  0.00     0.217 C 
ATOM    137  OD1 ASN d   1      32.292  -9.806  42.132  0.00  0.00    -0.274 OA
ATOM    138  ND2 ASN d   1      30.201  -9.283  42.771  0.00  0.00    -0.370 N 
ATOM    139  H23 ASN d   1      30.124 -10.101  43.341  0.00  0.00     0.159 HD
ATOM    140  H24 ASN d   1      29.434  -8.645  42.706  0.00  0.00     0.159 HD
ENDBRANCH 133 136
ENDBRANCH  92 133
ENDBRANCH  89  92
ENDBRANCH  86  88
BRANCH  86 141
ATOM    141  CB  ASN d   1      31.204  -3.869  38.431  0.00  0.00     0.036 C 
ATOM    142  H27 ASN d   1      31.284  -3.057  37.693  0.00  0.00     0.051 H 
ATOM    143  H28 ASN d   1      30.262  -3.765  38.989  0.00  0.00     0.051 H 
BRANCH 141 144
ATOM    144  CG  ASN d   1      31.190  -5.198  37.694  0.00  0.00     0.217 C 
ATOM    145  OD1 ASN d   1      32.098  -5.505  36.917  0.00  0.00    -0.274 OA
ATOM    146  ND2 ASN d   1      30.164  -5.999  37.943  0.00  0.00    -0.370 N 
ATOM    147  H29 ASN d   1      30.101  -6.887  37.487  0.00  0.00     0.159 HD
ATOM    148  H30 ASN d   1      29.453  -5.715  38.587  0.00  0.00     0.159 HD
ENDBRANCH 141 144
ENDBRANCH  86 141
ENDBRANCH   1  86
TORSDOF 36
