REMARK  5 active torsions:
REMARK  status: ('A' for Active; 'I' for Inactive)
REMARK    1  A    between atoms: C10_10  and  C9_11 
REMARK       I    between atoms: C9_11  and  N7_13 
REMARK    2  A    between atoms: N7_13  and  C1_14 
REMARK    3  A    between atoms: C2_19  and  N8_20 
REMARK       I    between atoms: N8_20  and  C20_21 
REMARK    4  A    between atoms: C20_21  and  C21_23 
REMARK    5  A    between atoms: N27_27  and  C30_28 
ROOT
ATOM      1  C1  D92 d   1       5.215   9.190  22.615  0.00  0.00     0.032 C 
ATOM      2  C6  D92 d   1       5.307   9.870  21.207  0.00  0.00    -0.044 C 
ATOM      3  C5  D92 d   1       4.209   9.406  20.205  0.00  0.00    -0.063 C 
ATOM      4  C4  D92 d   1       2.931   8.947  20.956  0.00  0.00    -0.063 C 
ATOM      5  C3  D92 d   1       3.165   7.731  21.936  0.00  0.00    -0.044 C 
ATOM      6  C2  D92 d   1       4.607   7.712  22.518  0.00  0.00     0.032 C 
ATOM      7  H7  D92 d   1       4.552   9.792  23.254  0.00  0.00     0.075 H 
ATOM      8  H8  D92 d   1       6.291   9.636  20.774  0.00  0.00     0.036 H 
ATOM      9  H9  D92 d   1       5.214  10.958  21.342  0.00  0.00     0.036 H 
ATOM     10  H10 D92 d   1       4.597   8.567  19.609  0.00  0.00     0.033 H 
ATOM     11  H11 D92 d   1       3.954  10.243  19.538  0.00  0.00     0.033 H 
ATOM     12  H12 D92 d   1       2.179   8.650  20.210  0.00  0.00     0.033 H 
ATOM     13  H13 D92 d   1       2.551   9.796  21.543  0.00  0.00     0.033 H 
ATOM     14  H14 D92 d   1       2.993   6.795  21.385  0.00  0.00     0.036 H 
ATOM     15  H15 D92 d   1       2.449   7.804  22.768  0.00  0.00     0.036 H 
ATOM     16  H16 D92 d   1       4.563   7.318  23.544  0.00  0.00     0.075 H 
ENDROOT
BRANCH   6  17
ATOM     17  N8  D92 d   1       5.398   6.750  21.700  0.00  0.00    -0.349 N 
ATOM     18  C20 D92 d   1       5.495   5.419  21.881  0.00  0.00     0.277 C 
ATOM     19  O31 D92 d   1       4.937   4.830  22.778  0.00  0.00    -0.265 OA
ATOM     20  H17 D92 d   1       5.913   7.134  20.933  0.00  0.00     0.163 HD
BRANCH  18  21
ATOM     21  C21 D92 d   1       6.390   4.651  20.934  0.00  0.00     0.166 A 
ATOM     22  S25 D92 d   1       6.540   2.929  21.034  0.00  0.00    -0.066 SA
ATOM     23  C24 D92 d   1       7.646   3.017  19.725  0.00  0.00     0.035 A 
ATOM     24  C26 D92 d   1       8.320   1.789  19.118  0.00  0.00     0.114 C 
ATOM     25  C23 D92 d   1       7.853   4.307  19.304  0.00  0.00     0.052 A 
ATOM     26  N27 D92 d   1       8.901   2.093  17.769  0.00  0.00    -0.070 N 
ATOM     27  H18 D92 d   1       7.575   0.987  19.014  0.00  0.00     0.084 H 
ATOM     28  H19 D92 d   1       9.126   1.456  19.788  0.00  0.00     0.084 H 
ATOM     29  C28 D92 d   1       9.574   3.433  17.584  0.00  0.00     0.088 C 
ATOM     30  H20 D92 d   1       8.095   2.132  17.165  0.00  0.00     0.279 HD
ATOM     31  C29 D92 d   1       8.802   4.648  18.163  0.00  0.00    -0.001 C 
ATOM     32  H24 D92 d   1       9.710   3.599  16.505  0.00  0.00     0.076 H 
ATOM     33  H25 D92 d   1      10.557   3.390  18.075  0.00  0.00     0.076 H 
ATOM     34  H26 D92 d   1       8.214   5.101  17.351  0.00  0.00     0.044 H 
ATOM     35  H27 D92 d   1       9.537   5.377  18.534  0.00  0.00     0.044 H 
ATOM     36  N22 D92 d   1       7.146   5.251  19.980  0.00  0.00    -0.239 NA
BRANCH  26  37
ATOM     37  C30 D92 d   1       9.745   1.005  17.217  0.00  0.00     0.067 C 
ATOM     38  H21 D92 d   1      10.131   1.304  16.231  0.00  0.00     0.068 H 
ATOM     39  H22 D92 d   1       9.143   0.091  17.113  0.00  0.00     0.068 H 
ATOM     40  H23 D92 d   1      10.588   0.813  17.898  0.00  0.00     0.068 H 
ENDBRANCH  26  37
ENDBRANCH  18  21
ENDBRANCH   6  17
BRANCH   1  41
ATOM     41  N7  D92 d   1       6.576   9.167  23.222  0.00  0.00    -0.349 N 
ATOM     42  C9  D92 d   1       6.727   8.767  24.479  0.00  0.00     0.268 C 
ATOM     43  O19 D92 d   1       5.774   8.656  25.240  0.00  0.00    -0.266 OA
ATOM     44  H6  D92 d   1       7.371   9.451  22.686  0.00  0.00     0.163 HD
BRANCH  42  45
ATOM     45  C10 D92 d   1       8.116   8.428  24.990  0.00  0.00     0.102 A 
ATOM     46  N11 D92 d   1       8.236   8.027  26.352  0.00  0.00    -0.351 N 
ATOM     47  C12 D92 d   1       9.583   7.916  26.534  0.00  0.00     0.043 A 
ATOM     48  H3  D92 d   1       7.484   7.861  27.036  0.00  0.00     0.166 HD
ATOM     49  C18 D92 d   1      10.240   7.542  27.708  0.00  0.00    -0.055 A 
ATOM     50  C13 D92 d   1      10.293   8.264  25.335  0.00  0.00    -0.005 A 
ATOM     51  C17 D92 d   1      11.624   7.503  27.667  0.00  0.00    -0.060 A 
ATOM     52  H2  D92 d   1       9.692   7.294  28.610  0.00  0.00     0.087 H 
ATOM     53  C16 D92 d   1      12.327   7.837  26.504  0.00  0.00     0.035 A 
ATOM     54  H1  D92 d   1      12.174   7.208  28.553  0.00  0.00     0.086 H 
ATOM     55 CL1  D92 d   1      14.077   7.718  26.568  0.00  0.00    -0.084 Cl
ATOM     56  C15 D92 d   1      11.700   8.225  25.324  0.00  0.00    -0.050 A 
ATOM     57  H4  D92 d   1      12.268   8.485  24.438  0.00  0.00     0.087 H 
ATOM     58  C14 D92 d   1       9.376   8.582  24.338  0.00  0.00    -0.040 A 
ATOM     59  H5  D92 d   1       9.572   8.877  23.308  0.00  0.00     0.088 H 
ENDBRANCH  42  45
ENDBRANCH   1  41
TORSDOF 5
