REMARK WARNING: 32 MAX_TORS EXCEEDED!!!
REMARK  70 active torsions:
REMARK  status: ('A' for Active; 'I' for Inactive)
REMARK    1  A    between atoms: CA_2  and  N_1 
REMARK    2  A    between atoms: CA_2  and  CB_5 
REMARK    3  A    between atoms: C_3  and  CA_2 
REMARK       I    between atoms: N_12  and  C_3 
REMARK    4  A    between atoms: CB_5  and  CG_6 
REMARK    5  A    between atoms: CG_6  and  CD_7 
REMARK    6  A    between atoms: CD_7  and  NE_8 
REMARK       I    between atoms: NE_8  and  CZ_9 
REMARK       I    between atoms: CZ_9  and  NH2_11 
REMARK       I    between atoms: CZ_9  and  NH1_10 
REMARK    7  A    between atoms: CA_13  and  N_12 
REMARK    8  A    between atoms: CA_13  and  CB_16 
REMARK    9  A    between atoms: C_14  and  CA_13 
REMARK       I    between atoms: N_17  and  C_14 
REMARK   10  A    between atoms: CA_18  and  N_17 
REMARK   11  A    between atoms: CA_18  and  CB_21 
REMARK   12  A    between atoms: C_19  and  CA_18 
REMARK       I    between atoms: N_23  and  C_19 
REMARK   13  A    between atoms: CB_21  and  OG_22 
REMARK   14  A    between atoms: CA_24  and  N_23 
REMARK   15  A    between atoms: CA_24  and  CB_27 
REMARK   16  A    between atoms: C_25  and  CA_24 
REMARK       I    between atoms: N_28  and  C_25 
REMARK   17  A    between atoms: CA_29  and  N_28 
REMARK   18  A    between atoms: CA_29  and  CB_32 
REMARK   19  A    between atoms: C_30  and  CA_29 
REMARK       I    between atoms: N_37  and  C_30 
REMARK   20  A    between atoms: CB_32  and  CG_33 
REMARK   21  A    between atoms: CG_33  and  CD_34 
REMARK   22  A    between atoms: CD_34  and  CE_35 
REMARK   23  A    between atoms: CE_35  and  NZ_36 
REMARK   24  A    between atoms: CA_38  and  N_37 
REMARK   25  A    between atoms: CA_38  and  CB_41 
REMARK   26  A    between atoms: C_39  and  CA_38 
REMARK       I    between atoms: N_44  and  C_39 
REMARK   27  A    between atoms: CB_41  and  CG2_43 
REMARK   28  A    between atoms: CB_41  and  OG1_42 
REMARK   29  A    between atoms: CA_45  and  N_44 
REMARK   30  A    between atoms: CA_45  and  CB_48 
REMARK   31  A    between atoms: C_46  and  CA_45 
REMARK       I    between atoms: N_54  and  C_46 
REMARK   32  A    between atoms: CB_48  and  CG_49 
REMARK   33  A    between atoms: CA_55  and  N_54 
REMARK   34  A    between atoms: CA_55  and  CB_58 
REMARK   35  A    between atoms: C_56  and  CA_55 
REMARK       I    between atoms: N_62  and  C_56 
REMARK   36  A    between atoms: CB_58  and  CG_59 
REMARK   37  A    between atoms: CG_59  and  SD_60 
REMARK   38  A    between atoms: SD_60  and  CE_61 
REMARK   39  A    between atoms: CA_63  and  N_62 
REMARK   40  A    between atoms: CA_63  and  CB_66 
REMARK   41  A    between atoms: C_64  and  CA_63 
REMARK       I    between atoms: N_74  and  C_64 
REMARK   42  A    between atoms: CB_66  and  CG_67 
REMARK   43  A    between atoms: CZ_72  and  OH_73 
REMARK   44  A    between atoms: C_76  and  CA_75 
REMARK       I    between atoms: N_81  and  C_76 
REMARK   45  A    between atoms: CA_82  and  N_81 
REMARK   46  A    between atoms: CA_82  and  CB_85 
REMARK   47  A    between atoms: C_83  and  CA_82 
REMARK       I    between atoms: N_88  and  C_83 
REMARK   48  A    between atoms: CB_85  and  CG2_87 
REMARK   49  A    between atoms: CB_85  and  CG1_86 
REMARK   50  A    between atoms: CA_89  and  N_88 
REMARK   51  A    between atoms: CA_89  and  CB_92 
REMARK   52  A    between atoms: C_90  and  CA_89 
REMARK       I    between atoms: N_99  and  C_90 
REMARK   53  A    between atoms: CB_92  and  CG_93 
REMARK   54  A    between atoms: CG_93  and  CD_94 
REMARK   55  A    between atoms: CD_94  and  NE_95 
REMARK       I    between atoms: NE_95  and  CZ_96 
REMARK       I    between atoms: CZ_96  and  NH2_98 
REMARK       I    between atoms: CZ_96  and  NH1_97 
REMARK   56  A    between atoms: CA_100  and  N_99 
REMARK   57  A    between atoms: CA_100  and  CB_103 
REMARK   58  A    between atoms: C_101  and  CA_100 
REMARK       I    between atoms: N_107  and  C_101 
REMARK   59  A    between atoms: CB_103  and  CG_104 
REMARK       I    between atoms: CG_104  and  ND2_106 
REMARK   60  A    between atoms: CA_108  and  N_107 
REMARK   61  A    between atoms: CA_108  and  CB_111 
REMARK   62  A    between atoms: C_109  and  CA_108 
REMARK       I    between atoms: N_119  and  C_109 
REMARK   63  A    between atoms: CB_111  and  CG_112 
REMARK   64  A    between atoms: CZ_117  and  OH_118 
REMARK   65  A    between atoms: CA_120  and  N_119 
REMARK   66  A    between atoms: CA_120  and  CB_123 
REMARK   67  A    between atoms: C_121  and  CA_120 
REMARK       I    between atoms: C_121  and  N_125 
REMARK   68  A    between atoms: CB_123  and  OG_124 
REMARK   69  A    between atoms: CA_126  and  C_127 
REMARK   70  A    between atoms: C_127  and  O1_132 
ROOT
ATOM      1  CA  TYR d   1      47.300  27.770  65.029  0.00  0.00     0.093 C 
ATOM      2  H68 TYR d   1      48.169  28.247  64.553  0.00  0.00     0.088 H 
ENDROOT
BRANCH   1   3
ATOM      3  N   TYR d   1      47.734  26.961  66.144  0.00  0.00    -0.346 N 
ATOM      4  C   MET d   1      49.014  26.707  66.381  0.00  0.00     0.241 C 
ATOM      5  O   MET d   1      49.924  27.109  65.661  0.00  0.00    -0.271 OA
ATOM      6  H67 TYR d   1      47.045  26.579  66.759  0.00  0.00     0.163 HD
BRANCH   4   7
ATOM      7  CA  MET d   1      49.298  25.852  67.599  0.00  0.00     0.090 C 
ATOM      8  H59 MET d   1      48.381  25.306  67.863  0.00  0.00     0.087 H 
BRANCH   7   9
ATOM      9  N   MET d   1      50.347  24.896  67.316  0.00  0.00    -0.346 N 
ATOM     10  C   HIS d   1      50.338  23.722  67.916  0.00  0.00     0.241 C 
ATOM     11  O   HIS d   1      49.442  23.383  68.681  0.00  0.00    -0.271 OA
ATOM     12  H58 MET d   1      51.075  25.125  66.669  0.00  0.00     0.163 HD
BRANCH  10  13
ATOM     13  CA  HIS d   1      51.481  22.784  67.600  0.00  0.00     0.094 C 
ATOM     14  H52 HIS d   1      52.331  23.323  67.156  0.00  0.00     0.088 H 
BRANCH  13  15
ATOM     15  N   HIS d   1      51.857  22.201  68.885  0.00  0.00    -0.346 N 
ATOM     16  C   THR d   1      53.025  22.430  69.486  0.00  0.00     0.243 C 
ATOM     17  O   THR d   1      53.919  23.121  68.985  0.00  0.00    -0.271 OA
ATOM     18  H51 HIS d   1      51.202  21.597  69.339  0.00  0.00     0.163 HD
BRANCH  16  19
ATOM     19  CA  THR d   1      53.209  21.742  70.854  0.00  0.00     0.113 C 
ATOM     20  H45 THR d   1      52.376  21.036  70.985  0.00  0.00     0.091 H 
BRANCH  19  21
ATOM     21  N   THR d   1      54.447  20.979  70.957  0.00  0.00    -0.344 N 
ATOM     22  C   LYS d   1      54.452  19.651  70.896  0.00  0.00     0.241 C 
ATOM     23  O   LYS d   1      53.431  18.987  70.729  0.00  0.00    -0.271 OA
ATOM     24  H44 THR d   1      55.312  21.466  71.076  0.00  0.00     0.163 HD
BRANCH  22  25
ATOM     25  CA  LYS d   1      55.809  18.968  71.031  0.00  0.00     0.089 C 
ATOM     26  H32 LYS d   1      56.232  19.191  72.022  0.00  0.00     0.087 H 
BRANCH  25  27
ATOM     27  N   LYS d   1      55.637  17.531  70.894  0.00  0.00    -0.346 N 
ATOM     28  C   ARG d   1      56.221  16.668  71.716  0.00  0.00     0.240 C 
ATOM     29  O   ARG d   1      56.942  17.012  72.651  0.00  0.00    -0.271 OA
ATOM     30  H31 LYS d   1      55.060  17.181  70.156  0.00  0.00     0.163 HD
BRANCH  28  31
ATOM     31  CA  ARG d   1      55.940  15.193  71.438  0.00  0.00     0.086 C 
ATOM     32  H27 ARG d   1      55.626  15.099  70.388  0.00  0.00     0.086 H 
BRANCH  31  33
ATOM     33  N   ARG d   1      57.119  14.350  71.633  0.00  0.00    -0.346 N 
ATOM     34  C   SER d   1      57.590  13.556  70.673  0.00  0.00     0.243 C 
ATOM     35  O   SER d   1      57.072  13.469  69.555  0.00  0.00    -0.271 OA
ATOM     36  H26 ARG d   1      57.587  14.370  72.516  0.00  0.00     0.163 HD
BRANCH  34  37
ATOM     37  CA  SER d   1      58.819  12.725  71.033  0.00  0.00     0.109 C 
ATOM     38  H22 SER d   1      58.541  12.022  71.832  0.00  0.00     0.090 H 
BRANCH  37  39
ATOM     39  N   SER d   1      59.305  11.950  69.888  0.00  0.00    -0.344 N 
ATOM     40  C   LEU d   1      59.640  10.658  69.971  0.00  0.00     0.240 C 
ATOM     41  O   LEU d   1      59.561   9.995  71.012  0.00  0.00    -0.271 OA
ATOM     42  H21 SER d   1      59.390  12.409  69.004  0.00  0.00     0.163 HD
BRANCH  40  43
ATOM     43  CA  LEU d   1      60.121  10.019  68.666  0.00  0.00     0.086 C 
ATOM     44  H17 LEU d   1      59.379   9.285  68.319  0.00  0.00     0.086 H 
BRANCH  43  45
ATOM     45  N   LEU d   1      60.258  11.085  67.670  0.00  0.00    -0.346 N 
ATOM     46  C   ARG d   1      59.492  11.185  66.579  0.00  0.00     0.248 C 
ATOM     47  O   ARG d   1      58.617  10.363  66.282  0.00  0.00    -0.271 OA
ATOM     48  H16 LEU d   1      60.965  11.777  67.815  0.00  0.00     0.163 HD
BRANCH  46  49
ATOM     49  CA  ARG d   1      59.768  12.389  65.672  0.00  0.00     0.176 C 
ATOM     50  H4  ARG d   1      60.397  12.062  64.831  0.00  0.00     0.099 H 
BRANCH  49  51
ATOM     51  N   ARG d   1      58.506  12.985  65.116  0.00  0.00    -0.067 N 
ATOM     52  H1  ARG d   1      58.736  13.771  64.528  0.00  0.00     0.275 HD
ATOM     53  H2  ARG d   1      57.918  13.294  65.874  0.00  0.00     0.275 HD
ATOM     54  H3  ARG d   1      58.017  12.291  64.573  0.00  0.00     0.275 HD
ENDBRANCH  49  51
BRANCH  49  55
ATOM     55  CB  ARG d   1      60.521  13.424  66.486  0.00  0.00    -0.029 C 
ATOM     56  H5  ARG d   1      61.458  12.966  66.837  0.00  0.00     0.036 H 
ATOM     57  H6  ARG d   1      59.899  13.695  67.352  0.00  0.00     0.036 H 
BRANCH  55  58
ATOM     58  CG  ARG d   1      60.868  14.688  65.747  0.00  0.00    -0.047 C 
ATOM     59  H7  ARG d   1      60.215  15.506  66.085  0.00  0.00     0.035 H 
ATOM     60  H8  ARG d   1      60.733  14.534  64.666  0.00  0.00     0.035 H 
BRANCH  58  61
ATOM     61  CD  ARG d   1      62.296  15.032  66.033  0.00  0.00     0.009 C 
ATOM     62  H9  ARG d   1      62.940  14.252  65.601  0.00  0.00     0.064 H 
ATOM     63  H10 ARG d   1      62.440  15.064  67.123  0.00  0.00     0.064 H 
BRANCH  61  64
ATOM     64  NE  ARG d   1      62.681  16.316  65.475  0.00  0.00    -0.227 N 
ATOM     65  CZ  ARG d   1      63.940  16.713  65.363  0.00  0.00     0.665 C 
ATOM     66  NH2 ARG d   1      64.222  17.911  64.866  0.00  0.00    -0.235 N 
ATOM     67  NH1 ARG d   1      64.914  15.911  65.766  0.00  0.00    -0.235 N 
ATOM     68  H14 ARG d   1      63.461  18.531  64.554  0.00  0.00     0.174 HD
ATOM     69  H15 ARG d   1      65.202  18.221  64.792  0.00  0.00     0.174 HD
ATOM     70  H12 ARG d   1      65.896  16.211  65.683  0.00  0.00     0.174 HD
ATOM     71  H13 ARG d   1      64.690  14.987  66.162  0.00  0.00     0.174 HD
ATOM     72  H11 ARG d   1      61.938  16.950  65.150  0.00  0.00     0.177 HD
ENDBRANCH  61  64
ENDBRANCH  58  61
ENDBRANCH  55  58
ENDBRANCH  49  55
ENDBRANCH  46  49
ENDBRANCH  43  45
BRANCH  43  73
ATOM     73  CB  LEU d   1      61.471   9.304  68.885  0.00  0.00    -0.049 C 
ATOM     74  H18 LEU d   1      61.347   8.509  69.635  0.00  0.00     0.030 H 
ATOM     75  H19 LEU d   1      62.217  10.030  69.240  0.00  0.00     0.030 H 
ATOM     76  H20 LEU d   1      61.811   8.864  67.936  0.00  0.00     0.030 H 
ENDBRANCH  43  73
ENDBRANCH  40  43
ENDBRANCH  37  39
BRANCH  37  77
ATOM     77  CB  SER d   1      59.917  13.648  71.553  0.00  0.00     0.044 C 
ATOM     78  H23 SER d   1      59.500  14.301  72.334  0.00  0.00     0.077 H 
ATOM     79  H24 SER d   1      60.294  14.263  70.723  0.00  0.00     0.077 H 
BRANCH  77  80
ATOM     80  OG  SER d   1      60.984  12.900  72.097  0.00  0.00    -0.398 OA
ATOM     81  H25 SER d   1      61.655  13.493  72.414  0.00  0.00     0.209 HD
ENDBRANCH  77  80
ENDBRANCH  37  77
ENDBRANCH  34  37
ENDBRANCH  31  33
BRANCH  31  82
ATOM     82  CB  ARG d   1      54.797  14.706  72.332  0.00  0.00    -0.049 C 
ATOM     83  H28 ARG d   1      53.915  15.345  72.180  0.00  0.00     0.030 H 
ATOM     84  H29 ARG d   1      55.109  14.757  73.386  0.00  0.00     0.030 H 
ATOM     85  H30 ARG d   1      54.546  13.667  72.073  0.00  0.00     0.030 H 
ENDBRANCH  31  82
ENDBRANCH  28  31
ENDBRANCH  25  27
BRANCH  25  86
ATOM     86  CB  LYS d   1      56.757  19.485  69.952  0.00  0.00    -0.038 C 
ATOM     87  H33 LYS d   1      57.720  18.963  70.055  0.00  0.00     0.036 H 
ATOM     88  H34 LYS d   1      56.906  20.564  70.108  0.00  0.00     0.036 H 
BRANCH  86  89
ATOM     89  CG  LYS d   1      56.246  19.271  68.546  0.00  0.00    -0.061 C 
ATOM     90  H35 LYS d   1      55.200  19.607  68.490  0.00  0.00     0.033 H 
ATOM     91  H36 LYS d   1      56.300  18.199  68.305  0.00  0.00     0.033 H 
BRANCH  89  92
ATOM     92  CD  LYS d   1      57.062  20.040  67.544  0.00  0.00    -0.043 C 
ATOM     93  H37 LYS d   1      58.067  19.598  67.481  0.00  0.00     0.035 H 
ATOM     94  H38 LYS d   1      57.142  21.087  67.871  0.00  0.00     0.035 H 
BRANCH  92  95
ATOM     95  CE  LYS d   1      56.412  19.995  66.174  0.00  0.00     0.080 C 
ATOM     96  H39 LYS d   1      55.385  20.378  66.261  0.00  0.00     0.075 H 
ATOM     97  H40 LYS d   1      56.386  18.950  65.833  0.00  0.00     0.075 H 
BRANCH  95  98
ATOM     98  NZ  LYS d   1      57.134  20.805  65.161  0.00  0.00    -0.079 N 
ATOM     99  H41 LYS d   1      56.658  20.737  64.275  0.00  0.00     0.274 HD
ATOM    100  H42 LYS d   1      58.076  20.460  65.064  0.00  0.00     0.274 HD
ATOM    101  H43 LYS d   1      57.158  21.768  65.456  0.00  0.00     0.274 HD
ENDBRANCH  95  98
ENDBRANCH  92  95
ENDBRANCH  89  92
ENDBRANCH  86  89
ENDBRANCH  25  86
ENDBRANCH  22  25
ENDBRANCH  19  21
BRANCH  19 102
ATOM    102  CB  THR d   1      53.126  22.806  71.990  0.00  0.00     0.060 C 
ATOM    103  H46 THR d   1      53.773  23.658  71.734  0.00  0.00     0.086 H 
BRANCH 102 104
ATOM    104  CG2 THR d   1      51.695  23.294  72.190  0.00  0.00    -0.050 C 
ATOM    105  H48 THR d   1      51.672  24.042  72.996  0.00  0.00     0.031 H 
ATOM    106  H49 THR d   1      51.052  22.444  72.460  0.00  0.00     0.031 H 
ATOM    107  H50 THR d   1      51.329  23.749  71.258  0.00  0.00     0.031 H 
ENDBRANCH 102 104
BRANCH 102 108
ATOM    108  OG1 THR d   1      53.556  22.220  73.221  0.00  0.00    -0.393 OA
ATOM    109  H47 THR d   1      54.447  21.906  73.126  0.00  0.00     0.210 HD
ENDBRANCH 102 108
ENDBRANCH  19 102
ENDBRANCH  16  19
ENDBRANCH  13  15
BRANCH  13 110
ATOM    110  CB  HIS d   1      50.964  21.725  66.624  0.00  0.00     0.002 C 
ATOM    111  H53 HIS d   1      50.774  22.212  65.656  0.00  0.00     0.046 H 
ATOM    112  H54 HIS d   1      50.022  21.321  67.022  0.00  0.00     0.046 H 
BRANCH 110 113
ATOM    113  CG  HIS d   1      51.904  20.583  66.396  0.00  0.00     0.030 A 
ATOM    114  ND1 HIS d   1      52.163  20.079  65.138  0.00  0.00    -0.353 N 
ATOM    115  CE1 HIS d   1      52.980  19.047  65.240  0.00  0.00     0.063 A 
ATOM    116  H55 HIS d   1      51.779  20.450  64.257  0.00  0.00     0.166 HD
ATOM    117  NE2 HIS d   1      53.263  18.864  66.519  0.00  0.00    -0.254 NA
ATOM    118  H57 HIS d   1      53.357  18.448  64.412  0.00  0.00     0.143 H 
ATOM    119  CD2 HIS d   1      52.604  19.813  67.263  0.00  0.00     0.025 A 
ATOM    120  H56 HIS d   1      52.638  19.925  68.346  0.00  0.00     0.117 H 
ENDBRANCH 110 113
ENDBRANCH  13 110
ENDBRANCH  10  13
ENDBRANCH   7   9
BRANCH   7 121
ATOM    121  CB  MET d   1      49.717  26.717  68.791  0.00  0.00    -0.030 C 
ATOM    122  H60 MET d   1      50.725  27.107  68.589  0.00  0.00     0.037 H 
ATOM    123  H61 MET d   1      49.745  26.074  69.683  0.00  0.00     0.037 H 
BRANCH 121 124
ATOM    124  CG  MET d   1      48.815  27.892  69.092  0.00  0.00    -0.021 C 
ATOM    125  H62 MET d   1      48.793  28.041  70.182  0.00  0.00     0.049 H 
ATOM    126  H63 MET d   1      47.803  27.652  68.734  0.00  0.00     0.049 H 
BRANCH 124 127
ATOM    127  SD  MET d   1      49.343  29.451  68.311  0.00  0.00    -0.173 SA
BRANCH 127 128
ATOM    128  CE  MET d   1      50.522  30.109  69.562  0.00  0.00    -0.035 C 
ATOM    129  H64 MET d   1      50.928  31.070  69.213  0.00  0.00     0.041 H 
ATOM    130  H65 MET d   1      51.345  29.393  69.703  0.00  0.00     0.041 H 
ATOM    131  H66 MET d   1      49.998  30.257  70.518  0.00  0.00     0.041 H 
ENDBRANCH 127 128
ENDBRANCH 124 127
ENDBRANCH 121 124
ENDBRANCH   7 121
ENDBRANCH   4   7
ENDBRANCH   1   3
BRANCH   1 132
ATOM    132  CB  TYR d   1      46.569  26.914  64.011  0.00  0.00    -0.014 C 
ATOM    133  H69 TYR d   1      45.888  26.236  64.546  0.00  0.00     0.043 H 
ATOM    134  H70 TYR d   1      47.309  26.324  63.451  0.00  0.00     0.043 H 
BRANCH 132 135
ATOM    135  CG  TYR d   1      45.768  27.730  63.036  0.00  0.00    -0.056 A 
ATOM    136  CD1 TYR d   1      44.393  27.881  63.189  0.00  0.00    -0.074 A 
ATOM    137  CE1 TYR d   1      43.658  28.668  62.305  0.00  0.00    -0.051 A 
ATOM    138  H71 TYR d   1      43.887  27.380  64.007  0.00  0.00     0.084 H 
ATOM    139  CZ  TYR d   1      44.304  29.310  61.260  0.00  0.00     0.065 A 
ATOM    140  H73 TYR d   1      42.587  28.778  62.434  0.00  0.00     0.087 H 
ATOM    141  CE2 TYR d   1      45.665  29.176  61.089  0.00  0.00    -0.051 A 
ATOM    142  CD2 TYR d   1      46.389  28.389  61.974  0.00  0.00    -0.074 A 
ATOM    143  H74 TYR d   1      46.166  29.681  60.271  0.00  0.00     0.087 H 
ATOM    144  H72 TYR d   1      47.459  28.284  61.837  0.00  0.00     0.084 H 
BRANCH 139 145
ATOM    145  OH  TYR d   1      43.589  30.079  60.384  0.00  0.00    -0.361 OA
ATOM    146  H75 TYR d   1      42.672  30.072  60.633  0.00  0.00     0.217 HD
ENDBRANCH 139 145
ENDBRANCH 132 135
ENDBRANCH   1 132
BRANCH   1 147
ATOM    147  C   TYR d   1      46.358  28.824  65.560  0.00  0.00     0.243 C 
ATOM    148  O   TYR d   1      45.346  28.493  66.192  0.00  0.00    -0.271 OA
ATOM    149  N   PRO d   1      46.681  30.111  65.329  0.00  0.00    -0.337 N 
ATOM    150  CA  PRO d   1      45.882  31.267  65.766  0.00  0.00     0.091 C 
ATOM    151  CD  PRO d   1      47.988  30.547  64.803  0.00  0.00    -0.001 C 
ATOM    152  CB  PRO d   1      46.893  32.401  65.751  0.00  0.00    -0.036 C 
ATOM    153  H76 PRO d   1      45.495  31.108  66.783  0.00  0.00     0.087 H 
ATOM    154  CG  PRO d   1      47.777  32.021  64.599  0.00  0.00    -0.048 C 
ATOM    155  H77 PRO d   1      47.460  32.442  66.692  0.00  0.00     0.036 H 
ATOM    156  H78 PRO d   1      46.403  33.370  65.575  0.00  0.00     0.036 H 
ATOM    157  H79 PRO d   1      47.280  32.219  63.638  0.00  0.00     0.035 H 
ATOM    158  H80 PRO d   1      48.732  32.566  64.638  0.00  0.00     0.035 H 
ATOM    159  H81 PRO d   1      48.223  30.043  63.854  0.00  0.00     0.064 H 
ATOM    160  H82 PRO d   1      48.793  30.357  65.528  0.00  0.00     0.064 H 
BRANCH 150 161
ATOM    161  C   PRO d   1      44.711  31.534  64.831  0.00  0.00     0.241 C 
ATOM    162  O   PRO d   1      44.905  31.911  63.684  0.00  0.00    -0.271 OA
ATOM    163  N   VAL d   1      43.492  31.340  65.317  0.00  0.00    -0.346 N 
ATOM    164  H83 VAL d   1      43.378  31.042  66.265  0.00  0.00     0.163 HD
BRANCH 163 165
ATOM    165  CA  VAL d   1      42.317  31.558  64.481  0.00  0.00     0.092 C 
ATOM    166  H84 VAL d   1      42.521  31.186  63.466  0.00  0.00     0.088 H 
BRANCH 165 167
ATOM    167  CB  VAL d   1      41.097  30.820  65.043  0.00  0.00    -0.033 C 
ATOM    168  H85 VAL d   1      40.836  31.252  66.020  0.00  0.00     0.042 H 
BRANCH 167 169
ATOM    169  CG2 VAL d   1      41.431  29.337  65.229  0.00  0.00    -0.071 C 
ATOM    170  H89 VAL d   1      42.287  29.237  65.913  0.00  0.00     0.028 H 
ATOM    171  H90 VAL d   1      41.686  28.893  64.255  0.00  0.00     0.028 H 
ATOM    172  H91 VAL d   1      40.560  28.815  65.653  0.00  0.00     0.028 H 
ENDBRANCH 167 169
BRANCH 167 173
ATOM    173  CG1 VAL d   1      39.923  30.984  64.107  0.00  0.00    -0.071 C 
ATOM    174  H86 VAL d   1      39.051  30.452  64.516  0.00  0.00     0.028 H 
ATOM    175  H87 VAL d   1      40.178  30.566  63.122  0.00  0.00     0.028 H 
ATOM    176  H88 VAL d   1      39.684  32.053  64.002  0.00  0.00     0.028 H 
ENDBRANCH 167 173
ENDBRANCH 165 167
BRANCH 165 177
ATOM    177  C   VAL d   1      42.043  33.043  64.425  0.00  0.00     0.241 C 
ATOM    178  O   VAL d   1      41.169  33.510  63.700  0.00  0.00    -0.271 OA
ATOM    179  N   ARG d   1      42.822  33.766  65.219  0.00  0.00    -0.346 N 
ATOM    180  H92 ARG d   1      43.489  33.280  65.784  0.00  0.00     0.163 HD
BRANCH 179 181
ATOM    181  CA  ARG d   1      42.773  35.219  65.326  0.00  0.00     0.089 C 
ATOM    182  H93 ARG d   1      42.189  35.653  64.501  0.00  0.00     0.087 H 
BRANCH 181 183
ATOM    183  CB  ARG d   1      42.175  35.655  66.673  0.00  0.00    -0.036 C 
ATOM    184  H94 ARG d   1      42.819  35.270  67.477  0.00  0.00     0.036 H 
ATOM    185  H95 ARG d   1      41.172  35.214  66.764  0.00  0.00     0.036 H 
BRANCH 183 186
ATOM    186  CG  ARG d   1      42.049  37.178  66.843  0.00  0.00    -0.048 C 
ATOM    187  H96 ARG d   1      40.999  37.418  67.068  0.00  0.00     0.035 H 
ATOM    188  H97 ARG d   1      42.340  37.659  65.898  0.00  0.00     0.035 H 
BRANCH 186 189
ATOM    189  CD  ARG d   1      42.931  37.745  67.970  0.00  0.00     0.009 C 
ATOM    190  H98 ARG d   1      42.916  38.843  67.904  0.00  0.00     0.064 H 
ATOM    191  H99 ARG d   1      43.959  37.383  67.823  0.00  0.00     0.064 H 
BRANCH 189 192
ATOM    192  NE  ARG d   1      42.490  37.355  69.313  0.00  0.00    -0.227 N 
ATOM    193  CZ  ARG d   1      43.025  37.809  70.446  0.00  0.00     0.665 C 
ATOM    194  NH2 ARG d   1      42.558  37.398  71.619  0.00  0.00    -0.235 N 
ATOM    195  NH1 ARG d   1      44.026  38.675  70.411  0.00  0.00    -0.235 N 
ATOM    196 3H10 ARG d   1      41.780  36.724  71.656  0.00  0.00     0.174 HD
ATOM    197 4H10 ARG d   1      42.974  37.753  72.492  0.00  0.00     0.174 HD
ATOM    198 1H10 ARG d   1      44.437  39.023  71.289  0.00  0.00     0.174 HD
ATOM    199 2H10 ARG d   1      44.394  39.000  69.506  0.00  0.00     0.174 HD
ATOM    200 0H10 ARG d   1      41.712  36.683  69.386  0.00  0.00     0.177 HD
ENDBRANCH 189 192
ENDBRANCH 186 189
ENDBRANCH 183 186
ENDBRANCH 181 183
BRANCH 181 201
ATOM    201  C   ARG d   1      44.232  35.647  65.253  0.00  0.00     0.241 C 
ATOM    202  O   ARG d   1      45.034  35.307  66.129  0.00  0.00    -0.271 OA
ATOM    203  N   ASN d   1      44.581  36.371  64.197  0.00  0.00    -0.346 N 
ATOM    204 5H10 ASN d   1      43.890  36.607  63.514  0.00  0.00     0.163 HD
BRANCH 203 205
ATOM    205  CA  ASN d   1      45.949  36.828  64.015  0.00  0.00     0.097 C 
ATOM    206 6H10 ASN d   1      46.623  35.968  64.138  0.00  0.00     0.088 H 
BRANCH 205 207
ATOM    207  CB  ASN d   1      46.123  37.393  62.610  0.00  0.00     0.036 C 
ATOM    208 7H10 ASN d   1      45.860  36.613  61.880  0.00  0.00     0.051 H 
ATOM    209 8H10 ASN d   1      47.175  37.683  62.474  0.00  0.00     0.051 H 
BRANCH 207 210
ATOM    210  CG  ASN d   1      45.249  38.604  62.363  0.00  0.00     0.217 C 
ATOM    211  ND2 ASN d   1      44.470  38.992  63.367  0.00  0.00    -0.370 N 
ATOM    212 9H10 ASN d   1      43.872  39.786  63.258  0.00  0.00     0.159 HD
ATOM    213 0H11 ASN d   1      44.481  38.490  64.232  0.00  0.00     0.159 HD
ATOM    214  OD1 ASN d   1      45.276  39.187  61.282  0.00  0.00    -0.274 OA
ENDBRANCH 207 210
ENDBRANCH 205 207
BRANCH 205 215
ATOM    215  C   ASN d   1      46.325  37.891  65.044  0.00  0.00     0.241 C 
ATOM    216  O   ASN d   1      45.491  38.337  65.829  0.00  0.00    -0.271 OA
ATOM    217  N   TYR d   1      47.586  38.303  65.021  0.00  0.00    -0.346 N 
ATOM    218 1H11 TYR d   1      48.214  37.912  64.348  0.00  0.00     0.163 HD
BRANCH 217 219
ATOM    219  CA  TYR d   1      48.078  39.308  65.949  0.00  0.00     0.093 C 
ATOM    220 2H11 TYR d   1      47.486  39.261  66.875  0.00  0.00     0.088 H 
BRANCH 219 221
ATOM    221  CB  TYR d   1      49.544  39.021  66.281  0.00  0.00    -0.014 C 
ATOM    222 3H11 TYR d   1      49.870  39.725  67.061  0.00  0.00     0.043 H 
ATOM    223 4H11 TYR d   1      50.145  39.175  65.373  0.00  0.00     0.043 H 
BRANCH 221 224
ATOM    224  CG  TYR d   1      49.776  37.610  66.778  0.00  0.00    -0.056 A 
ATOM    225  CD1 TYR d   1      49.751  36.525  65.902  0.00  0.00    -0.074 A 
ATOM    226  CE1 TYR d   1      49.900  35.222  66.371  0.00  0.00    -0.051 A 
ATOM    227 5H11 TYR d   1      49.614  36.698  64.841  0.00  0.00     0.084 H 
ATOM    228  CZ  TYR d   1      50.077  35.000  67.732  0.00  0.00     0.065 A 
ATOM    229 7H11 TYR d   1      49.878  34.387  65.680  0.00  0.00     0.087 H 
ATOM    230  CE2 TYR d   1      50.110  36.060  68.614  0.00  0.00    -0.051 A 
ATOM    231  CD2 TYR d   1      49.962  37.354  68.137  0.00  0.00    -0.074 A 
ATOM    232 8H11 TYR d   1      50.251  35.883  69.674  0.00  0.00     0.087 H 
ATOM    233 6H11 TYR d   1      49.991  38.183  68.834  0.00  0.00     0.084 H 
BRANCH 228 234
ATOM    234  OH  TYR d   1      50.211  33.723  68.226  0.00  0.00    -0.361 OA
ATOM    235 9H11 TYR d   1      50.169  33.101  67.509  0.00  0.00     0.217 HD
ENDBRANCH 228 234
ENDBRANCH 221 224
ENDBRANCH 219 221
BRANCH 219 236
ATOM    236  C   TYR d   1      47.937  40.698  65.346  0.00  0.00     0.241 C 
ATOM    237  O   TYR d   1      48.745  41.582  65.615  0.00  0.00    -0.271 OA
ATOM    238  N   SER d   1      46.903  40.887  64.533  0.00  0.00    -0.344 N 
ATOM    239 0H12 SER d   1      46.273  40.129  64.365  0.00  0.00     0.163 HD
BRANCH 238 240
ATOM    240  CA  SER d   1      46.661  42.168  63.879  0.00  0.00     0.109 C 
ATOM    241 1H12 SER d   1      45.863  42.026  63.136  0.00  0.00     0.090 H 
BRANCH 240 242
ATOM    242  CB  SER d   1      46.187  43.204  64.908  0.00  0.00     0.044 C 
ATOM    243 2H12 SER d   1      46.161  44.196  64.433  0.00  0.00     0.077 H 
ATOM    244 3H12 SER d   1      46.892  43.220  65.752  0.00  0.00     0.077 H 
BRANCH 242 245
ATOM    245  OG  SER d   1      44.891  42.888  65.392  0.00  0.00    -0.398 OA
ATOM    246 4H12 SER d   1      44.622  43.543  66.025  0.00  0.00     0.209 HD
ENDBRANCH 242 245
ENDBRANCH 240 242
BRANCH 240 247
ATOM    247  C   SER d   1      47.909  42.682  63.145  0.00  0.00     0.245 C 
ATOM    248  O   SER d   1      48.396  43.781  63.423  0.00  0.00    -0.271 OA
ATOM    249  N   PRO d   1      48.436  41.887  62.191  0.00  0.00    -0.336 N 
ATOM    250  CA  PRO d   1      49.624  42.228  61.397  0.00  0.00     0.095 C 
ATOM    251  CD  PRO d   1      47.937  40.553  61.812  0.00  0.00    -0.001 C 
ATOM    252  CB  PRO d   1      49.881  40.951  60.598  0.00  0.00    -0.035 C 
ATOM    253 5H12 PRO d   1      50.471  42.428  62.070  0.00  0.00     0.089 H 
ATOM    254  CG  PRO d   1      48.520  40.376  60.430  0.00  0.00    -0.048 C 
ATOM    255 6H12 PRO d   1      50.534  40.263  61.154  0.00  0.00     0.036 H 
ATOM    256 7H12 PRO d   1      50.335  41.181  59.623  0.00  0.00     0.036 H 
ATOM    257 8H12 PRO d   1      47.941  40.931  59.677  0.00  0.00     0.035 H 
ATOM    258 9H12 PRO d   1      48.566  39.314  60.148  0.00  0.00     0.035 H 
ATOM    259 0H13 PRO d   1      46.837  40.531  61.787  0.00  0.00     0.064 H 
ATOM    260 1H13 PRO d   1      48.304  39.779  62.502  0.00  0.00     0.064 H 
BRANCH 250 261
ATOM    261  C   PRO d   1      49.452  43.446  60.488  0.00  0.00     0.163 C 
ATOM    262  O   PRO d   1      48.342  44.017  60.468  0.00  0.00    -0.648 OA
BRANCH 261 263
ATOM    263  O1  PRO d   1      50.459  43.885  59.738  0.00  0.00    -0.775 OA
ATOM    264 2H13 PRO d   1      50.665  44.781  59.980  0.00  0.00     0.167 HD
ENDBRANCH 261 263
ENDBRANCH 250 261
ENDBRANCH 240 247
ENDBRANCH 238 240
ENDBRANCH 219 236
ENDBRANCH 217 219
ENDBRANCH 205 215
ENDBRANCH 203 205
ENDBRANCH 181 201
ENDBRANCH 179 181
ENDBRANCH 165 177
ENDBRANCH 163 165
ENDBRANCH 150 161
ENDBRANCH   1 147
TORSDOF 70
