REMARK  30 active torsions:
REMARK  status: ('A' for Active; 'I' for Inactive)
REMARK    1  A    between atoms: CA_1  and  CB_2 
REMARK    2  A    between atoms: CA_1  and  C_5 
REMARK    3  A    between atoms: CB_2  and  CG1_3 
REMARK    4  A    between atoms: CB_2  and  CG2_4 
REMARK       I    between atoms: C_5  and  N_7 
REMARK    5  A    between atoms: N_7  and  CA_8 
REMARK    6  A    between atoms: CA_8  and  C_9 
REMARK    7  A    between atoms: CA_8  and  CB_11 
REMARK       I    between atoms: C_9  and  N_17 
REMARK    8  A    between atoms: CB_11  and  CG_12 
REMARK    9  A    between atoms: CA_18  and  C_19 
REMARK       I    between atoms: C_19  and  N_24 
REMARK   10  A    between atoms: N_24  and  CA_25 
REMARK   11  A    between atoms: CA_25  and  C_26 
REMARK   12  A    between atoms: CA_25  and  CB_28 
REMARK       I    between atoms: C_26  and  N_35 
REMARK   13  A    between atoms: CB_28  and  CG_29 
REMARK   14  A    between atoms: N_35  and  CA_36 
REMARK   15  A    between atoms: CA_36  and  C_37 
REMARK   16  A    between atoms: CA_36  and  CB_39 
REMARK       I    between atoms: C_37  and  N_45 
REMARK   17  A    between atoms: CB_39  and  CG_40 
REMARK   18  A    between atoms: N_45  and  CA_46 
REMARK   19  A    between atoms: CA_46  and  CB_47 
REMARK   20  A    between atoms: CA_46  and  CH_54 
REMARK   21  A    between atoms: CB_47  and  CG_48 
REMARK   22  A    between atoms: CH_54  and  OH_55 
REMARK   23  A    between atoms: CH_54  and  CM_56 
REMARK   24  A    between atoms: CM_56  and  C_57 
REMARK       I    between atoms: C_57  and  N_59 
REMARK   25  A    between atoms: N_59  and  CA_60 
REMARK   26  A    between atoms: CA_60  and  C_61 
REMARK   27  A    between atoms: CA_60  and  CB_63 
REMARK       I    between atoms: C_61  and  N_67 
REMARK   28  A    between atoms: CB_63  and  CG_64 
REMARK   29  A    between atoms: CG_64  and  CD1_65 
REMARK   30  A    between atoms: CG_64  and  CD2_66 
ROOT
ATOM      1  CA  HIS d   1       2.604  31.157  16.190  0.00  0.00     0.094 C 
ATOM      2  H34 HIS d   1       2.687  30.558  15.271  0.00  0.00     0.088 H 
ENDROOT
BRANCH   1   3
ATOM      3  N   HIS d   1       3.232  30.414  17.292  0.00  0.00    -0.346 N 
ATOM      4  C   PHE d   1       3.476  29.124  17.206  0.00  0.00     0.241 C 
ATOM      5  O   PHE d   1       3.164  28.433  16.226  0.00  0.00    -0.271 OA
ATOM      6  H33 HIS d   1       3.480  30.902  18.129  0.00  0.00     0.163 HD
BRANCH   4   7
ATOM      7  CA  PHE d   1       4.187  28.505  18.415  0.00  0.00     0.093 C 
ATOM      8  H25 PHE d   1       4.100  29.158  19.296  0.00  0.00     0.088 H 
BRANCH   7   9
ATOM      9  N   PHE d   1       3.599  27.181  18.716  0.00  0.00    -0.346 N 
ATOM     10  C   PRO d   1       3.080  26.811  19.889  0.00  0.00     0.241 C 
ATOM     11  O   PRO d   1       2.993  27.480  20.969  0.00  0.00    -0.271 OA
ATOM     12  H24 PHE d   1       3.590  26.506  17.978  0.00  0.00     0.163 HD
BRANCH  10  13
ATOM     13  CA  PRO d   1       2.530  25.396  19.849  0.00  0.00     0.091 A 
ATOM     14  N   PRO d   1       2.488  24.743  21.163  0.00  0.00    -0.337 N 
ATOM     15  C   HIS d   1       3.605  24.514  21.899  0.00  0.00     0.243 C 
ATOM     16  CD  PRO d   1       1.144  24.350  21.604  0.00  0.00    -0.001 A 
ATOM     17  O   HIS d   1       4.706  24.894  21.472  0.00  0.00    -0.271 OA
ATOM     18  CG  PRO d   1       0.249  24.766  20.472  0.00  0.00    -0.048 A 
ATOM     19  H22 PRO d   1       0.869  24.874  22.532  0.00  0.00     0.064 H 
ATOM     20  H23 PRO d   1       1.089  23.263  21.766  0.00  0.00     0.064 H 
ATOM     21  CB  PRO d   1       1.093  25.417  19.391  0.00  0.00    -0.036 A 
ATOM     22  H20 PRO d   1      -0.261  23.882  20.060  0.00  0.00     0.035 H 
ATOM     23  H21 PRO d   1      -0.500  25.484  20.838  0.00  0.00     0.035 H 
ATOM     24  H18 PRO d   1       0.992  24.856  18.450  0.00  0.00     0.036 H 
ATOM     25  H19 PRO d   1       0.765  26.456  19.236  0.00  0.00     0.036 H 
ATOM     26  H17 PRO d   1       3.145  24.800  19.159  0.00  0.00     0.087 H 
BRANCH  15  27
ATOM     27  CA  HIS d   1       3.489  23.795  23.260  0.00  0.00     0.094 C 
ATOM     28  H11 HIS d   1       2.807  24.376  23.899  0.00  0.00     0.088 H 
BRANCH  27  29
ATOM     29  N   HIS d   1       2.942  22.436  23.103  0.00  0.00    -0.347 N 
ATOM     30  C   IVA d   1       2.124  21.955  24.022  0.00  0.00     0.218 C 
ATOM     31  O   IVA d   1       1.797  22.642  24.986  0.00  0.00    -0.274 OA
ATOM     32  H10 HIS d   1       3.188  21.882  22.307  0.00  0.00     0.163 HD
BRANCH  30  33
ATOM     33  CA  IVA d   1       1.607  20.529  23.814  0.00  0.00     0.012 C 
ATOM     34  H1  IVA d   1       1.756  20.125  22.802  0.00  0.00     0.047 H 
ATOM     35  H2  IVA d   1       1.957  19.797  24.556  0.00  0.00     0.047 H 
BRANCH  33  36
ATOM     36  CB  IVA d   1       0.209  21.102  24.081  0.00  0.00    -0.053 C 
ATOM     37  H3  IVA d   1       0.315  21.894  24.837  0.00  0.00     0.039 H 
BRANCH  36  38
ATOM     38  CG1 IVA d   1      -0.426  21.697  22.823  0.00  0.00    -0.073 C 
ATOM     39  H4  IVA d   1      -1.423  22.093  23.067  0.00  0.00     0.028 H 
ATOM     40  H5  IVA d   1      -0.520  20.915  22.055  0.00  0.00     0.028 H 
ATOM     41  H6  IVA d   1       0.208  22.511  22.442  0.00  0.00     0.028 H 
ENDBRANCH  36  38
BRANCH  36  42
ATOM     42  CG2 IVA d   1      -0.788  20.060  24.595  0.00  0.00    -0.073 C 
ATOM     43  H7  IVA d   1      -0.390  19.590  25.506  0.00  0.00     0.028 H 
ATOM     44  H8  IVA d   1      -0.945  19.291  23.824  0.00  0.00     0.028 H 
ATOM     45  H9  IVA d   1      -1.746  20.550  24.824  0.00  0.00     0.028 H 
ENDBRANCH  36  42
ENDBRANCH  33  36
ENDBRANCH  30  33
ENDBRANCH  27  29
BRANCH  27  46
ATOM     46  CB  HIS d   1       4.857  23.706  23.954  0.00  0.00     0.004 C 
ATOM     47  H12 HIS d   1       5.112  24.699  24.353  0.00  0.00     0.046 H 
ATOM     48  H13 HIS d   1       5.609  23.407  23.209  0.00  0.00     0.046 H 
BRANCH  46  49
ATOM     49  CG  HIS d   1       4.885  22.687  25.116  0.00  0.00     0.053 A 
ATOM     50  ND1 HIS d   1       4.366  22.980  26.380  0.00  0.00    -0.247 NA
ATOM     51  CE1 HIS d   1       4.534  21.920  27.157  0.00  0.00     0.064 A 
ATOM     52  NE2 HIS d   1       5.124  20.977  26.470  0.00  0.00    -0.359 N 
ATOM     53  H15 HIS d   1       4.230  21.846  28.200  0.00  0.00     0.143 H 
ATOM     54  CD2 HIS d   1       5.360  21.410  25.203  0.00  0.00     0.002 A 
ATOM     55  H16 HIS d   1       5.373  20.046  26.834  0.00  0.00     0.166 HD
ATOM     56  H14 HIS d   1       5.839  20.843  24.406  0.00  0.00     0.114 H 
ENDBRANCH  46  49
ENDBRANCH  27  46
ENDBRANCH  15  27
ENDBRANCH  10  13
ENDBRANCH   7   9
BRANCH   7  57
ATOM     57  CB  PHE d   1       5.657  28.365  17.990  0.00  0.00    -0.014 C 
ATOM     58  H26 PHE d   1       5.928  29.250  17.395  0.00  0.00     0.043 H 
ATOM     59  H27 PHE d   1       5.750  27.462  17.368  0.00  0.00     0.043 H 
BRANCH  57  60
ATOM     60  CG  PHE d   1       6.647  28.249  19.148  0.00  0.00    -0.056 A 
ATOM     61  CD1 PHE d   1       6.188  28.221  20.468  0.00  0.00    -0.077 A 
ATOM     62  CE1 PHE d   1       7.103  28.104  21.522  0.00  0.00    -0.082 A 
ATOM     63  H28 PHE d   1       5.126  28.290  20.675  0.00  0.00     0.084 H 
ATOM     64  CZ  PHE d   1       8.475  28.015  21.252  0.00  0.00    -0.083 A 
ATOM     65  H30 PHE d   1       6.750  28.082  22.547  0.00  0.00     0.083 H 
ATOM     66  CE2 PHE d   1       8.933  28.048  19.929  0.00  0.00    -0.082 A 
ATOM     67  H32 PHE d   1       9.182  27.921  22.068  0.00  0.00     0.083 H 
ATOM     68  CD2 PHE d   1       8.019  28.167  18.876  0.00  0.00    -0.077 A 
ATOM     69  H31 PHE d   1       9.995  27.981  19.721  0.00  0.00     0.083 H 
ATOM     70  H29 PHE d   1       8.372  28.196  17.852  0.00  0.00     0.084 H 
ENDBRANCH  57  60
ENDBRANCH   7  57
ENDBRANCH   4   7
ENDBRANCH   1   3
BRANCH   1  71
ATOM     71  C   HIS d   1       3.331  32.481  15.983  0.00  0.00     0.241 C 
ATOM     72  O   HIS d   1       3.020  33.486  16.642  0.00  0.00    -0.271 OA
ATOM     73  N   CHS d   1       4.280  32.409  15.063  0.00  0.00    -0.352 N 
ATOM     74  H40 CHS d   1       4.419  31.536  14.596  0.00  0.00     0.163 HD
BRANCH  73  75
ATOM     75  CA  CHS d   1       5.141  33.541  14.689  0.00  0.00     0.038 C 
ATOM     76  H41 CHS d   1       4.879  34.409  15.312  0.00  0.00     0.076 H 
BRANCH  75  77
ATOM     77  CB  CHS d   1       6.625  33.182  14.880  0.00  0.00    -0.041 C 
ATOM     78  H42 CHS d   1       7.218  34.097  14.732  0.00  0.00     0.036 H 
ATOM     79  H43 CHS d   1       6.897  32.441  14.114  0.00  0.00     0.036 H 
BRANCH  77  80
ATOM     80  CG  CHS d   1       6.986  32.599  16.254  0.00  0.00    -0.052 C 
ATOM     81  CD1 CHS d   1       6.484  33.528  17.370  0.00  0.00    -0.062 C 
ATOM     82  CE1 CHS d   1       6.859  32.968  18.750  0.00  0.00    -0.065 C 
ATOM     83  H45 CHS d   1       5.390  33.617  17.301  0.00  0.00     0.033 H 
ATOM     84  H46 CHS d   1       6.941  34.521  17.247  0.00  0.00     0.033 H 
ATOM     85  CZ  CHS d   1       8.366  32.737  18.826  0.00  0.00    -0.065 C 
ATOM     86  H49 CHS d   1       6.335  32.014  18.911  0.00  0.00     0.033 H 
ATOM     87  H50 CHS d   1       6.561  33.686  19.528  0.00  0.00     0.033 H 
ATOM     88  CE2 CHS d   1       8.800  31.841  17.670  0.00  0.00    -0.065 C 
ATOM     89  H53 CHS d   1       8.615  32.251  19.781  0.00  0.00     0.033 H 
ATOM     90  H54 CHS d   1       8.889  33.702  18.759  0.00  0.00     0.033 H 
ATOM     91  CD2 CHS d   1       8.386  32.470  16.334  0.00  0.00    -0.062 C 
ATOM     92  H51 CHS d   1       9.893  31.721  17.693  0.00  0.00     0.033 H 
ATOM     93  H52 CHS d   1       8.321  30.856  17.773  0.00  0.00     0.033 H 
ATOM     94  H47 CHS d   1       8.845  33.466  16.247  0.00  0.00     0.033 H 
ATOM     95  H48 CHS d   1       8.737  31.831  15.511  0.00  0.00     0.033 H 
ATOM     96  H44 CHS d   1       6.518  31.610  16.367  0.00  0.00     0.040 H 
ENDBRANCH  77  80
ENDBRANCH  75  77
BRANCH  75  97
ATOM     97  CH  CHS d   1       4.987  33.899  13.196  0.00  0.00     0.063 C 
ATOM     98  H55 CHS d   1       5.567  34.811  12.993  0.00  0.00     0.086 H 
BRANCH  97  99
ATOM     99  OH  CHS d   1       5.474  32.838  12.388  0.00  0.00    -0.393 OA
ATOM    100  H56 CHS d   1       6.393  32.690  12.581  0.00  0.00     0.210 HD
ENDBRANCH  97  99
BRANCH  97 101
ATOM    101  CM  CHS d   1       3.522  34.140  12.807  0.00  0.00     0.035 C 
ATOM    102  H57 CHS d   1       2.891  33.383  13.294  0.00  0.00     0.051 H 
ATOM    103  H58 CHS d   1       3.421  34.054  11.715  0.00  0.00     0.051 H 
BRANCH 101 104
ATOM    104  C   CHS d   1       3.061  35.536  13.246  0.00  0.00     0.220 C 
ATOM    105  O   CHS d   1       2.926  35.830  14.435  0.00  0.00    -0.274 OA
ATOM    106  N   LEU d   1       2.823  36.411  12.282  0.00  0.00    -0.348 N 
ATOM    107  H59 LEU d   1       2.993  36.158  11.330  0.00  0.00     0.163 HD
BRANCH 106 108
ATOM    108  CA  LEU d   1       2.309  37.756  12.601  0.00  0.00     0.089 C 
ATOM    109  H60 LEU d   1       2.701  38.075  13.578  0.00  0.00     0.087 H 
BRANCH 108 110
ATOM    110  C   LEU d   1       0.775  37.675  12.653  0.00  0.00     0.238 C 
ATOM    111  O   LEU d   1       0.130  38.221  13.557  0.00  0.00    -0.271 OA
ATOM    112  N   PHE d   1       0.156  37.043  11.775  0.00  0.00    -0.368 N 
ATOM    113  H70 PHE d   1      -0.842  36.989  11.807  0.00  0.00     0.159 HD
ATOM    114  H71 PHE d   1       0.657  36.590  11.038  0.00  0.00     0.159 HD
ENDBRANCH 108 110
BRANCH 108 115
ATOM    115  CB  LEU d   1       2.718  38.780  11.535  0.00  0.00    -0.035 C 
ATOM    116  H61 LEU d   1       1.834  39.392  11.303  0.00  0.00     0.037 H 
ATOM    117  H62 LEU d   1       3.025  38.223  10.637  0.00  0.00     0.037 H 
BRANCH 115 118
ATOM    118  CG  LEU d   1       3.873  39.745  11.909  0.00  0.00    -0.059 C 
ATOM    119  H63 LEU d   1       4.801  39.154  11.921  0.00  0.00     0.038 H 
BRANCH 118 120
ATOM    120  CD1 LEU d   1       4.016  40.895  10.892  0.00  0.00    -0.073 C 
ATOM    121  H64 LEU d   1       4.844  41.552  11.196  0.00  0.00     0.028 H 
ATOM    122  H65 LEU d   1       3.081  41.474  10.859  0.00  0.00     0.028 H 
ATOM    123  H66 LEU d   1       4.225  40.479   9.895  0.00  0.00     0.028 H 
ENDBRANCH 118 120
BRANCH 118 124
ATOM    124  CD2 LEU d   1       3.720  40.441  13.264  0.00  0.00    -0.073 C 
ATOM    125  H67 LEU d   1       3.611  39.684  14.055  0.00  0.00     0.028 H 
ATOM    126  H68 LEU d   1       2.828  41.084  13.247  0.00  0.00     0.028 H 
ATOM    127  H69 LEU d   1       4.611  41.054  13.464  0.00  0.00     0.028 H 
ENDBRANCH 118 124
ENDBRANCH 115 118
ENDBRANCH 108 115
ENDBRANCH 106 108
ENDBRANCH 101 104
ENDBRANCH  97 101
ENDBRANCH  75  97
ENDBRANCH  73  75
ENDBRANCH   1  71
BRANCH   1 128
ATOM    128  CB  HIS d   1       1.125  31.418  16.468  0.00  0.00     0.004 C 
ATOM    129  H35 HIS d   1       1.023  32.389  16.975  0.00  0.00     0.046 H 
ATOM    130  H36 HIS d   1       0.738  30.621  17.120  0.00  0.00     0.046 H 
BRANCH 128 131
ATOM    131  CG  HIS d   1       0.307  31.444  15.176  0.00  0.00     0.053 A 
ATOM    132  ND1 HIS d   1       0.919  31.519  13.928  0.00  0.00    -0.247 NA
ATOM    133  CE1 HIS d   1      -0.025  31.523  13.005  0.00  0.00     0.064 A 
ATOM    134  NE2 HIS d   1      -1.193  31.456  13.591  0.00  0.00    -0.359 N 
ATOM    135  H38 HIS d   1       0.141  31.574  11.930  0.00  0.00     0.143 H 
ATOM    136  CD2 HIS d   1      -1.030  31.405  14.939  0.00  0.00     0.002 A 
ATOM    137  H39 HIS d   1      -2.100  31.444  13.103  0.00  0.00     0.166 HD
ATOM    138  H37 HIS d   1      -1.820  31.345  15.686  0.00  0.00     0.114 H 
ENDBRANCH 128 131
ENDBRANCH   1 128
TORSDOF 30
