REMARK  31 active torsions:
REMARK  status: ('A' for Active; 'I' for Inactive)
REMARK    1  A    between atoms: C_3  and  CA_2 
REMARK       I    between atoms: N_8  and  C_3 
REMARK    2  A    between atoms: CA_9  and  N_8 
REMARK    3  A    between atoms: CA_9  and  CB_12 
REMARK    4  A    between atoms: C_10  and  CA_9 
REMARK       I    between atoms: N_15  and  C_10 
REMARK    5  A    between atoms: CB_12  and  CG2_14 
REMARK    6  A    between atoms: CB_12  and  OG1_13 
REMARK    7  A    between atoms: CA_16  and  N_15 
REMARK    8  A    between atoms: CA_16  and  CB_19 
REMARK    9  A    between atoms: C_17  and  CA_16 
REMARK       I    between atoms: N_24  and  C_17 
REMARK   10  A    between atoms: CB_19  and  CG_20 
REMARK   11  A    between atoms: CG_20  and  CD_21 
REMARK   12  A    between atoms: CA_25  and  N_24 
REMARK   13  A    between atoms: CA_25  and  CB_27 
REMARK   14  A    between atoms: C_26  and  CA_25 
REMARK   15  A    between atoms: N_34  and  C_26 
REMARK   16  A    between atoms: CB_27  and  CG_28 
REMARK   17  A    between atoms: CA_35  and  N_34 
REMARK   18  A    between atoms: CA_35  and  CB_38 
REMARK   19  A    between atoms: C_36  and  CA_35 
REMARK       I    between atoms: N_45  and  C_36 
REMARK   20  A    between atoms: CB_38  and  CG_39 
REMARK   21  A    between atoms: CA_46  and  N_45 
REMARK   22  A    between atoms: CA_46  and  CB_49 
REMARK   23  A    between atoms: C_47  and  CA_46 
REMARK       I    between atoms: C_47  and  N_56 
REMARK   24  A    between atoms: CB_49  and  CG_50 
REMARK   25  A    between atoms: CG_50  and  CD_51 
REMARK   26  A    between atoms: CD_51  and  NE_52 
REMARK       I    between atoms: NE_52  and  CZ_53 
REMARK       I    between atoms: CZ_53  and  NH1_54 
REMARK   27  A    between atoms: N_56  and  CA_57 
REMARK   28  A    between atoms: CA_57  and  CB_60 
REMARK   29  A    between atoms: CA_57  and  C_58 
REMARK   30  A    between atoms: CB_60  and  CG_61 
REMARK   31  A    between atoms: CG_61  and  CD_62 
ROOT
ATOM      1  C   PUK d   1      35.112  -8.914   4.635  0.00  0.00     0.101 C 
ATOM      2  H25 PUK d   1      34.099  -8.485   4.647  0.00  0.00     0.079 H 
ATOM      3  H26 PUK d   1      35.625  -8.670   5.577  0.00  0.00     0.079 H 
ENDROOT
BRANCH   1   4
ATOM      4  CA  PUK d   1      35.897  -8.328   3.464  0.00  0.00     0.039 C 
ATOM      5  H24 PUK d   1      36.866  -8.842   3.383  0.00  0.00     0.075 H 
BRANCH   4   6
ATOM      6  N   PUK d   1      35.144  -8.519   2.217  0.00  0.00    -0.353 N 
ATOM      7  C   GLU d   1      35.289  -9.561   1.461  0.00  0.00     0.240 C 
ATOM      8  O   GLU d   1      36.104 -10.476   1.651  0.00  0.00    -0.271 OA
ATOM      9  H23 PUK d   1      34.491  -7.814   1.940  0.00  0.00     0.163 HD
BRANCH   7  10
ATOM     10  CA  GLU d   1      34.397  -9.550   0.224  0.00  0.00     0.090 C 
ATOM     11  H18 GLU d   1      33.352  -9.369   0.516  0.00  0.00     0.087 H 
BRANCH  10  12
ATOM     12  N   GLU d   1      34.837  -8.488  -0.707  0.00  0.00    -0.346 N 
ATOM     13  C   THR d   1      33.993  -7.664  -1.287  0.00  0.00     0.243 C 
ATOM     14  O   THR d   1      32.765  -7.804  -1.229  0.00  0.00    -0.271 OA
ATOM     15  H17 GLU d   1      35.813  -8.393  -0.902  0.00  0.00     0.163 HD
BRANCH  13  16
ATOM     16  CA  THR d   1      34.632  -6.634  -2.238  0.00  0.00     0.113 C 
ATOM     17  H11 THR d   1      35.446  -7.182  -2.734  0.00  0.00     0.091 H 
BRANCH  16  18
ATOM     18  N   THR d   1      33.664  -6.289  -3.252  0.00  0.00    -0.344 N 
ATOM     19  C   PRO d   1      33.955  -6.223  -4.505  0.00  0.00     0.249 C 
ATOM     20  O   PRO d   1      35.093  -6.410  -5.036  0.00  0.00    -0.271 OA
ATOM     21  H10 THR d   1      32.725  -6.092  -2.969  0.00  0.00     0.163 HD
BRANCH  19  22
ATOM     22  CA  PRO d   1      32.805  -5.860  -5.372  0.00  0.00     0.178 A 
ATOM     23  CB  PRO d   1      32.070  -7.081  -5.895  0.00  0.00    -0.028 A 
ATOM     24  CG  PRO d   1      32.192  -7.071  -7.425  0.00  0.00    -0.040 A 
ATOM     25  H4  PRO d   1      31.011  -7.036  -5.602  0.00  0.00     0.036 H 
ATOM     26  H5  PRO d   1      32.524  -7.996  -5.488  0.00  0.00     0.036 H 
ATOM     27  CD  PRO d   1      32.983  -5.870  -7.830  0.00  0.00     0.083 A 
ATOM     28  H6  PRO d   1      32.705  -7.984  -7.762  0.00  0.00     0.035 H 
ATOM     29  H7  PRO d   1      31.190  -7.025  -7.877  0.00  0.00     0.035 H 
ATOM     30  N   PRO d   1      33.291  -5.206  -6.553  0.00  0.00    -0.062 N 
ATOM     31  H8  PRO d   1      33.906  -6.166  -8.351  0.00  0.00     0.075 H 
ATOM     32  H9  PRO d   1      32.390  -5.211  -8.481  0.00  0.00     0.075 H 
ATOM     33  H1  PRO d   1      34.294  -5.135  -6.476  0.00  0.00     0.278 HD
ATOM     34  H2  PRO d   1      32.890  -4.282  -6.581  0.00  0.00     0.278 HD
ATOM     35  H3  PRO d   1      32.117  -5.208  -4.814  0.00  0.00     0.099 H 
ENDBRANCH  19  22
ENDBRANCH  16  18
BRANCH  16  36
ATOM     36  CB  THR d   1      35.288  -5.347  -1.729  0.00  0.00     0.060 C 
ATOM     37  H12 THR d   1      35.895  -5.583  -0.843  0.00  0.00     0.086 H 
BRANCH  36  38
ATOM     38  CG2 THR d   1      36.158  -4.664  -2.794  0.00  0.00    -0.050 C 
ATOM     39  H14 THR d   1      36.601  -3.749  -2.374  0.00  0.00     0.031 H 
ATOM     40  H15 THR d   1      35.537  -4.404  -3.664  0.00  0.00     0.031 H 
ATOM     41  H16 THR d   1      36.959  -5.349  -3.107  0.00  0.00     0.031 H 
ENDBRANCH  36  38
BRANCH  36  42
ATOM     42  OG1 THR d   1      34.291  -4.384  -1.407  0.00  0.00    -0.393 OA
ATOM     43  H13 THR d   1      33.709  -4.741  -0.746  0.00  0.00     0.210 HD
ENDBRANCH  36  42
ENDBRANCH  16  36
ENDBRANCH  13  16
ENDBRANCH  10  12
BRANCH  10  44
ATOM     44  CB  GLU d   1      34.522 -10.928  -0.442  0.00  0.00    -0.029 C 
ATOM     45  H19 GLU d   1      34.133 -11.688   0.252  0.00  0.00     0.037 H 
ATOM     46  H20 GLU d   1      35.586 -11.124  -0.641  0.00  0.00     0.037 H 
BRANCH  44  47
ATOM     47  CG  GLU d   1      33.752 -11.034  -1.762  0.00  0.00     0.018 C 
ATOM     48  H21 GLU d   1      34.202 -10.341  -2.487  0.00  0.00     0.049 H 
ATOM     49  H22 GLU d   1      32.706 -10.747  -1.582  0.00  0.00     0.049 H 
BRANCH  47  50
ATOM     50  CD  GLU d   1      33.776 -12.448  -2.357  0.00  0.00     0.172 C 
ATOM     51  OE2 GLU d   1      34.790 -12.838  -3.054  0.00  0.00    -0.648 OA
ATOM     52  OE1 GLU d   1      32.784 -13.249  -2.158  0.00  0.00    -0.648 OA
ENDBRANCH  47  50
ENDBRANCH  44  47
ENDBRANCH  10  44
ENDBRANCH   7  10
ENDBRANCH   4   6
BRANCH   4  53
ATOM     53  CB  PUK d   1      36.137  -6.837   3.707  0.00  0.00    -0.021 C 
ATOM     54  H27 PUK d   1      36.730  -6.723   4.626  0.00  0.00     0.043 H 
ATOM     55  H28 PUK d   1      35.163  -6.341   3.835  0.00  0.00     0.043 H 
BRANCH  53  56
ATOM     56  CG  PUK d   1      36.883  -6.157   2.557  0.00  0.00    -0.056 A 
ATOM     57  CD1 PUK d   1      36.639  -4.810   2.264  0.00  0.00    -0.077 A 
ATOM     58  CE1 PUK d   1      37.321  -4.188   1.212  0.00  0.00    -0.082 A 
ATOM     59  H29 PUK d   1      35.922  -4.249   2.852  0.00  0.00     0.084 H 
ATOM     60  CZ  PUK d   1      38.247  -4.913   0.452  0.00  0.00    -0.083 A 
ATOM     61  H31 PUK d   1      37.132  -3.145   0.986  0.00  0.00     0.083 H 
ATOM     62  CE2 PUK d   1      38.491  -6.260   0.745  0.00  0.00    -0.082 A 
ATOM     63  H33 PUK d   1      38.775  -4.431  -0.363  0.00  0.00     0.083 H 
ATOM     64  CD2 PUK d   1      37.809  -6.882   1.797  0.00  0.00    -0.077 A 
ATOM     65  H32 PUK d   1      39.208  -6.821   0.157  0.00  0.00     0.083 H 
ATOM     66  H30 PUK d   1      37.998  -7.925   2.023  0.00  0.00     0.084 H 
ENDBRANCH  53  56
ENDBRANCH   4  53
ENDBRANCH   1   4
BRANCH   1  67
ATOM     67  N   PUK d   1      35.022 -10.355   4.495  0.00  0.00    -0.060 N 
ATOM     68  H34 PUK d   1      34.078 -10.549   4.200  0.00  0.00     0.278 HD
ATOM     69  H35 PUK d   1      35.662 -10.605   3.758  0.00  0.00     0.278 HD
BRANCH  67  70
ATOM     70  CA  PUK d   1      35.299 -11.270   5.602  0.00  0.00     0.181 C 
ATOM     71  H36 PUK d   1      35.160 -10.720   6.545  0.00  0.00     0.100 H 
BRANCH  70  72
ATOM     72  CB  PUK d   1      34.318 -12.448   5.590  0.00  0.00    -0.006 C 
ATOM     73  H37 PUK d   1      33.296 -12.052   5.676  0.00  0.00     0.043 H 
ATOM     74  H38 PUK d   1      34.536 -13.092   6.455  0.00  0.00     0.043 H 
BRANCH  72  75
ATOM     75  CG  PUK d   1      34.404 -13.295   4.321  0.00  0.00    -0.056 A 
ATOM     76  CD1 PUK d   1      33.751 -12.875   3.158  0.00  0.00    -0.077 A 
ATOM     77  CE1 PUK d   1      33.817 -13.655   1.998  0.00  0.00    -0.082 A 
ATOM     78  H39 PUK d   1      33.194 -11.945   3.155  0.00  0.00     0.084 H 
ATOM     79  CZ  PUK d   1      34.536 -14.857   2.002  0.00  0.00    -0.083 A 
ATOM     80  H41 PUK d   1      33.312 -13.329   1.096  0.00  0.00     0.083 H 
ATOM     81  CE2 PUK d   1      35.188 -15.279   3.167  0.00  0.00    -0.082 A 
ATOM     82  H43 PUK d   1      34.588 -15.461   1.103  0.00  0.00     0.083 H 
ATOM     83  CD2 PUK d   1      35.122 -14.498   4.327  0.00  0.00    -0.077 A 
ATOM     84  H42 PUK d   1      35.743 -16.210   3.171  0.00  0.00     0.083 H 
ATOM     85  H40 PUK d   1      35.626 -14.824   5.229  0.00  0.00     0.084 H 
ENDBRANCH  72  75
ENDBRANCH  70  72
BRANCH  70  86
ATOM     86  C   PUK d   1      36.743 -11.755   5.546  0.00  0.00     0.249 C 
ATOM     87  O   PUK d   1      37.310 -11.948   4.460  0.00  0.00    -0.271 OA
ATOM     88  N   ARG d   1      37.265 -11.909   6.744  0.00  0.00    -0.346 N 
ATOM     89  H44 ARG d   1      36.708 -11.656   7.535  0.00  0.00     0.163 HD
BRANCH  88  90
ATOM     90  CA  ARG d   1      38.608 -12.427   6.988  0.00  0.00     0.089 C 
ATOM     91  H45 ARG d   1      39.339 -11.883   6.372  0.00  0.00     0.087 H 
BRANCH  90  92
ATOM     92  CB  ARG d   1      38.943 -12.284   8.472  0.00  0.00    -0.036 C 
ATOM     93  H46 ARG d   1      38.738 -13.243   8.970  0.00  0.00     0.036 H 
ATOM     94  H47 ARG d   1      38.300 -11.502   8.902  0.00  0.00     0.036 H 
BRANCH  92  95
ATOM     95  CG  ARG d   1      40.400 -11.907   8.727  0.00  0.00    -0.048 C 
ATOM     96  H48 ARG d   1      40.470 -10.812   8.809  0.00  0.00     0.035 H 
ATOM     97  H49 ARG d   1      41.006 -12.251   7.876  0.00  0.00     0.035 H 
BRANCH  95  98
ATOM     98  CD  ARG d   1      40.960 -12.528  10.006  0.00  0.00     0.009 C 
ATOM     99  H50 ARG d   1      40.188 -13.172  10.451  0.00  0.00     0.064 H 
ATOM    100  H51 ARG d   1      41.212 -11.719  10.708  0.00  0.00     0.064 H 
BRANCH  98 101
ATOM    101  NE  ARG d   1      42.164 -13.335   9.769  0.00  0.00    -0.227 N 
ATOM    102  CZ  ARG d   1      42.672 -14.201  10.655  0.00  0.00     0.665 C 
ATOM    103  NH2 ARG d   1      43.772 -14.936  10.438  0.00  0.00    -0.235 N 
ATOM    104  NH1 ARG d   1      42.092 -14.390  11.848  0.00  0.00    -0.235 N 
ATOM    105  H55 ARG d   1      44.280 -14.852   9.546  0.00  0.00     0.174 HD
ATOM    106  H56 ARG d   1      44.109 -15.585  11.164  0.00  0.00     0.174 HD
ATOM    107  H53 ARG d   1      42.497 -15.060  12.517  0.00  0.00     0.174 HD
ATOM    108  H54 ARG d   1      41.241 -13.865  12.096  0.00  0.00     0.174 HD
ATOM    109  H52 ARG d   1      42.647 -13.228   8.866  0.00  0.00     0.177 HD
ENDBRANCH  98 101
ENDBRANCH  95  98
ENDBRANCH  92  95
ENDBRANCH  90  92
BRANCH  90 110
ATOM    110  C   ARG d   1      38.647 -13.920   6.670  0.00  0.00     0.241 C 
ATOM    111  O   ARG d   1      37.746 -14.679   7.057  0.00  0.00    -0.271 OA
ATOM    112  N   GLU d   1      39.693 -14.323   6.028  0.00  0.00    -0.345 N 
ATOM    113  H57 GLU d   1      40.360 -13.646   5.717  0.00  0.00     0.163 HD
BRANCH 112 114
ATOM    114  CA  GLU d   1      39.935 -15.743   5.739  0.00  0.00     0.097 C 
ATOM    115  H58 GLU d   1      39.296 -16.350   6.397  0.00  0.00     0.089 H 
BRANCH 114 116
ATOM    116  CB  GLU d   1      39.573 -16.055   4.288  0.00  0.00    -0.028 C 
ATOM    117  H59 GLU d   1      40.404 -16.611   3.830  0.00  0.00     0.037 H 
ATOM    118  H60 GLU d   1      39.425 -15.107   3.751  0.00  0.00     0.037 H 
BRANCH 116 119
ATOM    119  CG  GLU d   1      38.299 -16.891   4.164  0.00  0.00     0.018 C 
ATOM    120  H61 GLU d   1      37.431 -16.228   4.291  0.00  0.00     0.049 H 
ATOM    121  H62 GLU d   1      38.300 -17.651   4.960  0.00  0.00     0.049 H 
BRANCH 119 122
ATOM    122  CD  GLU d   1      38.177 -17.599   2.815  0.00  0.00     0.172 C 
ATOM    123  OE2 GLU d   1      38.216 -16.915   1.722  0.00  0.00    -0.648 OA
ATOM    124  OE1 GLU d   1      38.034 -18.880   2.769  0.00  0.00    -0.648 OA
ENDBRANCH 119 122
ENDBRANCH 116 119
ENDBRANCH 114 116
BRANCH 114 125
ATOM    125  C   GLU d   1      41.395 -16.092   6.023  0.00  0.00     0.196 C 
ATOM    126  O   GLU d   1      41.755 -16.455   7.152  0.00  0.00    -0.646 OA
ATOM    127  OXT GLU d   1      42.238 -16.016   5.116  0.00  0.00    -0.646 OA
ENDBRANCH 114 125
ENDBRANCH 112 114
ENDBRANCH  90 110
ENDBRANCH  88  90
ENDBRANCH  70  86
ENDBRANCH  67  70
ENDBRANCH   1  67
TORSDOF 31
