REMARK WARNING: 32 MAX_TORS EXCEEDED!!!
REMARK  33 active torsions:
REMARK  status: ('A' for Active; 'I' for Inactive)
REMARK    1  A    between atoms: CT1_2  and  OT2_3 
REMARK       I    between atoms: N_8  and  CT1_2 
REMARK    2  A    between atoms: OT2_3  and  CT2_4 
REMARK    3  A    between atoms: CT2_4  and  CT3_5 
REMARK    4  A    between atoms: CT2_4  and  CT4_6 
REMARK    5  A    between atoms: CT2_4  and  CT5_7 
REMARK    6  A    between atoms: CA_9  and  N_8 
REMARK    7  A    between atoms: CA_9  and  CB_12 
REMARK    8  A    between atoms: C_10  and  CA_9 
REMARK       I    between atoms: N_18  and  C_10 
REMARK    9  A    between atoms: CB_12  and  CG_13 
REMARK   10  A    between atoms: C_20  and  CA_19 
REMARK       I    between atoms: N_25  and  C_20 
REMARK   11  A    between atoms: CA_26  and  N_25 
REMARK   12  A    between atoms: CA_26  and  CB_29 
REMARK   13  A    between atoms: C_27  and  CA_26 
REMARK       I    between atoms: N_36  and  C_27 
REMARK   14  A    between atoms: CB_29  and  CG_30 
REMARK   15  A    between atoms: CA_37  and  N_36 
REMARK   16  A    between atoms: CA_37  and  CB_40 
REMARK   17  A    between atoms: C_38  and  CA_37 
REMARK       I    between atoms: N_46  and  C_38 
REMARK   18  A    between atoms: CB_40  and  CG_41 
REMARK   19  A    between atoms: CA_47  and  N_46 
REMARK   20  A    between atoms: CA_47  and  CB_48 
REMARK   21  A    between atoms: CH_52  and  CA_47 
REMARK   22  A    between atoms: CB_48  and  CG_49 
REMARK   23  A    between atoms: CG_49  and  CD1_50 
REMARK   24  A    between atoms: CG_49  and  CD2_51 
REMARK   25  A    between atoms: CH_52  and  OH_53 
REMARK   26  A    between atoms: CM_54  and  CH_52 
REMARK   27  A    between atoms: C_55  and  CM_54 
REMARK       I    between atoms: C_55  and  N_57 
REMARK   28  A    between atoms: N_57  and  CA_58 
REMARK   29  A    between atoms: CA_58  and  CB_61 
REMARK   30  A    between atoms: CA_58  and  C_59 
REMARK       I    between atoms: C_59  and  N_65 
REMARK   31  A    between atoms: CB_61  and  CG_62 
REMARK   32  A    between atoms: CG_62  and  CD1_63 
REMARK   33  A    between atoms: CG_62  and  CD2_64 
ROOT
ATOM      1  N   HIS d   1      34.654  -8.803  -1.047  0.00  0.00    -0.346 N 
ATOM      2  H33 HIS d   1      35.560  -8.765  -1.468  0.00  0.00     0.163 HD
ATOM      3  C   PHE d   1      33.767  -7.964  -1.457  0.00  0.00     0.241 C 
ATOM      4  O   PHE d   1      32.593  -8.003  -1.227  0.00  0.00    -0.271 OA
ENDROOT
BRANCH   3   5
ATOM      5  CA  PHE d   1      34.282  -6.797  -2.338  0.00  0.00     0.093 C 
ATOM      6  H25 PHE d   1      35.310  -6.949  -2.698  0.00  0.00     0.088 H 
BRANCH   5   7
ATOM      7  N   PHE d   1      33.295  -6.663  -3.437  0.00  0.00    -0.346 N 
ATOM      8  C   PRO d   1      33.656  -6.558  -4.688  0.00  0.00     0.241 C 
ATOM      9  O   PRO d   1      34.825  -6.547  -5.036  0.00  0.00    -0.271 OA
ATOM     10  H24 PHE d   1      32.321  -6.653  -3.213  0.00  0.00     0.163 HD
BRANCH   8  11
ATOM     11  CA  PRO d   1      32.494  -6.432  -5.671  0.00  0.00     0.091 C 
ATOM     12  CB  PRO d   1      31.924  -7.796  -5.997  0.00  0.00    -0.036 C 
ATOM     13  CG  PRO d   1      32.550  -8.249  -7.292  0.00  0.00    -0.048 C 
ATOM     14  H18 PRO d   1      30.832  -7.730  -6.110  0.00  0.00     0.036 H 
ATOM     15  H19 PRO d   1      32.167  -8.507  -5.193  0.00  0.00     0.036 H 
ATOM     16  CD  PRO d   1      32.769  -6.965  -8.066  0.00  0.00    -0.001 C 
ATOM     17  H20 PRO d   1      33.506  -8.760  -7.106  0.00  0.00     0.035 H 
ATOM     18  H21 PRO d   1      31.874  -8.923  -7.838  0.00  0.00     0.035 H 
ATOM     19  N   PRO d   1      32.916  -5.987  -6.981  0.00  0.00    -0.337 N 
ATOM     20  H22 PRO d   1      33.678  -7.019  -8.684  0.00  0.00     0.064 H 
ATOM     21  H23 PRO d   1      31.905  -6.729  -8.705  0.00  0.00     0.064 H 
ATOM     22  C   HIS d   1      33.397  -4.776  -7.206  0.00  0.00     0.243 C 
ATOM     23  O   HIS d   1      33.702  -3.988  -6.321  0.00  0.00    -0.271 OA
ATOM     24  H17 PRO d   1      31.730  -5.762  -5.250  0.00  0.00     0.087 H 
BRANCH  22  25
ATOM     25  CA  HIS d   1      33.571  -4.361  -8.675  0.00  0.00     0.097 C 
ATOM     26  H11 HIS d   1      34.204  -5.089  -9.204  0.00  0.00     0.088 H 
BRANCH  25  27
ATOM     27  N   HIS d   1      32.236  -4.297  -9.308  0.00  0.00    -0.323 N 
ATOM     28  CT1 BOC d   1      32.034  -4.698 -10.555  0.00  0.00     0.362 C 
ATOM     29  OT1 BOC d   1      32.944  -4.971 -11.330  0.00  0.00    -0.238 OA
ATOM     30  H10 HIS d   1      31.464  -3.941  -8.781  0.00  0.00     0.165 HD
BRANCH  28  31
ATOM     31  OT2 BOC d   1      30.657  -4.768 -10.889  0.00  0.00    -0.294 OA
BRANCH  31  32
ATOM     32  CT2 BOC d   1      30.447  -5.275 -12.193  0.00  0.00     0.061 C 
BRANCH  32  33
ATOM     33  CT3 BOC d   1      30.875  -4.220 -13.228  0.00  0.00    -0.048 C 
ATOM     34  H1  BOC d   1      30.712  -4.614 -14.242  0.00  0.00     0.031 H 
ATOM     35  H2  BOC d   1      31.941  -3.985 -13.093  0.00  0.00     0.031 H 
ATOM     36  H3  BOC d   1      30.278  -3.307 -13.089  0.00  0.00     0.031 H 
ENDBRANCH  32  33
BRANCH  32  37
ATOM     37  CT4 BOC d   1      28.940  -5.571 -12.368  0.00  0.00    -0.048 C 
ATOM     38  H4  BOC d   1      28.759  -5.967 -13.378  0.00  0.00     0.031 H 
ATOM     39  H5  BOC d   1      28.366  -4.643 -12.229  0.00  0.00     0.031 H 
ATOM     40  H6  BOC d   1      28.623  -6.314 -11.621  0.00  0.00     0.031 H 
ENDBRANCH  32  37
BRANCH  32  41
ATOM     41  CT5 BOC d   1      31.239  -6.571 -12.403  0.00  0.00    -0.048 C 
ATOM     42  H7  BOC d   1      31.062  -6.948 -13.421  0.00  0.00     0.031 H 
ATOM     43  H8  BOC d   1      30.911  -7.324 -11.671  0.00  0.00     0.031 H 
ATOM     44  H9  BOC d   1      32.312  -6.371 -12.267  0.00  0.00     0.031 H 
ENDBRANCH  32  41
ENDBRANCH  31  32
ENDBRANCH  28  31
ENDBRANCH  25  27
BRANCH  25  45
ATOM     45  CB  HIS d   1      34.224  -2.972  -8.711  0.00  0.00     0.002 C 
ATOM     46  H12 HIS d   1      35.304  -3.078  -8.529  0.00  0.00     0.046 H 
ATOM     47  H13 HIS d   1      33.779  -2.346  -7.924  0.00  0.00     0.046 H 
BRANCH  45  48
ATOM     48  CG  HIS d   1      34.010  -2.298 -10.064  0.00  0.00     0.030 A 
ATOM     49  ND1 HIS d   1      32.945  -1.482 -10.429  0.00  0.00    -0.353 N 
ATOM     50  CE1 HIS d   1      33.142  -1.077 -11.750  0.00  0.00     0.063 A 
ATOM     51  H14 HIS d   1      32.149  -1.222  -9.829  0.00  0.00     0.166 HD
ATOM     52  NE2 HIS d   1      34.338  -1.641 -12.201  0.00  0.00    -0.254 NA
ATOM     53  H16 HIS d   1      32.480  -0.434 -12.328  0.00  0.00     0.143 H 
ATOM     54  CD2 HIS d   1      34.875  -2.395 -11.158  0.00  0.00     0.025 A 
ATOM     55  H15 HIS d   1      35.805  -2.960 -11.190  0.00  0.00     0.117 H 
ENDBRANCH  45  48
ENDBRANCH  25  45
ENDBRANCH  22  25
ENDBRANCH   8  11
ENDBRANCH   5   7
BRANCH   5  56
ATOM     56  CB  PHE d   1      34.121  -5.509  -1.465  0.00  0.00    -0.014 C 
ATOM     57  H26 PHE d   1      34.535  -5.685  -0.461  0.00  0.00     0.043 H 
ATOM     58  H27 PHE d   1      33.056  -5.246  -1.381  0.00  0.00     0.043 H 
BRANCH  56  59
ATOM     59  CG  PHE d   1      34.883  -4.372  -2.148  0.00  0.00    -0.056 A 
ATOM     60  CD1 PHE d   1      34.245  -3.560  -3.074  0.00  0.00    -0.077 A 
ATOM     61  CE1 PHE d   1      34.946  -2.529  -3.689  0.00  0.00    -0.082 A 
ATOM     62  H28 PHE d   1      33.202  -3.729  -3.317  0.00  0.00     0.084 H 
ATOM     63  CZ  PHE d   1      36.283  -2.321  -3.367  0.00  0.00    -0.083 A 
ATOM     64  H30 PHE d   1      34.454  -1.891  -4.415  0.00  0.00     0.083 H 
ATOM     65  CE2 PHE d   1      36.926  -3.130  -2.442  0.00  0.00    -0.082 A 
ATOM     66  H32 PHE d   1      36.830  -1.516  -3.845  0.00  0.00     0.083 H 
ATOM     67  CD2 PHE d   1      36.221  -4.167  -1.824  0.00  0.00    -0.077 A 
ATOM     68  H31 PHE d   1      37.969  -2.959  -2.200  0.00  0.00     0.083 H 
ATOM     69  H29 PHE d   1      36.712  -4.806  -1.099  0.00  0.00     0.084 H 
ENDBRANCH  56  59
ENDBRANCH   5  56
ENDBRANCH   3   5
BRANCH   1  70
ATOM     70  CA  HIS d   1      34.425  -9.819   0.004  0.00  0.00     0.094 C 
ATOM     71  H34 HIS d   1      33.464  -9.622   0.502  0.00  0.00     0.088 H 
BRANCH  70  72
ATOM     72  CB  HIS d   1      34.365 -11.173  -0.657  0.00  0.00     0.002 C 
ATOM     73  H35 HIS d   1      35.242 -11.271  -1.314  0.00  0.00     0.046 H 
ATOM     74  H36 HIS d   1      33.447 -11.216  -1.262  0.00  0.00     0.046 H 
BRANCH  72  75
ATOM     75  CG  HIS d   1      34.357 -12.351   0.292  0.00  0.00     0.030 A 
ATOM     76  ND1 HIS d   1      33.900 -12.385   1.595  0.00  0.00    -0.353 N 
ATOM     77  CE1 HIS d   1      34.089 -13.683   2.085  0.00  0.00     0.063 A 
ATOM     78  H37 HIS d   1      33.492 -11.595   2.115  0.00  0.00     0.166 HD
ATOM     79  NE2 HIS d   1      34.652 -14.427   1.078  0.00  0.00    -0.254 NA
ATOM     80  H39 HIS d   1      33.836 -14.038   3.083  0.00  0.00     0.143 H 
ATOM     81  CD2 HIS d   1      34.832 -13.632  -0.045  0.00  0.00     0.025 A 
ATOM     82  H38 HIS d   1      35.257 -13.939  -0.999  0.00  0.00     0.117 H 
ENDBRANCH  72  75
ENDBRANCH  70  72
BRANCH  70  83
ATOM     83  C   HIS d   1      35.540  -9.732   1.043  0.00  0.00     0.241 C 
ATOM     84  O   HIS d   1      36.608 -10.291   0.883  0.00  0.00    -0.271 OA
ATOM     85  N   STA d   1      35.266  -9.011   2.123  0.00  0.00    -0.352 N 
ATOM     86  H40 STA d   1      34.351  -8.619   2.215  0.00  0.00     0.163 HD
BRANCH  85  87
ATOM     87  CA  STA d   1      36.240  -8.763   3.185  0.00  0.00     0.037 C 
ATOM     88  H41 STA d   1      37.107  -9.405   2.969  0.00  0.00     0.076 H 
BRANCH  87  89
ATOM     89  CB  STA d   1      36.749  -7.372   3.211  0.00  0.00    -0.041 C 
ATOM     90  H42 STA d   1      37.606  -7.353   3.901  0.00  0.00     0.036 H 
ATOM     91  H43 STA d   1      35.943  -6.739   3.610  0.00  0.00     0.036 H 
BRANCH  89  92
ATOM     92  CG  STA d   1      37.204  -6.751   1.920  0.00  0.00    -0.059 C 
ATOM     93  H44 STA d   1      36.438  -6.962   1.159  0.00  0.00     0.038 H 
BRANCH  92  94
ATOM     94  CD1 STA d   1      37.372  -5.244   2.054  0.00  0.00    -0.073 C 
ATOM     95  H45 STA d   1      37.705  -4.825   1.093  0.00  0.00     0.028 H 
ATOM     96  H46 STA d   1      38.122  -5.026   2.828  0.00  0.00     0.028 H 
ATOM     97  H47 STA d   1      36.410  -4.792   2.338  0.00  0.00     0.028 H 
ENDBRANCH  92  94
BRANCH  92  98
ATOM     98  CD2 STA d   1      38.574  -7.300   1.415  0.00  0.00    -0.073 C 
ATOM     99  H48 STA d   1      38.511  -8.392   1.299  0.00  0.00     0.028 H 
ATOM    100  H49 STA d   1      39.359  -7.053   2.145  0.00  0.00     0.028 H 
ATOM    101  H50 STA d   1      38.818  -6.842   0.445  0.00  0.00     0.028 H 
ENDBRANCH  92  98
ENDBRANCH  89  92
ENDBRANCH  87  89
BRANCH  87 102
ATOM    102  CH  STA d   1      35.695  -9.200   4.553  0.00  0.00     0.063 C 
ATOM    103  H51 STA d   1      36.470  -9.003   5.308  0.00  0.00     0.086 H 
BRANCH 102 104
ATOM    104  OH  STA d   1      34.545  -8.480   4.900  0.00  0.00    -0.393 OA
ATOM    105  H52 STA d   1      34.753  -7.554   4.940  0.00  0.00     0.210 HD
ENDBRANCH 102 104
BRANCH 102 106
ATOM    106  CM  STA d   1      35.374 -10.703   4.564  0.00  0.00     0.035 C 
ATOM    107  H53 STA d   1      34.897 -10.977   3.612  0.00  0.00     0.051 H 
ATOM    108  H54 STA d   1      34.686 -10.919   5.395  0.00  0.00     0.051 H 
BRANCH 106 109
ATOM    109  C   STA d   1      36.638 -11.522   4.740  0.00  0.00     0.220 C 
ATOM    110  O   STA d   1      37.486 -11.530   3.850  0.00  0.00    -0.274 OA
ATOM    111  N   LEU d   1      36.789 -12.201   5.863  0.00  0.00    -0.348 N 
ATOM    112  H55 LEU d   1      36.221 -11.995   6.660  0.00  0.00     0.163 HD
BRANCH 111 113
ATOM    113  CA  LEU d   1      37.818 -13.280   5.928  0.00  0.00     0.089 C 
ATOM    114  H56 LEU d   1      38.727 -12.954   5.402  0.00  0.00     0.087 H 
BRANCH 113 115
ATOM    115  CB  LEU d   1      38.151 -13.549   7.384  0.00  0.00    -0.035 C 
ATOM    116  H57 LEU d   1      38.752 -14.469   7.446  0.00  0.00     0.037 H 
ATOM    117  H58 LEU d   1      37.213 -13.686   7.942  0.00  0.00     0.037 H 
BRANCH 115 118
ATOM    118  CG  LEU d   1      38.930 -12.417   8.013  0.00  0.00    -0.059 C 
ATOM    119  H59 LEU d   1      38.458 -11.499   7.633  0.00  0.00     0.038 H 
BRANCH 118 120
ATOM    120  CD1 LEU d   1      38.778 -12.369   9.527  0.00  0.00    -0.073 C 
ATOM    121  H60 LEU d   1      39.364 -11.529   9.928  0.00  0.00     0.028 H 
ATOM    122  H61 LEU d   1      39.142 -13.311   9.962  0.00  0.00     0.028 H 
ATOM    123  H62 LEU d   1      37.718 -12.232   9.785  0.00  0.00     0.028 H 
ENDBRANCH 118 120
BRANCH 118 124
ATOM    124  CD2 LEU d   1      40.376 -12.321   7.604  0.00  0.00    -0.073 C 
ATOM    125  H63 LEU d   1      40.450 -12.359   6.507  0.00  0.00     0.028 H 
ATOM    126  H64 LEU d   1      40.937 -13.162   8.038  0.00  0.00     0.028 H 
ATOM    127  H65 LEU d   1      40.798 -11.372   7.968  0.00  0.00     0.028 H 
ENDBRANCH 118 124
ENDBRANCH 115 118
ENDBRANCH 113 115
BRANCH 113 128
ATOM    128  C   LEU d   1      37.276 -14.543   5.257  0.00  0.00     0.238 C 
ATOM    129  O   LEU d   1      36.100 -14.877   5.424  0.00  0.00    -0.271 OA
ATOM    130  N   PHE d   1      38.110 -15.236   4.503  0.00  0.00    -0.368 N 
ATOM    131  H66 PHE d   1      37.797 -16.068   4.046  0.00  0.00     0.159 HD
ATOM    132  H67 PHE d   1      39.055 -14.928   4.389  0.00  0.00     0.159 HD
ENDBRANCH 113 128
ENDBRANCH 111 113
ENDBRANCH 106 109
ENDBRANCH 102 106
ENDBRANCH  87 102
ENDBRANCH  85  87
ENDBRANCH  70  83
ENDBRANCH   1  70
TORSDOF 33
