REMARK  2 active torsions:
REMARK  status: ('A' for Active; 'I' for Inactive)
REMARK    1  A    between atoms: S1_2  and  N4_4 
REMARK    2  A    between atoms: S1_2  and  C5_11 
ROOT
ATOM      1  N4  NON d   1      -2.878 137.387  20.041  0.00  0.00    -0.305 N 
ATOM      2  C22 NON d   1      -3.568 136.200  20.549  0.00  0.00     0.028 C 
ATOM      3  C21 NON d   1      -4.136 136.548  21.925  0.00  0.00     0.097 C 
ATOM      4  N17 NON d   1      -4.984 137.726  21.884  0.00  0.00    -0.074 N 
ATOM      5  C16 NON d   1      -4.373 139.044  21.831  0.00  0.00     0.083 C 
ATOM      6  C20 NON d   1      -4.045 139.529  20.413  0.00  0.00    -0.027 C 
ATOM      7  C15 NON d   1      -3.664 138.442  19.395  0.00  0.00     0.007 C 
ATOM      8  H1  NON d   1      -2.860 135.363  20.637  0.00  0.00     0.067 H 
ATOM      9  H2  NON d   1      -4.384 135.920  19.867  0.00  0.00     0.067 H 
ATOM     10  H3  NON d   1      -3.301 136.736  22.616  0.00  0.00     0.078 H 
ATOM     11  H4  NON d   1      -4.729 135.696  22.290  0.00  0.00     0.078 H 
ATOM     12  H5  NON d   1      -5.560 137.702  22.711  0.00  0.00     0.277 HD
ATOM     13  H6  NON d   1      -5.567 137.640  21.066  0.00  0.00     0.277 HD
ATOM     14  H7  NON d   1      -3.438 139.014  22.410  0.00  0.00     0.075 H 
ATOM     15  H8  NON d   1      -5.066 139.764  22.290  0.00  0.00     0.075 H 
ATOM     16  H9  NON d   1      -3.202 140.232  20.485  0.00  0.00     0.037 H 
ATOM     17  H10 NON d   1      -4.929 140.056  20.026  0.00  0.00     0.037 H 
ATOM     18  H11 NON d   1      -4.581 138.004  18.973  0.00  0.00     0.065 H 
ATOM     19  H12 NON d   1      -3.069 138.894  18.588  0.00  0.00     0.065 H 
ENDROOT
BRANCH   1  20
ATOM     20  S1  NON d   1      -1.353 137.492  20.162  0.00  0.00     0.261 S 
ATOM     21  O1  NON d   1      -0.892 138.779  19.716  0.00  0.00    -0.200 OA
ATOM     22  O2  NON d   1      -0.984 137.357  21.546  0.00  0.00    -0.200 OA
BRANCH  20  23
ATOM     23  C5  NON d   1      -0.659 136.325  19.300  0.00  0.00     0.090 A 
ATOM     24  C6  NON d   1      -0.329 135.114  19.919  0.00  0.00    -0.059 A 
ATOM     25  C7  NON d   1       0.271 134.062  19.220  0.00  0.00    -0.081 A 
ATOM     26  H13 NON d   1      -0.545 134.988  20.974  0.00  0.00     0.085 H 
ATOM     27  C8  NON d   1       0.577 134.148  17.860  0.00  0.00    -0.071 A 
ATOM     28  H14 NON d   1       0.507 133.148  19.752  0.00  0.00     0.083 H 
ATOM     29  C9  NON d   1       0.295 135.310  17.146  0.00  0.00    -0.007 A 
ATOM     30  H15 NON d   1       1.037 133.305  17.357  0.00  0.00     0.084 H 
ATOM     31  C10 NON d   1      -0.344 136.464  17.840  0.00  0.00     0.000 A 
ATOM     32  C14 NON d   1       0.589 135.421  15.790  0.00  0.00     0.013 A 
ATOM     33  C11 NON d   1      -0.613 137.605  17.085  0.00  0.00    -0.054 A 
ATOM     34  C12 NON d   1      -0.277 137.619  15.729  0.00  0.00     0.003 A 
ATOM     35  H16 NON d   1      -1.077 138.470  17.544  0.00  0.00     0.087 H 
ATOM     36  N13 NON d   1       0.299 136.558  15.130  0.00  0.00    -0.272 NA
ATOM     37  H18 NON d   1      -0.485 138.507  15.143  0.00  0.00     0.114 H 
ATOM     38  H17 NON d   1       1.051 134.592  15.266  0.00  0.00     0.116 H 
ENDBRANCH  20  23
ENDBRANCH   1  20
TORSDOF 2
