REMARK  2 active torsions:
REMARK  status: ('A' for Active; 'I' for Inactive)
REMARK    1  A    between atoms: C5_7  and  S1_12 
REMARK    2  A    between atoms: S1_12  and  N2_15 
ROOT
ATOM      1  S1  HFS d   1      51.440 102.712  29.583  0.00  0.00     0.261 S 
ATOM      2  O2  HFS d   1      52.150 103.612  28.719  0.00  0.00    -0.200 OA
ATOM      3  O3  HFS d   1      50.122 103.242  29.799  0.00  0.00    -0.200 OA
ENDROOT
BRANCH   1   4
ATOM      4  C5  HFS d   1      51.305 101.274  28.882  0.00  0.00     0.090 A 
ATOM      5  C4  HFS d   1      50.815 101.110  27.476  0.00  0.00     0.004 A 
ATOM      6  C3  HFS d   1      50.439 102.168  26.651  0.00  0.00    -0.056 A 
ATOM      7  C9  HFS d   1      50.723  99.733  26.921  0.00  0.00     0.044 A 
ATOM      8  C2  HFS d   1      49.994 101.920  25.348  0.00  0.00    -0.019 A 
ATOM      9  H3  HFS d   1      50.492 103.191  27.021  0.00  0.00     0.086 H 
ATOM     10  N1  HFS d   1      49.904 100.680  24.826  0.00  0.00    -0.333 N 
ATOM     11  H2  HFS d   1      49.707 102.767  24.727  0.00  0.00     0.111 H 
ATOM     12  C1  HFS d   1      50.238  99.581  25.521  0.00  0.00     0.256 A 
ATOM     13  H1  HFS d   1      49.577 100.575  23.887  0.00  0.00     0.168 HD
ATOM     14  O1  HFS d   1      50.137  98.450  24.994  0.00  0.00    -0.267 OA
ATOM     15  C8  HFS d   1      51.089  98.644  27.709  0.00  0.00    -0.067 A 
ATOM     16  C7  HFS d   1      51.538  98.839  29.016  0.00  0.00    -0.080 A 
ATOM     17  H6  HFS d   1      51.025  97.640  27.305  0.00  0.00     0.085 H 
ATOM     18  C6  HFS d   1      51.642 100.112  29.584  0.00  0.00    -0.059 A 
ATOM     19  H5  HFS d   1      51.815  97.975  29.610  0.00  0.00     0.083 H 
ATOM     20  H4  HFS d   1      51.996 100.202  30.605  0.00  0.00     0.085 H 
ENDBRANCH   1   4
BRANCH   1  21
ATOM     21  N2  HFS d   1      52.195 102.600  30.914  0.00  0.00    -0.305 N 
ATOM     22  C10 HFS d   1      53.659 102.709  30.935  0.00  0.00     0.007 C 
ATOM     23  C11 HFS d   1      54.023 104.018  31.642  0.00  0.00    -0.027 C 
ATOM     24  H7  HFS d   1      54.048 102.719  29.906  0.00  0.00     0.065 H 
ATOM     25  H8  HFS d   1      54.090 101.857  31.481  0.00  0.00     0.065 H 
ATOM     26  C12 HFS d   1      53.841 103.903  33.157  0.00  0.00     0.083 C 
ATOM     27  H9  HFS d   1      53.374 104.822  31.264  0.00  0.00     0.037 H 
ATOM     28  H10 HFS d   1      55.074 104.262  31.425  0.00  0.00     0.037 H 
ATOM     29  N3  HFS d   1      52.473 104.142  33.600  0.00  0.00    -0.074 N 
ATOM     30  H11 HFS d   1      54.498 104.639  33.643  0.00  0.00     0.075 H 
ATOM     31  H12 HFS d   1      54.135 102.889  33.467  0.00  0.00     0.075 H 
ATOM     32  C13 HFS d   1      51.296 103.701  32.863  0.00  0.00     0.097 C 
ATOM     33  H13 HFS d   1      52.383 105.142  33.687  0.00  0.00     0.277 HD
ATOM     34  H14 HFS d   1      52.401 103.717  34.511  0.00  0.00     0.277 HD
ATOM     35  C14 HFS d   1      51.467 102.351  32.162  0.00  0.00     0.028 C 
ATOM     36  H15 HFS d   1      51.062 104.459  32.101  0.00  0.00     0.078 H 
ATOM     37  H16 HFS d   1      50.457 103.620  33.569  0.00  0.00     0.078 H 
ATOM     38  H17 HFS d   1      52.040 101.664  32.802  0.00  0.00     0.067 H 
ATOM     39  H18 HFS d   1      50.482 101.913  31.943  0.00  0.00     0.067 H 
ENDBRANCH   1  21
TORSDOF 2
