REMARK  5 active torsions:
REMARK  status: ('A' for Active; 'I' for Inactive)
REMARK    1  A    between atoms: C22_2  and  C31_3 
REMARK       I    between atoms: C22_2  and  N21_12 
REMARK    2  A    between atoms: C34_6  and  C41_9 
REMARK    3  A    between atoms: C41_9  and  C42_10 
REMARK    4  A    between atoms: C41_9  and  N43_11 
REMARK    5  A    between atoms: N21_12  and  C14_13 
ROOT
ATOM      1  C31 Y27 d   1      51.876 101.922  30.311  0.00  0.00     0.024 C 
ATOM      2  C36 Y27 d   1      52.867 103.017  29.912  0.00  0.00    -0.053 C 
ATOM      3  C35 Y27 d   1      53.739 103.422  31.104  0.00  0.00    -0.059 C 
ATOM      4  C34 Y27 d   1      52.910 103.874  32.317  0.00  0.00    -0.027 C 
ATOM      5  C33 Y27 d   1      51.837 102.834  32.667  0.00  0.00    -0.059 C 
ATOM      6  C32 Y27 d   1      50.995 102.439  31.452  0.00  0.00    -0.053 C 
ATOM      7  H1  Y27 d   1      52.443 101.053  30.675  0.00  0.00     0.054 H 
ATOM      8  H2  Y27 d   1      52.309 103.897  29.558  0.00  0.00     0.034 H 
ATOM      9  H3  Y27 d   1      53.512 102.642  29.104  0.00  0.00     0.034 H 
ATOM     10  H4  Y27 d   1      54.393 104.251  30.796  0.00  0.00     0.033 H 
ATOM     11  H5  Y27 d   1      54.354 102.559  31.400  0.00  0.00     0.033 H 
ATOM     12  H6  Y27 d   1      52.385 104.794  32.019  0.00  0.00     0.043 H 
ATOM     13  H7  Y27 d   1      51.173 103.255  33.436  0.00  0.00     0.033 H 
ATOM     14  H8  Y27 d   1      52.331 101.934  33.062  0.00  0.00     0.033 H 
ATOM     15  H9  Y27 d   1      50.289 101.648  31.747  0.00  0.00     0.034 H 
ATOM     16  H10 Y27 d   1      50.435 103.319  31.102  0.00  0.00     0.034 H 
ENDROOT
BRANCH   1  17
ATOM     17  C22 Y27 d   1      51.051 101.479  29.129  0.00  0.00     0.226 C 
ATOM     18  O23 Y27 d   1      50.221 102.223  28.623  0.00  0.00    -0.273 OA
ATOM     19  N21 Y27 d   1      51.312 100.231  28.721  0.00  0.00    -0.327 N 
ATOM     20  H18 Y27 d   1      51.861  99.671  29.341  0.00  0.00     0.169 HD
BRANCH  19  21
ATOM     21  C14 Y27 d   1      50.919  99.634  27.564  0.00  0.00     0.037 A 
ATOM     22  C15 Y27 d   1      50.432 100.334  26.456  0.00  0.00    -0.040 A 
ATOM     23  C16 Y27 d   1      50.057  99.630  25.310  0.00  0.00     0.004 A 
ATOM     24  H19 Y27 d   1      50.346 101.414  26.486  0.00  0.00     0.089 H 
ATOM     25  N11 Y27 d   1      50.166  98.291  25.262  0.00  0.00    -0.273 NA
ATOM     26  H20 Y27 d   1      49.674 100.168  24.451  0.00  0.00     0.114 H 
ATOM     27  C12 Y27 d   1      50.636  97.593  26.308  0.00  0.00     0.004 A 
ATOM     28  C13 Y27 d   1      51.021  98.246  27.478  0.00  0.00    -0.040 A 
ATOM     29  H21 Y27 d   1      50.717  96.514  26.242  0.00  0.00     0.114 H 
ATOM     30  H22 Y27 d   1      51.399  97.676  28.319  0.00  0.00     0.089 H 
ENDBRANCH  19  21
ENDBRANCH   1  17
BRANCH   4  31
ATOM     31  C41 Y27 d   1      53.769 104.233  33.540  0.00  0.00     0.100 C 
ATOM     32  H11 Y27 d   1      53.083 104.486  34.361  0.00  0.00     0.083 H 
BRANCH  31  33
ATOM     33  C42 Y27 d   1      54.674 103.098  34.025  0.00  0.00    -0.049 C 
ATOM     34  H12 Y27 d   1      55.251 103.437  34.898  0.00  0.00     0.030 H 
ATOM     35  H13 Y27 d   1      55.364 102.810  33.219  0.00  0.00     0.030 H 
ATOM     36  H14 Y27 d   1      54.057 102.232  34.307  0.00  0.00     0.030 H 
ENDBRANCH  31  33
BRANCH  31  37
ATOM     37  N43 Y27 d   1      54.587 105.396  33.251  0.00  0.00    -0.075 N 
ATOM     38  H15 Y27 d   1      53.999 106.149  32.931  0.00  0.00     0.274 HD
ATOM     39  H16 Y27 d   1      55.258 105.165  32.535  0.00  0.00     0.274 HD
ATOM     40  H17 Y27 d   1      55.073 105.681  34.087  0.00  0.00     0.274 HD
ENDBRANCH  31  37
ENDBRANCH   4  31
TORSDOF 5
