REMARK  6 active torsions:
REMARK  status: ('A' for Active; 'I' for Inactive)
REMARK    1  A    between atoms: C02_2  and  C01_3 
REMARK    2  A    between atoms: C02_2  and  C03_4 
REMARK    3  A    between atoms: C04_5  and  C05_6 
REMARK    4  A    between atoms: N03_13  and  C10_14 
REMARK    5  A    between atoms: N04_21  and  C16_22 
REMARK    6  A    between atoms: C18_25  and  N06_28 
ROOT
ATOM      1  C03 LQQ d   1      32.415  26.212  60.339  0.00  0.00     0.084 C 
ATOM      2  C04 LQQ d   1      32.648  25.690  61.615  0.00  0.00    -0.027 C 
ATOM      3  C06 LQQ d   1      31.929  24.460  62.005  0.00  0.00     0.036 C 
ATOM      4  C07 LQQ d   1      32.199  23.783  63.272  0.00  0.00     0.035 C 
ATOM      5  N01 LQQ d   1      31.588  22.626  63.542  0.00  0.00    -0.074 NA
ATOM      6  C08 LQQ d   1      30.872  21.968  62.607  0.00  0.00     0.730 C 
ATOM      7  N02 LQQ d   1      30.703  22.501  61.354  0.00  0.00    -0.044 NA
ATOM      8  C09 LQQ d   1      31.266  23.680  60.967  0.00  0.00     0.164 C 
ATOM      9  N03 LQQ d   1      31.070  24.230  59.741  0.00  0.00    -0.292 N 
ATOM     10  C15 LQQ d   1      31.663  25.493  59.406  0.00  0.00     0.264 C 
ATOM     11  O02 LQQ d   1      31.522  26.001  58.262  0.00  0.00    -0.267 OA
ATOM     12  N04 LQQ d   1      30.350  20.776  63.017  0.00  0.00    -0.171 N 
ATOM     13  H7  LQQ d   1      32.889  24.216  63.987  0.00  0.00     0.117 H 
ATOM     14  H17 LQQ d   1      30.495  20.541  64.009  0.00  0.00     0.186 HD
ENDROOT
BRANCH  12  15
ATOM     15  C16 LQQ d   1      29.666  19.861  62.288  0.00  0.00     0.142 A 
ATOM     16  N05 LQQ d   1      29.514  18.617  62.801  0.00  0.00    -0.241 NA
ATOM     17  C17 LQQ d   1      28.844  17.671  62.133  0.00  0.00     0.025 A 
ATOM     18  C18 LQQ d   1      28.280  17.946  60.887  0.00  0.00     0.028 A 
ATOM     19  H18 LQQ d   1      28.738  16.682  62.564  0.00  0.00     0.117 H 
ATOM     20  C19 LQQ d   1      28.424  19.220  60.347  0.00  0.00    -0.057 A 
ATOM     21  C20 LQQ d   1      29.117  20.184  61.052  0.00  0.00    -0.036 A 
ATOM     22  H19 LQQ d   1      27.995  19.454  59.379  0.00  0.00     0.086 H 
ATOM     23  H20 LQQ d   1      29.232  21.183  60.646  0.00  0.00     0.089 H 
BRANCH  18  24
ATOM     24  N06 LQQ d   1      27.571  16.953  60.174  0.00  0.00    -0.279 NA
ATOM     25  C21 LQQ d   1      28.466  15.800  59.906  0.00  0.00     0.006 C 
ATOM     26  C22 LQQ d   1      27.712  14.683  59.189  0.00  0.00     0.093 C 
ATOM     27  H21 LQQ d   1      28.856  15.417  60.861  0.00  0.00     0.058 H 
ATOM     28  H22 LQQ d   1      29.303  16.133  59.275  0.00  0.00     0.058 H 
ATOM     29  N07 LQQ d   1      27.044  15.196  58.003  0.00  0.00    -0.073 N 
ATOM     30  H23 LQQ d   1      26.961  14.258  59.871  0.00  0.00     0.077 H 
ATOM     31  H24 LQQ d   1      28.424  13.899  58.892  0.00  0.00     0.077 H 
ATOM     32  C23 LQQ d   1      26.341  16.476  58.025  0.00  0.00     0.093 C 
ATOM     33  H25 LQQ d   1      26.364  14.501  57.735  0.00  0.00     0.277 HD
ATOM     34  H26 LQQ d   1      27.750  15.270  57.287  0.00  0.00     0.277 HD
ATOM     35  C24 LQQ d   1      26.986  17.526  58.933  0.00  0.00     0.006 C 
ATOM     36  H27 LQQ d   1      25.313  16.300  58.376  0.00  0.00     0.077 H 
ATOM     37  H28 LQQ d   1      26.316  16.874  57.000  0.00  0.00     0.077 H 
ATOM     38  H29 LQQ d   1      27.786  18.030  58.370  0.00  0.00     0.058 H 
ATOM     39  H30 LQQ d   1      26.218  18.261  59.216  0.00  0.00     0.058 H 
ENDBRANCH  18  24
ENDBRANCH  12  15
BRANCH   9  40
ATOM     40  C10 LQQ d   1      30.295  23.475  58.739  0.00  0.00     0.021 C 
ATOM     41  C11 LQQ d   1      29.213  24.268  58.015  0.00  0.00    -0.045 C 
ATOM     42  C12 LQQ d   1      29.287  23.872  56.536  0.00  0.00    -0.063 C 
ATOM     43  H9  LQQ d   1      29.395  25.347  58.127  0.00  0.00     0.036 H 
ATOM     44  H10 LQQ d   1      28.223  24.019  58.425  0.00  0.00     0.036 H 
ATOM     45  C13 LQQ d   1      30.506  22.955  56.332  0.00  0.00    -0.063 C 
ATOM     46  H11 LQQ d   1      29.395  24.774  55.916  0.00  0.00     0.033 H 
ATOM     47  H12 LQQ d   1      28.369  23.337  56.249  0.00  0.00     0.033 H 
ATOM     48  C14 LQQ d   1      31.252  22.945  57.665  0.00  0.00    -0.045 C 
ATOM     49  H13 LQQ d   1      31.153  23.350  55.535  0.00  0.00     0.033 H 
ATOM     50  H14 LQQ d   1      30.180  21.938  56.069  0.00  0.00     0.033 H 
ATOM     51  H15 LQQ d   1      31.562  21.919  57.913  0.00  0.00     0.036 H 
ATOM     52  H16 LQQ d   1      32.140  23.591  57.602  0.00  0.00     0.036 H 
ATOM     53  H8  LQQ d   1      29.815  22.629  59.253  0.00  0.00     0.073 H 
ENDBRANCH   9  40
BRANCH   2  54
ATOM     54  C05 LQQ d   1      33.429  26.426  62.669  0.00  0.00    -0.049 C 
ATOM     55  H4  LQQ d   1      33.902  27.313  62.222  0.00  0.00     0.033 H 
ATOM     56  H5  LQQ d   1      34.205  25.764  63.080  0.00  0.00     0.033 H 
ATOM     57  H6  LQQ d   1      32.751  26.740  63.476  0.00  0.00     0.033 H 
ENDBRANCH   2  54
BRANCH   1  58
ATOM     58  C02 LQQ d   1      33.008  27.519  59.901  0.00  0.00     0.161 C 
ATOM     59  O01 LQQ d   1      32.409  28.544  60.141  0.00  0.00    -0.293 OA
BRANCH  58  60
ATOM     60  C01 LQQ d   1      34.312  27.507  59.162  0.00  0.00    -0.016 C 
ATOM     61  H1  LQQ d   1      34.667  26.471  59.062  0.00  0.00     0.038 H 
ATOM     62  H2  LQQ d   1      35.055  28.097  59.719  0.00  0.00     0.038 H 
ATOM     63  H3  LQQ d   1      34.171  27.945  58.163  0.00  0.00     0.038 H 
ENDBRANCH  58  60
ENDBRANCH   1  58
TORSDOF 6
