REMARK WARNING: 32 MAX_TORS EXCEEDED!!!
REMARK  40 active torsions:
REMARK  status: ('A' for Active; 'I' for Inactive)
REMARK    1  A    between atoms: O1_7  and  C1_1 
REMARK    2  A    between atoms: C2_2  and  O2_8 
REMARK    3  A    between atoms: C3_3  and  O3_9 
REMARK    4  A    between atoms: C4_4  and  O4_10 
REMARK    5  A    between atoms: C5_5  and  C6_6 
REMARK    6  A    between atoms: C6_6  and  O6_12 
REMARK    7  A    between atoms: C4'_16  and  O1_7 
REMARK    8  A    between atoms: C1'_13  and  O1'_19 
REMARK    9  A    between atoms: C2'_14  and  O2'_20 
REMARK   10  A    between atoms: C3'_15  and  O3'_21 
REMARK   11  A    between atoms: C5'_17  and  C6'_18 
REMARK   12  A    between atoms: C6'_18  and  O6'_23 
REMARK   13  A    between atoms: O1'_19  and  C1_24 
REMARK   14  A    between atoms: C1_24  and  C2_25 
REMARK   15  A    between atoms: C2_25  and  N2_26 
REMARK   16  A    between atoms: C2_25  and  C3_27 
REMARK   17  A    between atoms: N2_26  and  C1_44 
REMARK   18  A    between atoms: C3_27  and  O3_28 
REMARK   19  A    between atoms: C3_27  and  C4_29 
REMARK   20  A    between atoms: C5_30  and  C6_31 
REMARK   21  A    between atoms: C6_31  and  C7_32 
REMARK   22  A    between atoms: C7_32  and  C8_33 
REMARK   23  A    between atoms: C8_33  and  C9_34 
REMARK   24  A    between atoms: C9_34  and  C10_35 
REMARK   25  A    between atoms: C10_35  and  C11_36 
REMARK   26  A    between atoms: C11_36  and  C12_37 
REMARK   27  A    between atoms: C12_37  and  C13_38 
REMARK   28  A    between atoms: C13_38  and  C14_39 
REMARK   29  A    between atoms: C14_39  and  C15_40 
REMARK   30  A    between atoms: C15_40  and  C16_41 
REMARK   31  A    between atoms: C16_41  and  C17_42 
REMARK   32  A    between atoms: C17_42  and  C18_43 
REMARK   33  A    between atoms: C1_44  and  C2_45 
REMARK   34  A    between atoms: C1_44  and  O1_52 
REMARK   35  A    between atoms: C2_45  and  C3_46 
REMARK   36  A    between atoms: C3_46  and  C4_47 
REMARK   37  A    between atoms: C4_47  and  C5_48 
REMARK   38  A    between atoms: C5_48  and  C6_49 
REMARK   39  A    between atoms: C6_49  and  C7_50 
REMARK   40  A    between atoms: C7_50  and  C8_51 
ROOT
ATOM      1  H24 LAT d   1      21.597  -3.857  19.322  0.00  0.00     0.092 H 
ATOM      2  C2  SPH d   1      21.409  -2.808  19.594  0.00  0.00     0.152 C 
ENDROOT
BRANCH   2   3
ATOM      3  C1  SPH d   1      22.455  -1.954  18.878  0.00  0.00     0.052 C 
ATOM      4  H22 LAT d   1      23.437  -2.153  19.332  0.00  0.00     0.077 H 
ATOM      5  H23 LAT d   1      22.475  -2.245  17.817  0.00  0.00     0.077 H 
BRANCH   3   6
ATOM      6  O1' LAT d   1      22.212  -0.645  18.953  0.00  0.00    -0.356 OA
BRANCH   6   7
ATOM      7  C1' LAT d   1      23.068   0.462  19.085  0.00  0.00     0.158 C 
ATOM      8  C2' LAT d   1      22.271   1.780  18.935  0.00  0.00     0.110 C 
ATOM      9  C3' LAT d   1      22.905   2.803  17.995  0.00  0.00     0.092 C 
ATOM     10  H13 LAT d   1      22.243   2.240  19.934  0.00  0.00     0.094 H 
ATOM     11  C4' LAT d   1      24.428   2.725  18.020  0.00  0.00     0.096 C 
ATOM     12  H14 LAT d   1      22.575   2.570  16.972  0.00  0.00     0.091 H 
ATOM     13  C5' LAT d   1      24.877   1.330  17.575  0.00  0.00     0.089 C 
ATOM     14  H15 LAT d   1      24.805   2.942  19.030  0.00  0.00     0.091 H 
ATOM     15  O5' LAT d   1      24.199   0.255  18.235  0.00  0.00    -0.348 OA
ATOM     16  H16 LAT d   1      24.637   1.252  16.504  0.00  0.00     0.090 H 
ATOM     17  H12 LAT d   1      23.456   0.464  20.114  0.00  0.00     0.133 H 
BRANCH   8  18
ATOM     18  O2' LAT d   1      20.933   1.544  18.541  0.00  0.00    -0.388 OA
ATOM     19  H19 LAT d   1      20.539   0.907  19.126  0.00  0.00     0.210 HD
ENDBRANCH   8  18
BRANCH   9  20
ATOM     20  O3' LAT d   1      22.460   4.105  18.310  0.00  0.00    -0.390 OA
ATOM     21  H20 LAT d   1      21.511   4.128  18.288  0.00  0.00     0.210 HD
ENDBRANCH   9  20
BRANCH  11  22
ATOM     22  O1  LAT d   1      24.923   3.662  17.094  0.00  0.00    -0.348 OA
BRANCH  22  23
ATOM     23  C1  LAT d   1      25.864   4.646  17.465  0.00  0.00     0.159 C 
ATOM     24  C2  LAT d   1      25.249   5.778  18.286  0.00  0.00     0.110 C 
ATOM     25  C3  LAT d   1      26.321   6.808  18.670  0.00  0.00     0.092 C 
ATOM     26  H2  LAT d   1      24.803   5.365  19.203  0.00  0.00     0.094 H 
ATOM     27  C4  LAT d   1      27.525   6.117  19.318  0.00  0.00     0.090 C 
ATOM     28  H3  LAT d   1      26.668   7.294  17.746  0.00  0.00     0.091 H 
ATOM     29  C5  LAT d   1      27.974   4.994  18.379  0.00  0.00     0.089 C 
ATOM     30  H4  LAT d   1      28.344   6.843  19.423  0.00  0.00     0.091 H 
ATOM     31  O5  LAT d   1      26.930   4.055  18.171  0.00  0.00    -0.348 OA
ATOM     32  H5  LAT d   1      28.189   5.467  17.410  0.00  0.00     0.090 H 
ATOM     33  H1  LAT d   1      26.267   5.086  16.541  0.00  0.00     0.133 H 
BRANCH  24  34
ATOM     34  O2  LAT d   1      24.249   6.389  17.511  0.00  0.00    -0.388 OA
ATOM     35  H8  LAT d   1      24.637   6.746  16.721  0.00  0.00     0.210 HD
ENDBRANCH  24  34
BRANCH  25  36
ATOM     36  O3  LAT d   1      25.790   7.813  19.512  0.00  0.00    -0.390 OA
ATOM     37  H9  LAT d   1      26.458   8.466  19.683  0.00  0.00     0.210 HD
ENDBRANCH  25  36
BRANCH  27  38
ATOM     38  O4  LAT d   1      27.197   5.630  20.605  0.00  0.00    -0.390 OA
ATOM     39  H10 LAT d   1      26.924   6.354  21.156  0.00  0.00     0.210 HD
ENDBRANCH  27  38
BRANCH  29  40
ATOM     40  C6  LAT d   1      29.247   4.270  18.803  0.00  0.00     0.043 C 
ATOM     41  H6  LAT d   1      29.006   3.429  19.470  0.00  0.00     0.078 H 
ATOM     42  H7  LAT d   1      29.929   4.963  19.317  0.00  0.00     0.078 H 
BRANCH  40  43
ATOM     43  O6  LAT d   1      29.836   3.796  17.603  0.00  0.00    -0.398 OA
ATOM     44  H11 LAT d   1      30.640   3.333  17.808  0.00  0.00     0.209 HD
ENDBRANCH  40  43
ENDBRANCH  29  40
ENDBRANCH  22  23
ENDBRANCH  11  22
BRANCH  13  45
ATOM     45  C6' LAT d   1      26.393   1.138  17.722  0.00  0.00     0.043 C 
ATOM     46  H17 LAT d   1      26.644   0.957  18.778  0.00  0.00     0.078 H 
ATOM     47  H18 LAT d   1      26.917   2.039  17.370  0.00  0.00     0.078 H 
BRANCH  45  48
ATOM     48  O6' LAT d   1      26.782   0.023  16.941  0.00  0.00    -0.398 OA
ATOM     49  H21 LAT d   1      26.561   0.183  16.031  0.00  0.00     0.209 HD
ENDBRANCH  45  48
ENDBRANCH  13  45
ENDBRANCH   6   7
ENDBRANCH   3   6
ENDBRANCH   2   3
BRANCH   2  50
ATOM     50  N2  SPH d   1      20.071  -2.456  19.142  0.00  0.00    -0.040 N 
ATOM     51  H25 LAT d   1      20.267  -1.499  18.892  0.00  0.00     0.280 HD
ATOM     52  H26 LAT d   1      19.619  -2.483  20.043  0.00  0.00     0.280 HD
BRANCH  50  53
ATOM     53  C1  OCA d   1      19.036  -2.598  18.438  0.00  0.00     0.190 C 
ATOM     54  H58 LAT d   1      19.347  -2.250  17.442  0.00  0.00     0.128 H 
BRANCH  53  55
ATOM     55  C2  OCA d   1      17.545  -2.303  18.365  0.00  0.00    -0.017 C 
ATOM     56  H59 LAT d   1      17.085  -2.939  17.594  0.00  0.00     0.039 H 
ATOM     57  H60 LAT d   1      17.395  -1.245  18.105  0.00  0.00     0.039 H 
BRANCH  55  58
ATOM     58  C3  OCA d   1      16.893  -2.589  19.709  0.00  0.00    -0.061 C 
ATOM     59  H61 LAT d   1      17.296  -1.899  20.465  0.00  0.00     0.033 H 
ATOM     60  H62 LAT d   1      17.109  -3.626  20.007  0.00  0.00     0.033 H 
BRANCH  58  61
ATOM     61  C4  OCA d   1      15.388  -2.397  19.601  0.00  0.00    -0.065 C 
ATOM     62  H63 LAT d   1      15.110  -2.305  18.541  0.00  0.00     0.033 H 
ATOM     63  H64 LAT d   1      15.100  -1.481  20.137  0.00  0.00     0.033 H 
BRANCH  61  64
ATOM     64  C5  OCA d   1      14.658  -3.583  20.209  0.00  0.00    -0.065 C 
ATOM     65  H65 LAT d   1      14.560  -3.432  21.294  0.00  0.00     0.033 H 
ATOM     66  H66 LAT d   1      15.233  -4.501  20.017  0.00  0.00     0.033 H 
BRANCH  64  67
ATOM     67  C6  OCA d   1      13.275  -3.720  19.594  0.00  0.00    -0.065 C 
ATOM     68  H67 LAT d   1      13.361  -3.790  18.500  0.00  0.00     0.033 H 
ATOM     69  H68 LAT d   1      12.664  -2.845  19.858  0.00  0.00     0.033 H 
BRANCH  67  70
ATOM     70  C7  OCA d   1      12.624  -4.983  20.138  0.00  0.00    -0.069 C 
ATOM     71  H69 LAT d   1      13.329  -5.496  20.808  0.00  0.00     0.032 H 
ATOM     72  H70 LAT d   1      12.364  -5.648  19.301  0.00  0.00     0.032 H 
BRANCH  70  73
ATOM     73  C8  OCA d   1      11.367  -4.631  20.908  0.00  0.00    -0.077 C 
ATOM     74  H71 LAT d   1      10.905  -5.551  21.296  0.00  0.00     0.027 H 
ATOM     75  H72 LAT d   1      10.659  -4.119  20.240  0.00  0.00     0.027 H 
ATOM     76  H73 LAT d   1      11.624  -3.968  21.747  0.00  0.00     0.027 H 
ENDBRANCH  70  73
ENDBRANCH  67  70
ENDBRANCH  64  67
ENDBRANCH  61  64
ENDBRANCH  58  61
ENDBRANCH  55  58
ENDBRANCH  53  55
BRANCH  53  77
ATOM     77  O1  OCA d   1      19.256  -4.009  18.597  0.00  0.00    -0.370 OA
ATOM     78  H74 LAT d   1      18.576  -4.488  18.137  0.00  0.00     0.212 HD
ENDBRANCH  53  77
ENDBRANCH  50  53
ENDBRANCH   2  50
BRANCH   2  79
ATOM     79  C3  SPH d   1      21.489  -2.706  21.118  0.00  0.00     0.081 C 
ATOM     80  H27 LAT d   1      21.390  -1.648  21.403  0.00  0.00     0.092 H 
BRANCH  79  81
ATOM     81  O3  SPH d   1      22.774  -3.182  21.549  0.00  0.00    -0.390 OA
ATOM     82  H28 LAT d   1      22.832  -3.122  22.495  0.00  0.00     0.210 HD
ENDBRANCH  79  81
BRANCH  79  83
ATOM     83  C4  SPH d   1      20.367  -3.492  21.803  0.00  0.00    -0.077 C 
ATOM     84  C5  SPH d   1      19.624  -2.936  22.768  0.00  0.00    -0.104 C 
ATOM     85  H30 LAT d   1      19.740  -1.876  22.990  0.00  0.00     0.076 H 
ATOM     86  H29 LAT d   1      20.171  -4.519  21.500  0.00  0.00     0.080 H 
BRANCH  84  87
ATOM     87  C6  SPH d   1      18.612  -3.768  23.565  0.00  0.00    -0.050 C 
ATOM     88  H31 LAT d   1      18.358  -4.663  22.979  0.00  0.00     0.038 H 
ATOM     89  H32 LAT d   1      17.707  -3.162  23.720  0.00  0.00     0.038 H 
BRANCH  87  90
ATOM     90  C7  SPH d   1      19.137  -4.218  24.938  0.00  0.00    -0.062 C 
ATOM     91  H33 LAT d   1      18.277  -4.407  25.598  0.00  0.00     0.033 H 
ATOM     92  H34 LAT d   1      19.753  -3.410  25.360  0.00  0.00     0.033 H 
BRANCH  90  93
ATOM     93  C8  SPH d   1      19.987  -5.495  24.863  0.00  0.00    -0.065 C 
ATOM     94  H35 LAT d   1      20.304  -5.646  23.820  0.00  0.00     0.033 H 
ATOM     95  H36 LAT d   1      19.371  -6.347  25.186  0.00  0.00     0.033 H 
BRANCH  93  96
ATOM     96  C9  SPH d   1      21.227  -5.428  25.744  0.00  0.00    -0.065 C 
ATOM     97  H37 LAT d   1      21.261  -4.450  26.247  0.00  0.00     0.033 H 
ATOM     98  H38 LAT d   1      22.123  -5.549  25.117  0.00  0.00     0.033 H 
BRANCH  96  99
ATOM     99  C10 SPH d   1      21.197  -6.534  26.797  0.00  0.00    -0.065 C 
ATOM    100  H39 LAT d   1      21.651  -7.442  26.374  0.00  0.00     0.033 H 
ATOM    101  H40 LAT d   1      20.151  -6.739  27.070  0.00  0.00     0.033 H 
BRANCH  99 102
ATOM    102  C11 SPH d   1      21.966  -6.134  28.051  0.00  0.00    -0.065 C 
ATOM    103  H41 LAT d   1      21.865  -5.049  28.202  0.00  0.00     0.033 H 
ATOM    104  H42 LAT d   1      23.028  -6.389  27.917  0.00  0.00     0.033 H 
BRANCH 102 105
ATOM    105  C12 SPH d   1      21.434  -6.858  29.282  0.00  0.00    -0.065 C 
ATOM    106  H43 LAT d   1      21.845  -7.878  29.294  0.00  0.00     0.033 H 
ATOM    107  H44 LAT d   1      20.337  -6.905  29.215  0.00  0.00     0.033 H 
BRANCH 105 108
ATOM    108  C13 SPH d   1      21.815  -6.162  30.590  0.00  0.00    -0.065 C 
ATOM    109  H45 LAT d   1      20.922  -6.089  31.227  0.00  0.00     0.033 H 
ATOM    110  H46 LAT d   1      22.185  -5.152  30.360  0.00  0.00     0.033 H 
BRANCH 108 111
ATOM    111  C14 SPH d   1      22.902  -6.926  31.348  0.00  0.00    -0.065 C 
ATOM    112  H47 LAT d   1      23.572  -6.198  31.829  0.00  0.00     0.033 H 
ATOM    113  H48 LAT d   1      23.473  -7.530  30.628  0.00  0.00     0.033 H 
BRANCH 111 114
ATOM    114  C15 SPH d   1      22.340  -7.855  32.424  0.00  0.00    -0.065 C 
ATOM    115  H49 LAT d   1      23.140  -8.536  32.749  0.00  0.00     0.033 H 
ATOM    116  H50 LAT d   1      21.517  -8.439  31.986  0.00  0.00     0.033 H 
BRANCH 114 117
ATOM    117  C16 SPH d   1      21.809  -7.111  33.648  0.00  0.00    -0.065 C 
ATOM    118  H51 LAT d   1      20.817  -6.700  33.408  0.00  0.00     0.033 H 
ATOM    119  H52 LAT d   1      22.498  -6.288  33.887  0.00  0.00     0.033 H 
BRANCH 117 120
ATOM    120  C17 SPH d   1      21.682  -8.015  34.873  0.00  0.00    -0.069 C 
ATOM    121  H53 LAT d   1      22.585  -8.637  34.960  0.00  0.00     0.032 H 
ATOM    122  H54 LAT d   1      20.801  -8.663  34.756  0.00  0.00     0.032 H 
BRANCH 120 123
ATOM    123  C18 SPH d   1      21.526  -7.182  36.129  0.00  0.00    -0.077 C 
ATOM    124  H55 LAT d   1      21.436  -7.847  37.001  0.00  0.00     0.027 H 
ATOM    125  H56 LAT d   1      20.622  -6.560  36.047  0.00  0.00     0.027 H 
ATOM    126  H57 LAT d   1      22.407  -6.534  36.251  0.00  0.00     0.027 H 
ENDBRANCH 120 123
ENDBRANCH 117 120
ENDBRANCH 114 117
ENDBRANCH 111 114
ENDBRANCH 108 111
ENDBRANCH 105 108
ENDBRANCH 102 105
ENDBRANCH  99 102
ENDBRANCH  96  99
ENDBRANCH  93  96
ENDBRANCH  90  93
ENDBRANCH  87  90
ENDBRANCH  84  87
ENDBRANCH  79  83
ENDBRANCH   2  79
TORSDOF 40
