REMARK  3 active torsions:
REMARK  status: ('A' for Active; 'I' for Inactive)
REMARK    1  A    between atoms: CA_2  and  C_3 
REMARK    2  A    between atoms: CD_7  and  C1_9 
REMARK    3  A    between atoms: C2_10  and  CL1_15 
ROOT
ATOM      1  C1  FC3 d   1      -4.129  -1.361   8.667  0.00  0.00     0.013 A 
ATOM      2  C2  FC3 d   1      -5.316  -0.585   8.997  0.00  0.00     0.060 A 
ATOM      3  C3  FC3 d   1      -6.580  -0.938   8.448  0.00  0.00    -0.067 A 
ATOM      4  C4  FC3 d   1      -6.710  -2.043   7.575  0.00  0.00    -0.082 A 
ATOM      5  C5  FC3 d   1      -5.577  -2.814   7.236  0.00  0.00    -0.082 A 
ATOM      6  C6  FC3 d   1      -4.307  -2.476   7.775  0.00  0.00    -0.070 A 
ATOM      7  H3  FC3 d   1      -7.456  -0.352   8.702  0.00  0.00     0.084 H 
ATOM      8  H4  FC3 d   1      -7.681  -2.298   7.166  0.00  0.00     0.083 H 
ATOM      9  H5  FC3 d   1      -5.676  -3.661   6.567  0.00  0.00     0.083 H 
ATOM     10  H6  FC3 d   1      -3.446  -3.076   7.506  0.00  0.00     0.085 H 
ENDROOT
BRANCH   1  11
ATOM     11  CD  FC3 d   1      -2.759  -1.076   9.183  0.00  0.00     0.087 A 
ATOM     12  OA  FC3 d   1      -1.683  -0.939   8.374  0.00  0.00    -0.303 OA
ATOM     13  CA  FC3 d   1      -0.582  -0.695   9.110  0.00  0.00     0.152 A 
ATOM     14  CB  FC3 d   1      -0.939  -0.668  10.439  0.00  0.00    -0.041 A 
ATOM     15  CG  FC3 d   1      -2.335  -0.915  10.491  0.00  0.00    -0.046 A 
ATOM     16  H1  FC3 d   1      -0.278  -0.491  11.286  0.00  0.00     0.088 H 
ATOM     17  H2  FC3 d   1      -2.953  -0.968  11.386  0.00  0.00     0.087 H 
BRANCH  13  18
ATOM     18  C   FC3 d   1       0.745  -0.501   8.528  0.00  0.00     0.234 C 
ATOM     19  OB  FC3 d   1       0.866  -0.570   7.287  0.00  0.00    -0.642 OA
ATOM     20  OXT FC3 d   1       1.732  -0.275   9.249  0.00  0.00    -0.642 OA
ENDBRANCH  13  18
ENDBRANCH   1  11
BRANCH   2  21
ATOM     21  CL1 FC3 d   1      -5.258   0.614   9.921  0.00  0.00     0.418 C 
ATOM     22  F1  FC3 d   1      -4.243   1.385   9.589  0.00  0.00    -0.166 F 
ATOM     23  F2  FC3 d   1      -6.378   1.303   9.817  0.00  0.00    -0.166 F 
ATOM     24  F3  FC3 d   1      -5.100   0.194  11.156  0.00  0.00    -0.166 F 
ENDBRANCH   2  21
TORSDOF 3
