REMARK  2 active torsions:
REMARK  status: ('A' for Active; 'I' for Inactive)
REMARK    1  A    between atoms: CA_2  and  C_3 
REMARK    2  A    between atoms: CD_7  and  C1_9 
ROOT
ATOM      1  C1  FC2 d   1      -4.145  -1.117   8.593  0.00  0.00     0.021 A 
ATOM      2  C2  FC2 d   1      -5.368  -0.578   9.126  0.00  0.00     0.047 A 
ATOM      3  C3  FC2 d   1      -6.599  -0.901   8.489  0.00  0.00    -0.059 A 
ATOM      4  C4  FC2 d   1      -6.617  -1.744   7.337  0.00  0.00    -0.060 A 
ATOM      5  C5  FC2 d   1      -5.407  -2.265   6.818  0.00  0.00     0.035 A 
ATOM      6  C6  FC2 d   1      -4.182  -1.955   7.442  0.00  0.00    -0.048 A 
ATOM      7 CL1  FC2 d   1      -5.381   0.441  10.497  0.00  0.00    -0.083 Cl
ATOM      8 CL2  FC2 d   1      -5.401  -3.271   5.433  0.00  0.00    -0.084 Cl
ATOM      9  H3  FC2 d   1      -7.529  -0.504   8.881  0.00  0.00     0.086 H 
ATOM     10  H4  FC2 d   1      -7.559  -1.986   6.859  0.00  0.00     0.086 H 
ATOM     11  H5  FC2 d   1      -3.259  -2.358   7.042  0.00  0.00     0.087 H 
ENDROOT
BRANCH   1  12
ATOM     12  CD  FC2 d   1      -2.807  -0.855   9.155  0.00  0.00     0.088 A 
ATOM     13  OA  FC2 d   1      -1.707  -0.813   8.370  0.00  0.00    -0.303 OA
ATOM     14  CA  FC2 d   1      -0.613  -0.569   9.109  0.00  0.00     0.152 A 
ATOM     15  CB  FC2 d   1      -1.000  -0.443  10.430  0.00  0.00    -0.041 A 
ATOM     16  CG  FC2 d   1      -2.419  -0.630  10.458  0.00  0.00    -0.046 A 
ATOM     17  H1  FC2 d   1      -0.353  -0.241  11.282  0.00  0.00     0.088 H 
ATOM     18  H2  FC2 d   1      -3.064  -0.600  11.335  0.00  0.00     0.087 H 
BRANCH  14  19
ATOM     19  C   FC2 d   1       0.729  -0.471   8.528  0.00  0.00     0.234 C 
ATOM     20  OB  FC2 d   1       0.852  -0.623   7.288  0.00  0.00    -0.642 OA
ATOM     21  OXT FC2 d   1       1.729  -0.246   9.236  0.00  0.00    -0.642 OA
ENDBRANCH  14  19
ENDBRANCH   1  12
TORSDOF 2
