REMARK  3 active torsions:
REMARK  status: ('A' for Active; 'I' for Inactive)
REMARK       I    between atoms: C1_2  and  N2_3 
REMARK    1  A    between atoms: C1_2  and  C6_10 
REMARK    2  A    between atoms: N2_3  and  C3_4 
REMARK       I    between atoms: C6_10  and  N7_11 
REMARK    3  A    between atoms: N7_11  and  C8_12 
ROOT
ATOM      1  O2  NON d   1       7.644  -1.726  70.717  0.00  0.00    -0.262 OA
ATOM      2  C6  NON d   1       7.494  -1.510  71.934  0.00  0.00     0.310 C 
ATOM      3  N7  NON d   1       6.589  -2.228  72.677  0.00  0.00    -0.348 N 
ATOM      4  H4  NON d   1       6.496  -2.031  73.653  0.00  0.00     0.163 HD
ENDROOT
BRANCH   3   5
ATOM      5  C8  NON d   1       5.752  -3.280  72.074  0.00  0.00     0.012 C 
ATOM      6  C9  NON d   1       6.067  -4.738  72.458  0.00  0.00    -0.046 C 
ATOM      7  C12 NON d   1       5.270  -4.971  73.757  0.00  0.00    -0.063 C 
ATOM      8  H6  NON d   1       7.145  -4.871  72.633  0.00  0.00     0.035 H 
ATOM      9  H7  NON d   1       5.736  -5.429  71.669  0.00  0.00     0.035 H 
ATOM     10  C11 NON d   1       4.090  -3.981  73.704  0.00  0.00    -0.063 C 
ATOM     11  H12 NON d   1       5.901  -4.770  74.635  0.00  0.00     0.033 H 
ATOM     12  H13 NON d   1       4.901  -6.006  73.800  0.00  0.00     0.033 H 
ATOM     13  C10 NON d   1       4.249  -3.210  72.385  0.00  0.00    -0.046 C 
ATOM     14  H10 NON d   1       3.134  -4.524  73.717  0.00  0.00     0.033 H 
ATOM     15  H11 NON d   1       4.131  -3.290  74.559  0.00  0.00     0.033 H 
ATOM     16  H8  NON d   1       3.664  -3.686  71.584  0.00  0.00     0.035 H 
ATOM     17  H9  NON d   1       3.925  -2.166  72.504  0.00  0.00     0.035 H 
ATOM     18  H5  NON d   1       5.888  -3.174  70.988  0.00  0.00     0.072 H 
ENDBRANCH   3   5
BRANCH   2  19
ATOM     19  C1  NON d   1       8.305  -0.457  72.599  0.00  0.00     0.315 C 
ATOM     20  O   NON d   1       8.148  -0.244  73.821  0.00  0.00    -0.262 OA
ATOM     21  N2  NON d   1       9.215   0.270  71.847  0.00  0.00    -0.297 N 
ATOM     22  H1  NON d   1       9.305   0.059  70.874  0.00  0.00     0.171 HD
BRANCH  21  23
ATOM     23  C3  NON d   1       9.989   1.254  72.370  0.00  0.00     0.173 A 
ATOM     24  N   NON d   1      10.882   1.986  71.698  0.00  0.00    -0.236 NA
ATOM     25  C4  NON d   1      11.557   2.952  72.488  0.00  0.00     0.011 A 
ATOM     26  C5  NON d   1      11.168   2.965  73.820  0.00  0.00    -0.025 A 
ATOM     27  H3  NON d   1      12.313   3.624  72.085  0.00  0.00     0.115 H 
ATOM     28  S   NON d   1      10.010   1.781  73.960  0.00  0.00    -0.062 SA
ATOM     29  H2  NON d   1      11.543   3.615  74.609  0.00  0.00     0.097 H 
ENDBRANCH  21  23
ENDBRANCH   2  19
TORSDOF 3
