REMARK  11 active torsions:
REMARK  status: ('A' for Active; 'I' for Inactive)
REMARK    1  A    between atoms: C5_4  and  C7_5 
REMARK    2  A    between atoms: C7_5  and  C8_6 
REMARK    3  A    between atoms: C8_6  and  N9_7 
REMARK       I    between atoms: N9_7  and  C10_8 
REMARK    4  A    between atoms: C10_8  and  C11_10 
REMARK    5  A    between atoms: C12_11  and  C13_12 
REMARK    6  A    between atoms: C17_14  and  O23_15 
REMARK    7  A    between atoms: O23_15  and  C24_16 
REMARK    8  A    between atoms: C24_16  and  C25_18 
REMARK    9  A    between atoms: C16_19  and  O19_20 
REMARK   10  A    between atoms: O19_20  and  C20_21 
REMARK   11  A    between atoms: C20_21  and  C21_23 
ROOT
ATOM      1  C11 Y12 d   1     -79.279 -64.707  51.688  0.00  0.00    -0.017 C 
ATOM      2  C12 Y12 d   1     -79.896 -65.114  50.532  0.00  0.00    -0.068 C 
ATOM      3  H9  Y12 d   1     -78.551 -63.900  51.628  0.00  0.00     0.092 H 
ATOM      4  H10 Y12 d   1     -80.551 -65.980  50.612  0.00  0.00     0.085 H 
ENDROOT
BRANCH   2   5
ATOM      5  C13 Y12 d   1     -79.764 -64.478  49.126  0.00  0.00    -0.033 A 
ATOM      6  C18 Y12 d   1     -80.710 -64.788  48.090  0.00  0.00    -0.037 A 
ATOM      7  C17 Y12 d   1     -80.652 -64.171  46.799  0.00  0.00     0.113 A 
ATOM      8  H11 Y12 d   1     -81.492 -65.511  48.292  0.00  0.00     0.089 H 
ATOM      9  C16 Y12 d   1     -79.620 -63.212  46.517  0.00  0.00     0.113 A 
ATOM     10  C15 Y12 d   1     -78.646 -62.891  47.544  0.00  0.00    -0.046 A 
ATOM     11  C14 Y12 d   1     -78.729 -63.525  48.843  0.00  0.00    -0.070 A 
ATOM     12  H18 Y12 d   1     -77.857 -62.177  47.339  0.00  0.00     0.087 H 
ATOM     13  H19 Y12 d   1     -78.003 -63.278  49.609  0.00  0.00     0.084 H 
BRANCH   7  14
ATOM     14  O23 Y12 d   1     -81.631 -64.519  45.815  0.00  0.00    -0.276 OA
BRANCH  14  15
ATOM     15  C24 Y12 d   1     -82.712 -63.713  45.538  0.00  0.00     0.260 C 
ATOM     16  O26 Y12 d   1     -82.970 -62.620  46.079  0.00  0.00    -0.265 OA
BRANCH  15  17
ATOM     17  C25 Y12 d   1     -83.615 -64.264  44.484  0.00  0.00     0.004 C 
ATOM     18  H12 Y12 d   1     -84.451 -63.569  44.318  0.00  0.00     0.041 H 
ATOM     19  H13 Y12 d   1     -84.007 -65.239  44.810  0.00  0.00     0.041 H 
ATOM     20  H14 Y12 d   1     -83.052 -64.390  43.548  0.00  0.00     0.041 H 
ENDBRANCH  15  17
ENDBRANCH  14  15
ENDBRANCH   7  14
BRANCH   9  21
ATOM     21  O19 Y12 d   1     -79.568 -62.567  45.240  0.00  0.00    -0.276 OA
BRANCH  21  22
ATOM     22  C20 Y12 d   1     -78.761 -63.012  44.250  0.00  0.00     0.260 C 
ATOM     23  O22 Y12 d   1     -78.024 -63.975  44.337  0.00  0.00    -0.265 OA
BRANCH  22  24
ATOM     24  C21 Y12 d   1     -78.832 -62.212  42.988  0.00  0.00     0.004 C 
ATOM     25  H15 Y12 d   1     -78.147 -62.642  42.242  0.00  0.00     0.041 H 
ATOM     26  H16 Y12 d   1     -78.540 -61.172  43.196  0.00  0.00     0.041 H 
ATOM     27  H17 Y12 d   1     -79.860 -62.233  42.598  0.00  0.00     0.041 H 
ENDBRANCH  22  24
ENDBRANCH  21  22
ENDBRANCH   9  21
ENDBRANCH   2   5
BRANCH   1  28
ATOM     28  C10 Y12 d   1     -79.556 -65.317  53.032  0.00  0.00     0.241 C 
ATOM     29  N9  Y12 d   1     -78.906 -64.882  54.150  0.00  0.00    -0.357 N 
ATOM     30  H8  Y12 d   1     -78.221 -64.155  54.097  0.00  0.00     0.162 HD
ATOM     31  O27 Y12 d   1     -80.397 -66.224  53.127  0.00  0.00    -0.269 OA
BRANCH  29  32
ATOM     32  C8  Y12 d   1     -79.244 -65.516  55.441  0.00  0.00    -0.001 C 
ATOM     33  H6  Y12 d   1     -80.308 -65.334  55.650  0.00  0.00     0.064 H 
ATOM     34  H7  Y12 d   1     -79.067 -66.598  55.355  0.00  0.00     0.064 H 
BRANCH  32  35
ATOM     35  C7  Y12 d   1     -78.416 -64.979  56.623  0.00  0.00    -0.026 C 
ATOM     36  H4  Y12 d   1     -78.329 -63.885  56.548  0.00  0.00     0.042 H 
ATOM     37  H5  Y12 d   1     -78.908 -65.243  57.571  0.00  0.00     0.042 H 
BRANCH  35  38
ATOM     38  C5  Y12 d   1     -77.017 -65.616  56.570  0.00  0.00    -0.057 A 
ATOM     39  C4  Y12 d   1     -76.875 -67.026  56.700  0.00  0.00    -0.077 A 
ATOM     40  C3  Y12 d   1     -75.588 -67.633  56.646  0.00  0.00    -0.082 A 
ATOM     41  H3  Y12 d   1     -77.755 -67.644  56.841  0.00  0.00     0.084 H 
ATOM     42  C2  Y12 d   1     -74.428 -66.830  56.459  0.00  0.00    -0.083 A 
ATOM     43  H2  Y12 d   1     -75.492 -68.708  56.747  0.00  0.00     0.083 H 
ATOM     44  C1  Y12 d   1     -74.564 -65.426  56.330  0.00  0.00    -0.082 A 
ATOM     45  H1  Y12 d   1     -73.447 -67.290  56.416  0.00  0.00     0.083 H 
ATOM     46  C6  Y12 d   1     -75.854 -64.814  56.386  0.00  0.00    -0.077 A 
ATOM     47  H21 Y12 d   1     -73.683 -64.811  56.188  0.00  0.00     0.083 H 
ATOM     48  H20 Y12 d   1     -75.948 -63.739  56.288  0.00  0.00     0.084 H 
ENDBRANCH  35  38
ENDBRANCH  32  35
ENDBRANCH  29  32
ENDBRANCH   1  28
TORSDOF 11
