REMARK  8 active torsions:
REMARK  status: ('A' for Active; 'I' for Inactive)
REMARK    1  A    between atoms: C2_1  and  O16_2 
REMARK    2  A    between atoms: C5_5  and  C7_6 
REMARK    3  A    between atoms: C7_6  and  C8_7 
REMARK    4  A    between atoms: C8_7  and  N9_8 
REMARK       I    between atoms: N9_8  and  C10_9 
REMARK    5  A    between atoms: C10_9  and  C11_10 
REMARK    6  A    between atoms: C12_11  and  C13_12 
REMARK    7  A    between atoms: C16_15  and  O19_16 
REMARK    8  A    between atoms: C17_17  and  O23_18 
ROOT
ATOM      1  N9  Y13 d   1     -58.129 -91.458  99.603  0.00  0.00    -0.357 N 
ATOM      2  C10 Y13 d   1     -58.745 -91.894  98.550  0.00  0.00     0.241 C 
ATOM      3  O27 Y13 d   1     -59.600 -92.783  98.575  0.00  0.00    -0.269 OA
ATOM      4  H8  Y13 d   1     -57.438 -90.737  99.558  0.00  0.00     0.162 HD
ENDROOT
BRANCH   1   5
ATOM      5  C8  Y13 d   1     -58.516 -92.095 100.864  0.00  0.00    -0.001 C 
ATOM      6  H6  Y13 d   1     -59.587 -91.929 101.050  0.00  0.00     0.064 H 
ATOM      7  H7  Y13 d   1     -58.316 -93.175 100.811  0.00  0.00     0.064 H 
BRANCH   5   8
ATOM      8  C7  Y13 d   1     -57.685 -91.466 102.004  0.00  0.00    -0.026 C 
ATOM      9  H4  Y13 d   1     -57.676 -90.372 101.889  0.00  0.00     0.042 H 
ATOM     10  H5  Y13 d   1     -58.135 -91.729 102.972  0.00  0.00     0.042 H 
BRANCH   8  11
ATOM     11  C5  Y13 d   1     -56.247 -91.996 101.950  0.00  0.00    -0.057 A 
ATOM     12  C6  Y13 d   1     -55.232 -91.244 101.292  0.00  0.00    -0.074 A 
ATOM     13  C1  Y13 d   1     -53.899 -91.729 101.234  0.00  0.00    -0.051 A 
ATOM     14  H3  Y13 d   1     -55.479 -90.294 100.832  0.00  0.00     0.084 H 
ATOM     15  C2  Y13 d   1     -53.565 -92.976 101.834  0.00  0.00     0.065 A 
ATOM     16  H2  Y13 d   1     -53.134 -91.148 100.732  0.00  0.00     0.087 H 
ATOM     17  C3  Y13 d   1     -54.576 -93.728 102.493  0.00  0.00    -0.051 A 
ATOM     18  C4  Y13 d   1     -55.912 -93.243 102.552  0.00  0.00    -0.074 A 
ATOM     19  H17 Y13 d   1     -54.327 -94.677 102.954  0.00  0.00     0.087 H 
ATOM     20  H16 Y13 d   1     -56.676 -93.823 103.056  0.00  0.00     0.084 H 
BRANCH  15  21
ATOM     21  O16 Y13 d   1     -52.263 -93.476 101.790  0.00  0.00    -0.361 OA
ATOM     22  H1  Y13 d   1     -52.231 -94.312 102.239  0.00  0.00     0.217 HD
ENDBRANCH  15  21
ENDBRANCH   8  11
ENDBRANCH   5   8
ENDBRANCH   1   5
BRANCH   2  23
ATOM     23  C11 Y13 d   1     -58.382 -91.267  97.245  0.00  0.00    -0.017 C 
ATOM     24  C12 Y13 d   1     -58.935 -91.613  96.056  0.00  0.00    -0.068 C 
ATOM     25  H10 Y13 d   1     -59.679 -92.408  96.077  0.00  0.00     0.085 H 
ATOM     26  H9  Y13 d   1     -57.626 -90.483  97.248  0.00  0.00     0.092 H 
BRANCH  24  27
ATOM     27  C13 Y13 d   1     -58.622 -91.003  94.688  0.00  0.00    -0.033 A 
ATOM     28  C14 Y13 d   1     -59.249 -91.587  93.543  0.00  0.00    -0.070 A 
ATOM     29  C15 Y13 d   1     -59.013 -91.073  92.236  0.00  0.00    -0.047 A 
ATOM     30  H11 Y13 d   1     -59.914 -92.433  93.672  0.00  0.00     0.084 H 
ATOM     31  C16 Y13 d   1     -58.141 -89.959  92.043  0.00  0.00     0.098 A 
ATOM     32  H12 Y13 d   1     -59.499 -91.531  91.382  0.00  0.00     0.087 H 
ATOM     33  C17 Y13 d   1     -57.504 -89.361  93.180  0.00  0.00     0.099 A 
ATOM     34  C18 Y13 d   1     -57.746 -89.883  94.491  0.00  0.00    -0.038 A 
ATOM     35  H15 Y13 d   1     -57.261 -89.426  95.346  0.00  0.00     0.089 H 
BRANCH  31  36
ATOM     36  O19 Y13 d   1     -57.899 -89.442  90.753  0.00  0.00    -0.358 OA
ATOM     37  H13 Y13 d   1     -57.299 -88.708  90.815  0.00  0.00     0.217 HD
ENDBRANCH  31  36
BRANCH  33  38
ATOM     38  O23 Y13 d   1     -56.650 -88.272  92.990  0.00  0.00    -0.358 OA
ATOM     39  H14 Y13 d   1     -56.308 -87.989  93.830  0.00  0.00     0.217 HD
ENDBRANCH  33  38
ENDBRANCH  24  27
ENDBRANCH   2  23
TORSDOF 8
