REMARK  14 active torsions:
REMARK  status: ('A' for Active; 'I' for Inactive)
REMARK    1  A    between atoms: O29_1  and  C26_2 
REMARK    2  A    between atoms: C23_7  and  C11_8 
REMARK    3  A    between atoms: C11_8  and  C8_20 
REMARK    4  A    between atoms: C12_9  and  C17_10 
REMARK    5  A    between atoms: C12_9  and  C13_16 
REMARK    6  A    between atoms: C13_16  and  C14_17 
REMARK    7  A    between atoms: C14_17  and  C15_18 
REMARK    8  A    between atoms: C15_18  and  O16_19 
REMARK    9  A    between atoms: C5_25  and  O4_26 
REMARK   10  A    between atoms: O4_26  and  C3_27 
REMARK   11  A    between atoms: C3_27  and  C2_28 
REMARK   12  A    between atoms: C2_28  and  N1_29 
REMARK   13  A    between atoms: N1_29  and  C31_30 
REMARK   14  A    between atoms: N1_29  and  C30_31 
ROOT
ATOM      1  C11 TXF d   1      20.855   0.441  30.004  0.00  0.00    -0.009 C 
ATOM      2  C12 TXF d   1      20.952  -0.715  30.710  0.00  0.00    -0.036 C 
ENDROOT
BRANCH   1   3
ATOM      3  C23 TXF d   1      22.011   1.220  29.403  0.00  0.00    -0.024 A 
ATOM      4  C24 TXF d   1      22.193   2.595  29.616  0.00  0.00    -0.070 A 
ATOM      5  C25 TXF d   1      23.256   3.275  29.003  0.00  0.00    -0.050 A 
ATOM      6  H3  TXF d   1      21.508   3.135  30.259  0.00  0.00     0.085 H 
ATOM      7  C26 TXF d   1      24.126   2.596  28.151  0.00  0.00     0.065 A 
ATOM      8  H2  TXF d   1      23.401   4.332  29.192  0.00  0.00     0.087 H 
ATOM      9  C27 TXF d   1      23.927   1.248  27.928  0.00  0.00    -0.050 A 
ATOM     10  C28 TXF d   1      22.877   0.570  28.529  0.00  0.00    -0.070 A 
ATOM     11  H4  TXF d   1      24.603   0.711  27.272  0.00  0.00     0.087 H 
ATOM     12  H5  TXF d   1      22.729  -0.482  28.315  0.00  0.00     0.085 H 
BRANCH   7  13
ATOM     13  O29 TXF d   1      25.187   3.204  27.525  0.00  0.00    -0.361 OA
ATOM     14  H1  TXF d   1      24.866   3.906  26.971  0.00  0.00     0.217 HD
ENDBRANCH   7  13
ENDBRANCH   1   3
BRANCH   1  15
ATOM     15  C8  TXF d   1      19.540   1.100  29.757  0.00  0.00    -0.024 A 
ATOM     16  C7  TXF d   1      18.771   1.501  30.846  0.00  0.00    -0.070 A 
ATOM     17  C6  TXF d   1      17.562   2.147  30.649  0.00  0.00    -0.050 A 
ATOM     18  H18 TXF d   1      19.120   1.306  31.854  0.00  0.00     0.085 H 
ATOM     19  C5  TXF d   1      17.125   2.438  29.355  0.00  0.00     0.068 A 
ATOM     20  H19 TXF d   1      16.953   2.427  31.501  0.00  0.00     0.087 H 
ATOM     21  C10 TXF d   1      17.903   2.045  28.270  0.00  0.00    -0.050 A 
ATOM     22  C9  TXF d   1      19.125   1.398  28.467  0.00  0.00    -0.070 A 
ATOM     23  H21 TXF d   1      17.557   2.243  27.262  0.00  0.00     0.087 H 
ATOM     24  H20 TXF d   1      19.744   1.131  27.619  0.00  0.00     0.085 H 
BRANCH  19  25
ATOM     25  O4  TXF d   1      15.910   3.062  29.172  0.00  0.00    -0.350 OA
BRANCH  25  26
ATOM     26  C3  TXF d   1      15.685   4.312  28.540  0.00  0.00     0.049 C 
ATOM     27  H22 TXF d   1      15.348   4.156  27.505  0.00  0.00     0.077 H 
ATOM     28  H23 TXF d   1      16.611   4.906  28.539  0.00  0.00     0.077 H 
BRANCH  26  29
ATOM     29  C2  TXF d   1      14.603   5.032  29.338  0.00  0.00     0.102 C 
ATOM     30  H24 TXF d   1      15.074   5.773  30.001  0.00  0.00     0.079 H 
ATOM     31  H25 TXF d   1      14.050   4.298  29.943  0.00  0.00     0.079 H 
BRANCH  29  32
ATOM     32  N1  TXF d   1      13.665   5.719  28.432  0.00  0.00    -0.077 N 
ATOM     33  H26 TXF d   1      14.196   6.228  27.743  0.00  0.00     0.279 HD
BRANCH  32  34
ATOM     34  C31 TXF d   1      12.823   6.676  29.191  0.00  0.00     0.066 C 
ATOM     35  H27 TXF d   1      12.129   7.180  28.502  0.00  0.00     0.068 H 
ATOM     36  H28 TXF d   1      13.466   7.425  29.677  0.00  0.00     0.068 H 
ATOM     37  H29 TXF d   1      12.250   6.133  29.956  0.00  0.00     0.068 H 
ENDBRANCH  32  34
BRANCH  32  38
ATOM     38  C30 TXF d   1      12.806   4.743  27.741  0.00  0.00     0.066 C 
ATOM     39  H30 TXF d   1      13.434   4.035  27.179  0.00  0.00     0.068 H 
ATOM     40  H31 TXF d   1      12.137   5.271  27.046  0.00  0.00     0.068 H 
ATOM     41  H32 TXF d   1      12.206   4.194  28.481  0.00  0.00     0.068 H 
ENDBRANCH  32  38
ENDBRANCH  29  32
ENDBRANCH  26  29
ENDBRANCH  25  26
ENDBRANCH  19  25
ENDBRANCH   1  15
BRANCH   2  42
ATOM     42  C17 TXF d   1      19.757  -1.460  31.243  0.00  0.00    -0.029 A 
ATOM     43  C22 TXF d   1      19.405  -1.436  32.573  0.00  0.00    -0.072 A 
ATOM     44  C21 TXF d   1      18.305  -2.154  33.029  0.00  0.00    -0.082 A 
ATOM     45  H6  TXF d   1      19.991  -0.851  33.273  0.00  0.00     0.084 H 
ATOM     46  C20 TXF d   1      17.549  -2.909  32.147  0.00  0.00    -0.083 A 
ATOM     47  H7  TXF d   1      18.038  -2.123  34.079  0.00  0.00     0.083 H 
ATOM     48  C19 TXF d   1      17.911  -2.950  30.808  0.00  0.00    -0.082 A 
ATOM     49  H8  TXF d   1      16.685  -3.461  32.499  0.00  0.00     0.083 H 
ATOM     50  C18 TXF d   1      19.008  -2.231  30.360  0.00  0.00    -0.072 A 
ATOM     51  H9  TXF d   1      17.334  -3.546  30.110  0.00  0.00     0.083 H 
ATOM     52  H10 TXF d   1      19.285  -2.270  29.313  0.00  0.00     0.084 H 
ENDBRANCH   2  42
BRANCH   2  53
ATOM     53  C13 TXF d   1      22.260  -1.409  30.998  0.00  0.00    -0.037 C 
ATOM     54  H11 TXF d   1      22.385  -1.506  32.087  0.00  0.00     0.040 H 
ATOM     55  H12 TXF d   1      23.085  -0.809  30.586  0.00  0.00     0.040 H 
BRANCH  53  56
ATOM     56  C14 TXF d   1      22.288  -2.796  30.367  0.00  0.00    -0.042 C 
ATOM     57  H13 TXF d   1      22.040  -2.713  29.298  0.00  0.00     0.036 H 
ATOM     58  H14 TXF d   1      21.546  -3.436  30.867  0.00  0.00     0.036 H 
BRANCH  56  59
ATOM     59  C15 TXF d   1      23.671  -3.420  30.515  0.00  0.00     0.017 C 
ATOM     60  H15 TXF d   1      24.380  -2.901  29.853  0.00  0.00     0.073 H 
ATOM     61  H16 TXF d   1      23.624  -4.484  30.241  0.00  0.00     0.073 H 
BRANCH  59  62
ATOM     62  O16 TXF d   1      24.106  -3.297  31.865  0.00  0.00    -0.401 OA
ATOM     63  H17 TXF d   1      24.968  -3.686  31.956  0.00  0.00     0.209 HD
ENDBRANCH  59  62
ENDBRANCH  56  59
ENDBRANCH  53  56
ENDBRANCH   2  53
TORSDOF 14
