REMARK  11 active torsions:
REMARK  status: ('A' for Active; 'I' for Inactive)
REMARK    1  A    between atoms: N1_1  and  C3_2 
REMARK       I    between atoms: N1_1  and  C45_22 
REMARK    2  A    between atoms: C3_2  and  C5_3 
REMARK    3  A    between atoms: C3_2  and  C31_15 
REMARK    4  A    between atoms: C5_3  and  O7_4 
REMARK    5  A    between atoms: C5_3  and  C9_5 
REMARK    6  A    between atoms: C9_5  and  N12_6 
REMARK    7  A    between atoms: N12_6  and  C14_7 
REMARK    8  A    between atoms: C14_7  and  C17_8 
REMARK    9  A    between atoms: C20_10  and  C27_14 
REMARK   10  A    between atoms: C31_15  and  C34_16 
REMARK   11  A    between atoms: C45_22  and  C47_24 
ROOT
ATOM      1  C3  DBO d   1     107.888  26.182   2.881  0.00  0.00     0.042 C 
ATOM      2  H2  DBO d   1     108.099  25.302   3.506  0.00  0.00     0.077 H 
ENDROOT
BRANCH   1   3
ATOM      3  N1  DBO d   1     107.191  25.742   1.624  0.00  0.00    -0.349 N 
ATOM      4  C45 DBO d   1     106.533  24.522   1.426  0.00  0.00     0.253 C 
ATOM      5  O46 DBO d   1     106.445  23.625   2.301  0.00  0.00    -0.268 OA
ATOM      6  H1  DBO d   1     107.198  26.382   0.856  0.00  0.00     0.163 HD
BRANCH   4   7
ATOM      7  C47 DBO d   1     105.899  24.220   0.156  0.00  0.00     0.045 C 
ATOM      8  C48 DBO d   1     104.553  23.851   0.195  0.00  0.00    -0.054 C 
ATOM      9  C50 DBO d   1     103.685  23.485  -0.976  0.00  0.00    -0.001 A 
ATOM     10  H25 DBO d   1     104.083  23.826   1.177  0.00  0.00     0.086 H 
ATOM     11  C51 DBO d   1     103.837  24.191  -2.340  0.00  0.00     0.086 A 
ATOM     12  C58 DBO d   1     102.688  22.445  -0.797  0.00  0.00    -0.070 A 
ATOM     13  C52 DBO d   1     102.980  23.820  -3.469  0.00  0.00    -0.049 A 
ATOM     14  O60 DBO d   1     104.806  25.212  -2.516  0.00  0.00    -0.309 OA
ATOM     15  C54 DBO d   1     101.974  22.769  -3.287  0.00  0.00    -0.080 A 
ATOM     16  H26 DBO d   1     103.088  24.316  -4.427  0.00  0.00     0.087 H 
ATOM     17  C56 DBO d   1     101.821  22.076  -1.953  0.00  0.00    -0.082 A 
ATOM     18  H27 DBO d   1     101.335  22.487  -4.116  0.00  0.00     0.083 H 
ATOM     19  H28 DBO d   1     101.072  21.301  -1.835  0.00  0.00     0.083 H 
ATOM     20  C61 DBO d   1     106.129  24.824  -2.507  0.00  0.00     0.087 A 
ATOM     21  C62 DBO d   1     106.769  24.314  -1.208  0.00  0.00     0.013 A 
ATOM     22  C69 DBO d   1     106.880  24.929  -3.803  0.00  0.00    -0.049 A 
ATOM     23  C63 DBO d   1     108.221  23.915  -1.297  0.00  0.00    -0.069 A 
ATOM     24  C65 DBO d   1     108.995  24.019  -2.610  0.00  0.00    -0.082 A 
ATOM     25  H30 DBO d   1     108.726  23.547  -0.411  0.00  0.00     0.085 H 
ATOM     26  C67 DBO d   1     108.324  24.527  -3.866  0.00  0.00    -0.080 A 
ATOM     27  H31 DBO d   1     110.038  23.725  -2.642  0.00  0.00     0.083 H 
ATOM     28  H32 DBO d   1     108.877  24.599  -4.796  0.00  0.00     0.083 H 
ATOM     29  H33 DBO d   1     106.379  25.295  -4.692  0.00  0.00     0.087 H 
ATOM     30  H29 DBO d   1     102.576  21.946   0.159  0.00  0.00     0.084 H 
ENDBRANCH   4   7
ENDBRANCH   1   3
BRANCH   1  31
ATOM     31  C5  DBO d   1     107.037  27.141   3.716  0.00  0.00     0.078 C 
ATOM     32  H3  DBO d   1     106.807  28.026   3.104  0.00  0.00     0.088 H 
BRANCH  31  33
ATOM     33  O7  DBO d   1     107.713  27.526   4.849  0.00  0.00    -0.392 OA
ATOM     34  H4  DBO d   1     108.519  27.964   4.602  0.00  0.00     0.210 HD
ENDBRANCH  31  33
BRANCH  31  35
ATOM     35  C9  DBO d   1     105.755  26.512   4.179  0.00  0.00     0.107 C 
ATOM     36  H5  DBO d   1     105.992  25.623   4.782  0.00  0.00     0.079 H 
ATOM     37  H6  DBO d   1     105.168  26.212   3.299  0.00  0.00     0.079 H 
BRANCH  35  38
ATOM     38  N12 DBO d   1     104.963  27.426   4.982  0.00  0.00    -0.069 N 
ATOM     39  H7  DBO d   1     104.362  27.936   4.354  0.00  0.00     0.277 HD
ATOM     40  H8  DBO d   1     105.601  28.065   5.429  0.00  0.00     0.277 HD
BRANCH  38  41
ATOM     41  C14 DBO d   1     104.106  26.844   6.040  0.00  0.00     0.105 C 
ATOM     42  H9  DBO d   1     103.215  26.426   5.549  0.00  0.00     0.083 H 
ATOM     43  H10 DBO d   1     103.806  27.664   6.709  0.00  0.00     0.083 H 
BRANCH  41  44
ATOM     44  C17 DBO d   1     104.721  25.721   6.925  0.00  0.00    -0.032 A 
ATOM     45  C18 DBO d   1     105.933  25.935   7.840  0.00  0.00    -0.070 A 
ATOM     46  C20 DBO d   1     106.499  24.812   8.688  0.00  0.00    -0.061 A 
ATOM     47  H11 DBO d   1     106.397  26.914   7.882  0.00  0.00     0.085 H 
ATOM     48  C21 DBO d   1     105.836  23.435   8.622  0.00  0.00    -0.077 A 
ATOM     49  C23 DBO d   1     104.623  23.208   7.709  0.00  0.00    -0.082 A 
ATOM     50  H12 DBO d   1     106.223  22.619   9.221  0.00  0.00     0.084 H 
ATOM     51  C25 DBO d   1     104.076  24.349   6.871  0.00  0.00    -0.075 A 
ATOM     52  H13 DBO d   1     104.156  22.231   7.663  0.00  0.00     0.083 H 
ATOM     53  H14 DBO d   1     103.218  24.182   6.229  0.00  0.00     0.084 H 
BRANCH  46  54
ATOM     54  C27 DBO d   1     107.727  25.080   9.599  0.00  0.00    -0.051 C 
ATOM     55  H15 DBO d   1     108.040  26.129   9.493  0.00  0.00     0.033 H 
ATOM     56  H16 DBO d   1     108.554  24.418   9.303  0.00  0.00     0.033 H 
ATOM     57  H17 DBO d   1     107.456  24.883  10.647  0.00  0.00     0.033 H 
ENDBRANCH  46  54
ENDBRANCH  41  44
ENDBRANCH  38  41
ENDBRANCH  35  38
ENDBRANCH  31  35
ENDBRANCH   1  31
BRANCH   1  58
ATOM     58  C31 DBO d   1     109.207  26.772   2.401  0.00  0.00    -0.020 C 
ATOM     59  H18 DBO d   1     109.782  27.087   3.285  0.00  0.00     0.043 H 
ATOM     60  H19 DBO d   1     108.981  27.650   1.778  0.00  0.00     0.043 H 
BRANCH  58  61
ATOM     61  C34 DBO d   1     110.088  25.813   1.574  0.00  0.00    -0.056 A 
ATOM     62  C35 DBO d   1     110.760  26.329   0.342  0.00  0.00    -0.077 A 
ATOM     63  C37 DBO d   1     111.641  25.422  -0.505  0.00  0.00    -0.082 A 
ATOM     64  H20 DBO d   1     110.618  27.363   0.048  0.00  0.00     0.084 H 
ATOM     65  C39 DBO d   1     111.828  23.986  -0.081  0.00  0.00    -0.083 A 
ATOM     66  H21 DBO d   1     112.126  25.801  -1.397  0.00  0.00     0.083 H 
ATOM     67  C41 DBO d   1     111.155  23.471   1.153  0.00  0.00    -0.082 A 
ATOM     68  H22 DBO d   1     112.452  23.325  -0.672  0.00  0.00     0.083 H 
ATOM     69  C43 DBO d   1     110.308  24.350   1.964  0.00  0.00    -0.077 A 
ATOM     70  H23 DBO d   1     111.296  22.438   1.450  0.00  0.00     0.083 H 
ATOM     71  H24 DBO d   1     109.830  23.957   2.854  0.00  0.00     0.084 H 
ENDBRANCH  58  61
ENDBRANCH   1  58
TORSDOF 11
