REMARK  7 active torsions:
REMARK  status: ('A' for Active; 'I' for Inactive)
REMARK    1  A    between atoms: C1_1  and  C2_2 
REMARK    2  A    between atoms: C7_7  and  N11_11 
REMARK    3  A    between atoms: C9_9  and  N13_13 
REMARK    4  A    between atoms: N11_11  and  C15_15 
REMARK       I    between atoms: N13_13  and  C16_16 
REMARK    5  A    between atoms: C16_16  and  C19_19 
REMARK    6  A    between atoms: C28_28  and  O29_29 
REMARK    7  A    between atoms: O29_29  and  C30_30 
ROOT
ATOM      1  C2  JNK d   1      19.976   8.376  31.864  0.00  0.00    -0.021 A 
ATOM      2  C5  JNK d   1      20.903   7.394  31.531  0.00  0.00    -0.028 A 
ATOM      3  C6  JNK d   1      18.677   7.966  32.218  0.00  0.00    -0.055 A 
ATOM      4  C9  JNK d   1      20.552   6.060  31.535  0.00  0.00     0.130 A 
ATOM      5  C10 JNK d   1      18.401   6.615  32.243  0.00  0.00     0.005 A 
ATOM      6  N14 JNK d   1      19.333   5.729  31.926  0.00  0.00    -0.243 NA
ATOM      7  H3  JNK d   1      21.914   7.681  31.265  0.00  0.00     0.090 H 
ATOM      8  H4  JNK d   1      17.913   8.694  32.465  0.00  0.00     0.087 H 
ATOM      9  H6  JNK d   1      17.411   6.275  32.525  0.00  0.00     0.114 H 
ENDROOT
BRANCH   4  10
ATOM     10  N13 JNK d   1      21.533   5.081  31.299  0.00  0.00    -0.311 N 
ATOM     11  C16 JNK d   1      22.808   5.319  30.829  0.00  0.00     0.227 C 
ATOM     12  O20 JNK d   1      23.179   6.435  30.487  0.00  0.00    -0.273 OA
ATOM     13  H8  JNK d   1      21.285   4.131  31.488  0.00  0.00     0.170 HD
BRANCH  11  14
ATOM     14  C19 JNK d   1      23.845   4.221  30.752  0.00  0.00     0.024 C 
ATOM     15  C23 JNK d   1      23.420   2.963  31.527  0.00  0.00    -0.051 C 
ATOM     16  C26 JNK d   1      24.663   2.083  31.792  0.00  0.00    -0.040 C 
ATOM     17  H14 JNK d   1      22.688   2.396  30.934  0.00  0.00     0.034 H 
ATOM     18  H15 JNK d   1      22.967   3.257  32.485  0.00  0.00     0.034 H 
ATOM     19  C28 JNK d   1      25.926   2.467  30.963  0.00  0.00     0.038 C 
ATOM     20  H18 JNK d   1      24.402   1.041  31.554  0.00  0.00     0.036 H 
ATOM     21  H19 JNK d   1      24.917   2.163  32.859  0.00  0.00     0.036 H 
ATOM     22  C27 JNK d   1      25.589   2.894  29.600  0.00  0.00    -0.040 C 
ATOM     23  H22 JNK d   1      26.546   1.563  30.874  0.00  0.00     0.083 H 
ATOM     24  C24 JNK d   1      24.394   3.874  29.359  0.00  0.00    -0.051 C 
ATOM     25  H20 JNK d   1      26.486   3.380  29.189  0.00  0.00     0.036 H 
ATOM     26  H21 JNK d   1      25.371   1.981  29.026  0.00  0.00     0.036 H 
ATOM     27  H16 JNK d   1      24.742   4.784  28.848  0.00  0.00     0.034 H 
ATOM     28  H17 JNK d   1      23.617   3.387  28.752  0.00  0.00     0.034 H 
ATOM     29  H11 JNK d   1      24.711   4.623  31.298  0.00  0.00     0.054 H 
BRANCH  19  30
ATOM     30  O29 JNK d   1      26.715   3.467  31.660  0.00  0.00    -0.391 OA
BRANCH  30  31
ATOM     31  C30 JNK d   1      28.134   3.199  31.677  0.00  0.00     0.004 C 
ATOM     32  H23 JNK d   1      28.652   4.002  32.222  0.00  0.00     0.066 H 
ATOM     33  H24 JNK d   1      28.511   3.154  30.645  0.00  0.00     0.066 H 
ATOM     34  H25 JNK d   1      28.320   2.237  32.177  0.00  0.00     0.066 H 
ENDBRANCH  30  31
ENDBRANCH  19  30
ENDBRANCH  11  14
ENDBRANCH   4  10
BRANCH   1  35
ATOM     35  C1  JNK d   1      20.359   9.819  31.781  0.00  0.00    -0.021 A 
ATOM     36  C3  JNK d   1      19.636  10.823  32.447  0.00  0.00    -0.028 A 
ATOM     37  C7  JNK d   1      20.023  12.158  32.298  0.00  0.00     0.128 A 
ATOM     38  H1  JNK d   1      18.787  10.565  33.070  0.00  0.00     0.090 H 
ATOM     39  N12 JNK d   1      21.065  12.452  31.515  0.00  0.00    -0.243 NA
ATOM     40  C8  JNK d   1      21.761  11.542  30.862  0.00  0.00     0.005 A 
ATOM     41  C4  JNK d   1      21.436  10.213  30.971  0.00  0.00    -0.055 A 
ATOM     42  H5  JNK d   1      22.593  11.845  30.237  0.00  0.00     0.114 H 
ATOM     43  H2  JNK d   1      22.010   9.468  30.432  0.00  0.00     0.087 H 
BRANCH  37  44
ATOM     44  N11 JNK d   1      19.345  13.213  32.941  0.00  0.00    -0.341 N 
ATOM     45  H7  JNK d   1      19.602  14.173  32.669  0.00  0.00     0.167 HD
BRANCH  44  46
ATOM     46  C15 JNK d   1      18.347  13.067  33.923  0.00  0.00     0.033 A 
ATOM     47  C17 JNK d   1      17.154  13.809  33.817  0.00  0.00    -0.054 A 
ATOM     48  C21 JNK d   1      16.177  13.651  34.804  0.00  0.00    -0.044 A 
ATOM     49  H9  JNK d   1      16.997  14.488  32.987  0.00  0.00     0.087 H 
ATOM     50  C25 JNK d   1      16.357  12.772  35.892  0.00  0.00     0.116 A 
ATOM     51  H12 JNK d   1      15.257  14.219  34.731  0.00  0.00     0.088 H 
ATOM     52  C22 JNK d   1      17.552  12.049  35.987  0.00  0.00    -0.044 A 
ATOM     53  F31 JNK d   1      15.397  12.624  36.852  0.00  0.00    -0.206 F 
ATOM     54  C18 JNK d   1      18.540  12.201  35.014  0.00  0.00    -0.054 A 
ATOM     55  H13 JNK d   1      17.710  11.370  36.818  0.00  0.00     0.088 H 
ATOM     56  H10 JNK d   1      19.467  11.645  35.100  0.00  0.00     0.087 H 
ENDBRANCH  44  46
ENDBRANCH  37  44
ENDBRANCH   1  35
TORSDOF 7
