REMARK  4 active torsions:
REMARK  status: ('A' for Active; 'I' for Inactive)
REMARK    1  A    between atoms: C8_1  and  C7_8 
REMARK    2  A    between atoms: C11_3  and  S18_7 
REMARK    3  A    between atoms: C7_8  and  C1_9 
REMARK    4  A    between atoms: C4_12  and  C13_15 
ROOT
ATOM      1  C1  STF d   1       3.996   4.702   5.568  0.00  0.00    -0.057 C 
ATOM      2  C6  STF d   1       4.436   4.807   4.255  0.00  0.00    -0.076 C 
ATOM      3  C5  STF d   1       3.738   4.226   3.181  0.00  0.00    -0.068 C 
ATOM      4  C4  STF d   1       2.600   3.429   3.428  0.00  0.00     0.047 C 
ATOM      5  C3  STF d   1       2.249   3.183   4.772  0.00  0.00    -0.068 C 
ATOM      6  C2  STF d   1       2.946   3.759   5.822  0.00  0.00    -0.076 C 
ATOM      7  H5  STF d   1       5.348   5.355   4.051  0.00  0.00     0.084 H 
ATOM      8  H6  STF d   1       4.074   4.390   2.164  0.00  0.00     0.084 H 
ATOM      9  H7  STF d   1       1.413   2.527   4.989  0.00  0.00     0.084 H 
ATOM     10  H8  STF d   1       2.696   3.495   6.843  0.00  0.00     0.084 H 
ENDROOT
BRANCH   1  11
ATOM     11  C7  STF d   1       4.684   5.346   6.722  0.00  0.00    -0.021 C 
ATOM     12  H3  STF d   1       4.320   4.871   7.645  0.00  0.00     0.042 H 
ATOM     13  H4  STF d   1       5.764   5.167   6.619  0.00  0.00     0.042 H 
BRANCH  11  14
ATOM     14  C8  STF d   1       4.467   6.819   6.841  0.00  0.00     0.080 A 
ATOM     15  S12 STF d   1       5.501   7.717   5.591  0.00  0.00    -0.089 SA
ATOM     16  C11 STF d   1       3.997   8.495   4.876  0.00  0.00     0.132 A 
ATOM     17  N10 STF d   1       2.834   8.163   5.475  0.00  0.00    -0.199 NA
ATOM     18  C9  STF d   1       3.012   7.167   6.570  0.00  0.00     0.259 A 
ATOM     19  O17 STF d   1       2.087   6.903   7.304  0.00  0.00    -0.270 OA
ATOM     20  H1  STF d   1       4.743   7.144   7.855  0.00  0.00     0.072 H 
BRANCH  16  21
ATOM     21  S18 STF d   1       4.206   9.691   3.631  0.00  0.00    -0.116 SA
ATOM     22  H2  STF d   1       3.303  10.028   3.336  0.00  0.00     0.109 HD
ENDBRANCH  16  21
ENDBRANCH  11  14
ENDBRANCH   1  11
BRANCH   4  23
ATOM     23  C13 STF d   1       1.814   2.825   2.267  0.00  0.00     0.417 C 
ATOM     24  F16 STF d   1       1.722   3.736   1.232  0.00  0.00    -0.166 F 
ATOM     25  F15 STF d   1       0.555   2.458   2.632  0.00  0.00    -0.166 F 
ATOM     26  F14 STF d   1       2.463   1.705   1.809  0.00  0.00    -0.166 F 
ENDBRANCH   4  23
TORSDOF 4
