REMARK WARNING: 32 MAX_TORS EXCEEDED!!!
REMARK  46 active torsions:
REMARK  status: ('A' for Active; 'I' for Inactive)
REMARK    1  A    between atoms: CA_2  and  N_1 
REMARK    2  A    between atoms: CA_2  and  CB_5 
REMARK    3  A    between atoms: C_3  and  CA_2 
REMARK       I    between atoms: N_17  and  C_3 
REMARK    4  A    between atoms: CB_5  and  CG2_7 
REMARK    5  A    between atoms: CB_5  and  OG1_6 
REMARK    6  A    between atoms: CA_18  and  N_17 
REMARK    7  A    between atoms: C_19  and  CA_18 
REMARK       I    between atoms: N_24  and  C_19 
REMARK    8  A    between atoms: CA_25  and  N_24 
REMARK    9  A    between atoms: CA_25  and  CB_28 
REMARK   10  A    between atoms: C_26  and  CA_25 
REMARK       I    between atoms: N_43  and  C_26 
REMARK   11  A    between atoms: CB_28  and  CG_29 
REMARK   12  A    between atoms: CG_29  and  CD1_30 
REMARK   13  A    between atoms: CG_29  and  CD2_31 
REMARK   14  A    between atoms: C_45  and  CA_44 
REMARK       I    between atoms: N_57  and  C_45 
REMARK   15  A    between atoms: CA_58  and  N_57 
REMARK   16  A    between atoms: CA_58  and  CB_61 
REMARK   17  A    between atoms: C_59  and  CA_58 
REMARK       I    between atoms: N_68  and  C_59 
REMARK   18  A    between atoms: CB_61  and  OG_62 
REMARK   19  A    between atoms: CA_69  and  N_68 
REMARK   20  A    between atoms: CA_69  and  CB_72 
REMARK   21  A    between atoms: C_70  and  CA_69 
REMARK       I    between atoms: N_89  and  C_70 
REMARK   22  A    between atoms: CB_72  and  CG_73 
REMARK   23  A    between atoms: CZ_78  and  OH_79 
REMARK   24  A    between atoms: CA_90  and  N_89 
REMARK   25  A    between atoms: CA_90  and  CB_93 
REMARK   26  A    between atoms: C_91  and  CA_90 
REMARK       I    between atoms: N_101  and  C_91 
REMARK   27  A    between atoms: CB_93  and  CG_94 
REMARK   28  A    between atoms: CA_102  and  N_101 
REMARK   29  A    between atoms: CA_102  and  CB_105 
REMARK   30  A    between atoms: C_103  and  CA_102 
REMARK       I    between atoms: N_116  and  C_103 
REMARK   31  A    between atoms: CB_105  and  CG_106 
REMARK   32  A    between atoms: CG_106  and  CD_107 
REMARK   33  A    between atoms: CA_117  and  N_116 
REMARK   34  A    between atoms: CA_117  and  CB_120 
REMARK   35  A    between atoms: C_118  and  CA_117 
REMARK       I    between atoms: N_126  and  C_118 
REMARK   36  A    between atoms: CA_127  and  N_126 
REMARK   37  A    between atoms: CA_127  and  CB_130 
REMARK   38  A    between atoms: C_128  and  CA_127 
REMARK       I    between atoms: C_128  and  N_145 
REMARK   39  A    between atoms: CB_130  and  CG_131 
REMARK   40  A    between atoms: CG_131  and  CD1_132 
REMARK   41  A    between atoms: CG_131  and  CD2_133 
REMARK   42  A    between atoms: N_145  and  CA_146 
REMARK   43  A    between atoms: CA_146  and  CB_149 
REMARK   44  A    between atoms: CA_146  and  C_147 
REMARK   45  A    between atoms: C_147  and  O1_163 
REMARK   46  A    between atoms: CB_149  and  CG_150 
ROOT
ATOM      1  CA  TYR d   1       9.957  -5.606   2.398  0.00  0.00     0.093 C 
ATOM      2  H37 TYR d   1       9.193  -5.221   3.090  0.00  0.00     0.088 H 
ENDROOT
BRANCH   1   3
ATOM      3  N   TYR d   1      10.510  -4.483   1.649  0.00  0.00    -0.346 N 
ATOM      4  H36 TYR d   1      10.313  -4.405   0.672  0.00  0.00     0.163 HD
ATOM      5  C   SER d   1      11.269  -3.561   2.232  0.00  0.00     0.243 C 
ATOM      6  O   SER d   1      11.555  -3.586   3.429  0.00  0.00    -0.271 OA
BRANCH   5   7
ATOM      7  CA  SER d   1      11.779  -2.442   1.329  0.00  0.00     0.109 C 
ATOM      8  H32 SER d   1      10.986  -2.182   0.613  0.00  0.00     0.090 H 
BRANCH   7   9
ATOM      9  N   SER d   1      12.109  -1.252   2.106  0.00  0.00    -0.344 N 
ATOM     10  H31 SER d   1      12.995  -0.809   1.967  0.00  0.00     0.163 HD
ATOM     11  C   PRO d   1      11.262  -0.743   2.994  0.00  0.00     0.241 C 
ATOM     12  O   PRO d   1      10.155  -1.230   3.221  0.00  0.00    -0.271 OA
BRANCH  11  13
ATOM     13  CA  PRO d   1      11.734   0.503   3.734  0.00  0.00     0.091 C 
ATOM     14  CB  PRO d   1      11.202   0.503   5.174  0.00  0.00    -0.036 C 
ATOM     15  CG  PRO d   1      10.786   1.910   5.438  0.00  0.00    -0.048 C 
ATOM     16  H25 PRO d   1      11.991   0.196   5.877  0.00  0.00     0.036 H 
ATOM     17  H26 PRO d   1      10.343  -0.177   5.268  0.00  0.00     0.036 H 
ATOM     18  CD  PRO d   1      10.337   2.460   4.116  0.00  0.00    -0.001 C 
ATOM     19  H27 PRO d   1       9.960   1.935   6.164  0.00  0.00     0.035 H 
ATOM     20  H28 PRO d   1      11.634   2.493   5.827  0.00  0.00     0.035 H 
ATOM     21  N   PRO d   1      11.181   1.732   3.155  0.00  0.00    -0.337 N 
ATOM     22  H29 PRO d   1       9.271   2.253   3.943  0.00  0.00     0.064 H 
ATOM     23  H30 PRO d   1      10.514   3.544   4.057  0.00  0.00     0.064 H 
ATOM     24  C   LEU d   1      11.436   2.116   1.893  0.00  0.00     0.243 C 
ATOM     25  O   LEU d   1      12.155   1.453   1.144  0.00  0.00    -0.271 OA
ATOM     26  H24 PRO d   1      12.834   0.534   3.724  0.00  0.00     0.087 H 
BRANCH  24  27
ATOM     27  CA  LEU d   1      10.797   3.416   1.412  0.00  0.00     0.090 C 
ATOM     28  H14 LEU d   1       9.755   3.444   1.765  0.00  0.00     0.087 H 
BRANCH  27  29
ATOM     29  N   LEU d   1      11.499   4.573   1.958  0.00  0.00    -0.346 N 
ATOM     30  H13 LEU d   1      11.014   5.188   2.580  0.00  0.00     0.163 HD
ATOM     31  C   GLY d   1      12.766   4.831   1.651  0.00  0.00     0.236 C 
ATOM     32  O   GLY d   1      13.432   4.124   0.896  0.00  0.00    -0.272 OA
BRANCH  31  33
ATOM     33  CA  GLY d   1      13.373   6.065   2.291  0.00  0.00     0.069 C 
ATOM     34  H11 GLY d   1      12.559   6.726   2.624  0.00  0.00     0.078 H 
ATOM     35  H12 GLY d   1      13.970   5.753   3.160  0.00  0.00     0.078 H 
BRANCH  33  36
ATOM     36  N   GLY d   1      14.228   6.804   1.381  0.00  0.00    -0.350 N 
ATOM     37  H10 GLY d   1      15.168   6.500   1.229  0.00  0.00     0.163 HD
ATOM     38  C   THR d   1      13.774   7.881   0.747  0.00  0.00     0.251 C 
ATOM     39  O   THR d   1      12.628   8.307   0.889  0.00  0.00    -0.271 OA
BRANCH  38  40
ATOM     40  CA  THR d   1      14.758   8.581  -0.182  0.00  0.00     0.199 C 
ATOM     41  H4  THR d   1      14.203   9.294  -0.809  0.00  0.00     0.103 H 
BRANCH  40  42
ATOM     42  N   THR d   1      15.777   9.337   0.589  0.00  0.00    -0.064 N 
ATOM     43  H1  THR d   1      16.413   9.789  -0.049  0.00  0.00     0.275 HD
ATOM     44  H2  THR d   1      16.289   8.702   1.181  0.00  0.00     0.275 HD
ATOM     45  H3  THR d   1      15.320  10.033   1.157  0.00  0.00     0.275 HD
ENDBRANCH  40  42
BRANCH  40  46
ATOM     46  CB  THR d   1      15.417   7.531  -1.095  0.00  0.00     0.068 C 
ATOM     47  H5  THR d   1      14.632   7.031  -1.681  0.00  0.00     0.086 H 
BRANCH  46  48
ATOM     48  CG2 THR d   1      16.398   8.189  -2.054  0.00  0.00    -0.050 C 
ATOM     49  H7  THR d   1      16.855   7.421  -2.695  0.00  0.00     0.031 H 
ATOM     50  H8  THR d   1      17.183   8.703  -1.480  0.00  0.00     0.031 H 
ATOM     51  H9  THR d   1      15.865   8.919  -2.680  0.00  0.00     0.031 H 
ENDBRANCH  46  48
BRANCH  46  52
ATOM     52  OG1 THR d   1      16.100   6.552  -0.304  0.00  0.00    -0.393 OA
ATOM     53  H6  THR d   1      15.484   6.144   0.293  0.00  0.00     0.210 HD
ENDBRANCH  46  52
ENDBRANCH  40  46
ENDBRANCH  38  40
ENDBRANCH  33  36
ENDBRANCH  31  33
ENDBRANCH  27  29
BRANCH  27  54
ATOM     54  CB  LEU d   1      10.794   3.463  -0.117  0.00  0.00    -0.035 C 
ATOM     55  H15 LEU d   1      11.837   3.545  -0.458  0.00  0.00     0.037 H 
ATOM     56  H16 LEU d   1      10.235   4.357  -0.430  0.00  0.00     0.037 H 
BRANCH  54  57
ATOM     57  CG  LEU d   1      10.166   2.249  -0.800  0.00  0.00    -0.059 C 
ATOM     58  H17 LEU d   1      10.565   1.339  -0.328  0.00  0.00     0.038 H 
BRANCH  57  59
ATOM     59  CD1 LEU d   1       8.656   2.261  -0.622  0.00  0.00    -0.073 C 
ATOM     60  H18 LEU d   1       8.221   1.381  -1.119  0.00  0.00     0.028 H 
ATOM     61  H19 LEU d   1       8.241   3.177  -1.069  0.00  0.00     0.028 H 
ATOM     62  H20 LEU d   1       8.413   2.233   0.450  0.00  0.00     0.028 H 
ENDBRANCH  57  59
BRANCH  57  63
ATOM     63  CD2 LEU d   1      10.530   2.223  -2.278  0.00  0.00    -0.073 C 
ATOM     64  H21 LEU d   1      11.625   2.215  -2.386  0.00  0.00     0.028 H 
ATOM     65  H22 LEU d   1      10.120   3.116  -2.772  0.00  0.00     0.028 H 
ATOM     66  H23 LEU d   1      10.109   1.320  -2.744  0.00  0.00     0.028 H 
ENDBRANCH  57  63
ENDBRANCH  54  57
ENDBRANCH  27  54
ENDBRANCH  24  27
ENDBRANCH  11  13
ENDBRANCH   7   9
BRANCH   7  67
ATOM     67  CB  SER d   1      13.005  -2.921   0.549  0.00  0.00     0.044 C 
ATOM     68  H33 SER d   1      13.182  -2.239  -0.296  0.00  0.00     0.077 H 
ATOM     69  H34 SER d   1      12.815  -3.935   0.168  0.00  0.00     0.077 H 
BRANCH  67  70
ATOM     70  OG  SER d   1      14.157  -2.945   1.373  0.00  0.00    -0.398 OA
ATOM     71  H35 SER d   1      14.902  -3.245   0.865  0.00  0.00     0.209 HD
ENDBRANCH  67  70
ENDBRANCH   7  67
ENDBRANCH   5   7
ENDBRANCH   1   3
BRANCH   1  72
ATOM     72  CB  TYR d   1       9.296  -6.604   1.444  0.00  0.00    -0.014 C 
ATOM     73  H38 TYR d   1      10.087  -7.168   0.929  0.00  0.00     0.043 H 
ATOM     74  H39 TYR d   1       8.707  -6.040   0.705  0.00  0.00     0.043 H 
BRANCH  72  75
ATOM     75  CG  TYR d   1       8.379  -7.589   2.134  0.00  0.00    -0.056 A 
ATOM     76  CD1 TYR d   1       8.867  -8.478   3.084  0.00  0.00    -0.074 A 
ATOM     77  CE1 TYR d   1       8.030  -9.379   3.714  0.00  0.00    -0.051 A 
ATOM     78  H40 TYR d   1       9.921  -8.464   3.335  0.00  0.00     0.084 H 
ATOM     79  CZ  TYR d   1       6.688  -9.399   3.400  0.00  0.00     0.065 A 
ATOM     80  H42 TYR d   1       8.427 -10.067   4.452  0.00  0.00     0.087 H 
ATOM     81  CE2 TYR d   1       6.180  -8.527   2.461  0.00  0.00    -0.051 A 
ATOM     82  CD2 TYR d   1       7.023  -7.629   1.834  0.00  0.00    -0.074 A 
ATOM     83  H43 TYR d   1       5.124  -8.546   2.216  0.00  0.00     0.087 H 
ATOM     84  H41 TYR d   1       6.620  -6.945   1.096  0.00  0.00     0.084 H 
BRANCH  79  85
ATOM     85  OH  TYR d   1       5.852 -10.296   4.025  0.00  0.00    -0.361 OA
ATOM     86  H44 TYR d   1       6.354 -10.820   4.638  0.00  0.00     0.217 HD
ENDBRANCH  79  85
ENDBRANCH  72  75
ENDBRANCH   1  72
BRANCH   1  87
ATOM     87  C   TYR d   1      11.040  -6.306   3.213  0.00  0.00     0.241 C 
ATOM     88  O   TYR d   1      11.712  -7.213   2.721  0.00  0.00    -0.271 OA
ATOM     89  N   ASP d   1      11.204  -5.882   4.463  0.00  0.00    -0.345 N 
ATOM     90  H45 ASP d   1      10.627  -5.141   4.805  0.00  0.00     0.163 HD
BRANCH  89  91
ATOM     91  CA  ASP d   1      12.205  -6.470   5.349  0.00  0.00     0.098 C 
ATOM     92  H46 ASP d   1      11.889  -7.493   5.600  0.00  0.00     0.088 H 
BRANCH  91  93
ATOM     93  CB  ASP d   1      13.566  -6.536   4.650  0.00  0.00     0.043 C 
ATOM     94  H47 ASP d   1      14.301  -5.985   5.255  0.00  0.00     0.052 H 
ATOM     95  H48 ASP d   1      13.478  -6.064   3.660  0.00  0.00     0.052 H 
BRANCH  93  96
ATOM     96  CG  ASP d   1      14.054  -7.960   4.468  0.00  0.00     0.175 C 
ATOM     97  OD1 ASP d   1      13.383  -8.730   3.749  0.00  0.00    -0.648 OA
ATOM     98  OD2 ASP d   1      15.108  -8.305   5.043  0.00  0.00    -0.648 OA
ENDBRANCH  93  96
ENDBRANCH  91  93
BRANCH  91  99
ATOM     99  C   ASP d   1      12.326  -5.669   6.641  0.00  0.00     0.241 C 
ATOM    100  O   ASP d   1      12.598  -6.226   7.705  0.00  0.00    -0.271 OA
ATOM    101  N   GLU d   1      12.126  -4.359   6.541  0.00  0.00    -0.346 N 
ATOM    102  H49 GLU d   1      11.908  -3.966   5.648  0.00  0.00     0.163 HD
BRANCH 101 103
ATOM    103  CA  GLU d   1      12.217  -3.481   7.702  0.00  0.00     0.090 C 
ATOM    104  H50 GLU d   1      12.762  -4.011   8.497  0.00  0.00     0.087 H 
BRANCH 103 105
ATOM    105  CB  GLU d   1      12.988  -2.209   7.345  0.00  0.00    -0.029 C 
ATOM    106  H51 GLU d   1      13.416  -1.792   8.268  0.00  0.00     0.037 H 
ATOM    107  H52 GLU d   1      12.283  -1.486   6.908  0.00  0.00     0.037 H 
BRANCH 105 108
ATOM    108  CG  GLU d   1      14.117  -2.438   6.353  0.00  0.00     0.018 C 
ATOM    109  H53 GLU d   1      13.846  -1.967   5.397  0.00  0.00     0.049 H 
ATOM    110  H54 GLU d   1      14.242  -3.521   6.206  0.00  0.00     0.049 H 
BRANCH 108 111
ATOM    111  CD  GLU d   1      15.435  -1.857   6.824  0.00  0.00     0.172 C 
ATOM    112  OE2 GLU d   1      16.331  -2.643   7.197  0.00  0.00    -0.648 OA
ATOM    113  OE1 GLU d   1      15.572  -0.615   6.822  0.00  0.00    -0.648 OA
ENDBRANCH 108 111
ENDBRANCH 105 108
ENDBRANCH 103 105
BRANCH 103 114
ATOM    114  C   GLU d   1      10.830  -3.119   8.224  0.00  0.00     0.241 C 
ATOM    115  O   GLU d   1      10.588  -3.135   9.431  0.00  0.00    -0.271 OA
ATOM    116  N   ALA d   1       9.923  -2.792   7.309  0.00  0.00    -0.346 N 
ATOM    117  H55 ALA d   1      10.180  -2.798   6.343  0.00  0.00     0.163 HD
BRANCH 116 118
ATOM    118  CA  ALA d   1       8.561  -2.425   7.681  0.00  0.00     0.086 C 
ATOM    119  H56 ALA d   1       8.603  -1.839   8.611  0.00  0.00     0.086 H 
BRANCH 118 120
ATOM    120  CB  ALA d   1       7.932  -1.564   6.597  0.00  0.00    -0.049 C 
ATOM    121  H57 ALA d   1       6.907  -1.295   6.891  0.00  0.00     0.030 H 
ATOM    122  H58 ALA d   1       7.907  -2.125   5.651  0.00  0.00     0.030 H 
ATOM    123  H59 ALA d   1       8.527  -0.648   6.465  0.00  0.00     0.030 H 
ENDBRANCH 118 120
BRANCH 118 124
ATOM    124  C   ALA d   1       7.710  -3.664   7.935  0.00  0.00     0.240 C 
ATOM    125  O   ALA d   1       6.746  -3.925   7.215  0.00  0.00    -0.271 OA
ATOM    126  N   LEU d   1       8.072  -4.424   8.962  0.00  0.00    -0.346 N 
ATOM    127  H60 LEU d   1       8.865  -4.158   9.509  0.00  0.00     0.163 HD
BRANCH 126 128
ATOM    128  CA  LEU d   1       7.342  -5.637   9.312  0.00  0.00     0.089 C 
ATOM    129  H61 LEU d   1       6.315  -5.548   8.928  0.00  0.00     0.087 H 
BRANCH 128 130
ATOM    130  CB  LEU d   1       8.001  -6.858   8.667  0.00  0.00    -0.035 C 
ATOM    131  H62 LEU d   1       7.715  -7.747   9.248  0.00  0.00     0.037 H 
ATOM    132  H63 LEU d   1       9.091  -6.723   8.717  0.00  0.00     0.037 H 
BRANCH 130 133
ATOM    133  CG  LEU d   1       7.621  -7.105   7.206  0.00  0.00    -0.059 C 
ATOM    134  H64 LEU d   1       6.983  -6.275   6.868  0.00  0.00     0.038 H 
BRANCH 133 135
ATOM    135  CD1 LEU d   1       8.863  -7.143   6.331  0.00  0.00    -0.073 C 
ATOM    136  H65 LEU d   1       8.570  -7.321   5.286  0.00  0.00     0.028 H 
ATOM    137  H66 LEU d   1       9.525  -7.954   6.669  0.00  0.00     0.028 H 
ATOM    138  H67 LEU d   1       9.393  -6.182   6.404  0.00  0.00     0.028 H 
ENDBRANCH 133 135
BRANCH 133 139
ATOM    139  CD2 LEU d   1       6.834  -8.401   7.073  0.00  0.00    -0.073 C 
ATOM    140  H68 LEU d   1       5.940  -8.354   7.713  0.00  0.00     0.028 H 
ATOM    141  H69 LEU d   1       7.465  -9.247   7.385  0.00  0.00     0.028 H 
ATOM    142  H70 LEU d   1       6.528  -8.539   6.025  0.00  0.00     0.028 H 
ENDBRANCH 133 139
ENDBRANCH 130 133
ENDBRANCH 128 130
BRANCH 128 143
ATOM    143  C   LEU d   1       7.280  -5.818  10.825  0.00  0.00     0.241 C 
ATOM    144  O   LEU d   1       7.330  -6.940  11.328  0.00  0.00    -0.271 OA
ATOM    145  N   HIS d   1       7.169  -4.706  11.545  0.00  0.00    -0.344 N 
ATOM    146  H71 HIS d   1       7.132  -3.823  11.077  0.00  0.00     0.163 HD
BRANCH 145 147
ATOM    147  CA  HIS d   1       7.100  -4.743  13.001  0.00  0.00     0.098 C 
ATOM    148  H72 HIS d   1       7.603  -5.657  13.351  0.00  0.00     0.090 H 
BRANCH 147 149
ATOM    149  CB  HIS d   1       7.818  -3.530  13.596  0.00  0.00     0.005 C 
ATOM    150  H73 HIS d   1       7.699  -3.557  14.689  0.00  0.00     0.046 H 
ATOM    151  H74 HIS d   1       7.348  -2.618  13.198  0.00  0.00     0.046 H 
BRANCH 149 152
ATOM    152  CG  HIS d   1       9.281  -3.484  13.281  0.00  0.00     0.053 A 
ATOM    153  ND1 HIS d   1       9.932  -2.332  12.893  0.00  0.00    -0.247 NA
ATOM    154  CE1 HIS d   1      11.209  -2.599  12.684  0.00  0.00     0.064 A 
ATOM    155  NE2 HIS d   1      11.411  -3.882  12.923  0.00  0.00    -0.359 N 
ATOM    156  H76 HIS d   1      11.966  -1.883  12.368  0.00  0.00     0.143 H 
ATOM    157  CD2 HIS d   1      10.222  -4.458  13.297  0.00  0.00     0.002 A 
ATOM    158  H77 HIS d   1      12.314  -4.371  12.842  0.00  0.00     0.166 HD
ATOM    159  H75 HIS d   1      10.065  -5.503  13.558  0.00  0.00     0.114 H 
ENDBRANCH 149 152
ENDBRANCH 147 149
BRANCH 147 160
ATOM    160  C   HIS d   1       5.651  -4.774  13.475  0.00  0.00     0.163 C 
ATOM    161  O   HIS d   1       5.283  -5.612  14.296  0.00  0.00    -0.648 OA
BRANCH 160 162
ATOM    162  O1  HIS d   1       4.780  -3.889  12.998  0.00  0.00    -0.775 OA
ATOM    163  H78 HIS d   1       4.073  -4.348  12.560  0.00  0.00     0.167 HD
ENDBRANCH 160 162
ENDBRANCH 147 160
ENDBRANCH 145 147
ENDBRANCH 128 143
ENDBRANCH 126 128
ENDBRANCH 118 124
ENDBRANCH 116 118
ENDBRANCH 103 114
ENDBRANCH 101 103
ENDBRANCH  91  99
ENDBRANCH  89  91
ENDBRANCH   1  87
TORSDOF 46
