REMARK  5 active torsions:
REMARK  status: ('A' for Active; 'I' for Inactive)
REMARK    1  A    between atoms: C11_1  and  C10_4 
REMARK    2  A    between atoms: C10_4  and  C9_5 
REMARK    3  A    between atoms: C9_5  and  C8_6 
REMARK    4  A    between atoms: C8_6  and  C7_7 
REMARK    5  A    between atoms: C7_7  and  C2_8 
ROOT
ATOM      1  C2  BTN d   1      29.172  14.621  11.753  0.00  0.00     0.012 C 
ATOM      2  S1  BTN d   1      27.610  15.216  11.738  0.00  0.00    -0.160 SA
ATOM      3  C6  BTN d   1      27.173  14.650  10.176  0.00  0.00    -0.002 C 
ATOM      4  C5  BTN d   1      27.870  13.298  10.092  0.00  0.00     0.042 A 
ATOM      5  N1  BTN d   1      26.981  12.233  10.569  0.00  0.00    -0.336 N 
ATOM      6  C3  BTN d   1      27.531  11.636  11.666  0.00  0.00     0.316 A 
ATOM      7  O3  BTN d   1      26.988  10.682  12.255  0.00  0.00    -0.247 OA
ATOM      8  N2  BTN d   1      28.718  12.167  11.976  0.00  0.00    -0.335 N 
ATOM      9  C4  BTN d   1      29.070  13.260  11.036  0.00  0.00     0.046 A 
ATOM     10  H9  BTN d   1      29.639  15.265  10.993  0.00  0.00     0.059 H 
ATOM     11  H10 BTN d   1      27.537  15.331   9.393  0.00  0.00     0.052 H 
ATOM     12  H11 BTN d   1      26.082  14.538  10.087  0.00  0.00     0.052 H 
ATOM     13  H12 BTN d   1      28.184  13.108   9.055  0.00  0.00     0.077 H 
ATOM     14  H13 BTN d   1      26.106  11.983  10.154  0.00  0.00     0.164 HD
ATOM     15  H14 BTN d   1      29.291  11.868  12.739  0.00  0.00     0.164 HD
ATOM     16  H15 BTN d   1      30.007  13.041  10.502  0.00  0.00     0.077 H 
ENDROOT
BRANCH   1  17
ATOM     17  C7  BTN d   1      30.196  14.750  12.794  0.00  0.00    -0.051 C 
ATOM     18  H7  BTN d   1      29.854  14.175  13.667  0.00  0.00     0.034 H 
ATOM     19  H8  BTN d   1      31.123  14.306  12.403  0.00  0.00     0.034 H 
BRANCH  17  20
ATOM     20  C8  BTN d   1      30.527  16.148  13.271  0.00  0.00    -0.063 C 
ATOM     21  H5  BTN d   1      31.117  16.657  12.495  0.00  0.00     0.033 H 
ATOM     22  H6  BTN d   1      29.589  16.697  13.438  0.00  0.00     0.033 H 
BRANCH  20  23
ATOM     23  C9  BTN d   1      31.332  16.136  14.575  0.00  0.00    -0.056 C 
ATOM     24  H3  BTN d   1      30.700  15.736  15.382  0.00  0.00     0.033 H 
ATOM     25  H4  BTN d   1      32.214  15.491  14.446  0.00  0.00     0.033 H 
BRANCH  23  26
ATOM     26  C10 BTN d   1      31.779  17.491  14.942  0.00  0.00     0.016 C 
ATOM     27  H1  BTN d   1      30.888  18.136  14.975  0.00  0.00     0.049 H 
ATOM     28  H2  BTN d   1      32.226  17.432  15.945  0.00  0.00     0.049 H 
BRANCH  26  29
ATOM     29  C11 BTN d   1      32.771  18.144  14.048  0.00  0.00     0.172 C 
ATOM     30  O11 BTN d   1      33.702  17.454  13.516  0.00  0.00    -0.648 OA
ATOM     31  O12 BTN d   1      32.721  19.445  13.867  0.00  0.00    -0.648 OA
ENDBRANCH  26  29
ENDBRANCH  23  26
ENDBRANCH  20  23
ENDBRANCH  17  20
ENDBRANCH   1  17
TORSDOF 5
