REMARK  10 active torsions:
REMARK  status: ('A' for Active; 'I' for Inactive)
REMARK    1  A    between atoms: C1_1  and  C2_4 
REMARK    2  A    between atoms: C4_6  and  NE_20 
REMARK    3  A    between atoms: C5_7  and  N5_8 
REMARK    4  A    between atoms: C10_9  and  C11_11 
REMARK    5  A    between atoms: C6_12  and  C7_14 
REMARK    6  A    between atoms: C7_14  and  O7_15 
REMARK    7  A    between atoms: C7_14  and  C8_16 
REMARK    8  A    between atoms: C8_16  and  O8_17 
REMARK    9  A    between atoms: C8_16  and  C9_18 
REMARK   10  A    between atoms: C9_18  and  O9_19 
REMARK       I    between atoms: NE_20  and  CZ_21 
REMARK       I    between atoms: CZ_21  and  NH1_22 
ROOT
ATOM      1  C2  ZMR d   1      33.976  27.694  26.934  0.00  0.00     0.124 C 
ATOM      2  C3  ZMR d   1      33.577  28.950  27.653  0.00  0.00    -0.010 C 
ATOM      3  C4  ZMR d   1      33.090  28.667  29.086  0.00  0.00     0.051 C 
ATOM      4  C5  ZMR d   1      33.797  27.456  29.691  0.00  0.00     0.059 C 
ATOM      5  C6  ZMR d   1      33.565  26.241  28.772  0.00  0.00     0.088 C 
ATOM      6  O6  ZMR d   1      34.113  26.533  27.477  0.00  0.00    -0.365 OA
ATOM      7  H1  ZMR d   1      32.914  27.483  26.741  0.00  0.00     0.100 H 
ATOM      8  H2  ZMR d   1      32.766  29.437  27.092  0.00  0.00     0.040 H 
ATOM      9  H3  ZMR d   1      34.446  29.623  27.700  0.00  0.00     0.040 H 
ATOM     10  H4  ZMR d   1      32.009  28.466  29.069  0.00  0.00     0.076 H 
ATOM     11  H5  ZMR d   1      34.878  27.644  29.772  0.00  0.00     0.079 H 
ATOM     12  H10 ZMR d   1      32.483  26.059  28.694  0.00  0.00     0.090 H 
ENDROOT
BRANCH   5  13
ATOM     13  C7  ZMR d   1      34.263  24.949  29.264  0.00  0.00     0.089 C 
ATOM     14  H11 ZMR d   1      33.887  24.717  30.271  0.00  0.00     0.091 H 
BRANCH  13  15
ATOM     15  O7  ZMR d   1      35.676  25.154  29.309  0.00  0.00    -0.390 OA
ATOM     16  H12 ZMR d   1      36.101  24.360  29.611  0.00  0.00     0.210 HD
ENDBRANCH  13  15
BRANCH  13  17
ATOM     17  C8  ZMR d   1      34.039  23.721  28.349  0.00  0.00     0.083 C 
ATOM     18  H13 ZMR d   1      34.434  23.969  27.352  0.00  0.00     0.090 H 
BRANCH  17  19
ATOM     19  O8  ZMR d   1      32.645  23.420  28.240  0.00  0.00    -0.391 OA
ATOM     20  H14 ZMR d   1      32.189  24.167  27.870  0.00  0.00     0.210 HD
ENDBRANCH  17  19
BRANCH  17  21
ATOM     21  C9  ZMR d   1      34.737  22.435  28.847  0.00  0.00     0.043 C 
ATOM     22  H15 ZMR d   1      35.249  21.972  27.991  0.00  0.00     0.078 H 
ATOM     23  H16 ZMR d   1      33.963  21.751  29.225  0.00  0.00     0.078 H 
BRANCH  21  24
ATOM     24  O9  ZMR d   1      35.684  22.629  29.869  0.00  0.00    -0.398 OA
ATOM     25  H17 ZMR d   1      35.258  23.018  30.624  0.00  0.00     0.209 HD
ENDBRANCH  21  24
ENDBRANCH  17  21
ENDBRANCH  13  17
ENDBRANCH   5  13
BRANCH   4  26
ATOM     26  N5  ZMR d   1      33.230  27.273  31.032  0.00  0.00    -0.363 N 
ATOM     27  C10 ZMR d   1      33.917  27.126  32.160  0.00  0.00     0.147 C 
ATOM     28  O10 ZMR d   1      35.292  27.131  32.203  0.00  0.00    -0.178 OA
ATOM     29  H6  ZMR d   1      32.233  27.257  31.104  0.00  0.00     0.162 HD
BRANCH  27  30
ATOM     30  C11 ZMR d   1      33.159  26.939  33.455  0.00  0.00    -0.015 C 
ATOM     31  H7  ZMR d   1      33.873  26.833  34.285  0.00  0.00     0.038 H 
ATOM     32  H8  ZMR d   1      32.537  26.034  33.389  0.00  0.00     0.038 H 
ATOM     33  H9  ZMR d   1      32.516  27.814  33.633  0.00  0.00     0.038 H 
ENDBRANCH  27  30
ENDBRANCH   4  26
BRANCH   3  34
ATOM     34  NE  ZMR d   1      33.345  29.867  29.865  0.00  0.00    -0.220 N 
ATOM     35  CZ  ZMR d   1      32.497  30.519  30.870  0.00  0.00     0.665 C 
ATOM     36  NH1 ZMR d   1      31.301  30.026  31.199  0.00  0.00    -0.235 N 
ATOM     37  NH2 ZMR d   1      32.939  31.625  31.462  0.00  0.00    -0.235 N 
ATOM     38  H19 ZMR d   1      30.725  30.502  31.907  0.00  0.00     0.174 HD
ATOM     39  H20 ZMR d   1      30.954  29.169  30.744  0.00  0.00     0.174 HD
ATOM     40  H21 ZMR d   1      33.861  32.010  31.212  0.00  0.00     0.174 HD
ATOM     41  H22 ZMR d   1      32.359  32.097  32.171  0.00  0.00     0.174 HD
ATOM     42  H18 ZMR d   1      34.250  30.325  29.686  0.00  0.00     0.178 HD
ENDBRANCH   3  34
BRANCH   1  43
ATOM     43  C1  ZMR d   1      34.253  27.743  25.555  0.00  0.00     0.203 C 
ATOM     44  O1A ZMR d   1      34.571  26.613  24.849  0.00  0.00    -0.646 OA
ATOM     45  O1B ZMR d   1      34.215  28.873  24.934  0.00  0.00    -0.646 OA
ENDBRANCH   1  43
TORSDOF 10
