REMARK  11 active torsions:
REMARK  status: ('A' for Active; 'I' for Inactive)
REMARK    1  A    between atoms: S1_1  and  N1_4 
REMARK    2  A    between atoms: C1_5  and  S1_1 
REMARK    3  A    between atoms: C7_11  and  C4_8 
REMARK    4  A    between atoms: C29_12  and  C7_11 
REMARK    5  A    between atoms: N2_13  and  C29_12 
REMARK    6  A    between atoms: C8_14  and  N2_13 
REMARK    7  A    between atoms: N3_16  and  C8_14 
REMARK    8  A    between atoms: C9_17  and  N3_16 
REMARK    9  A    between atoms: C16_26  and  C12_20 
REMARK   10  A    between atoms: C13_21  and  C15_23 
REMARK   11  A    between atoms: C19_29  and  O6_40 
ROOT
ATOM      1  C9  FL1 d   1      -1.881  10.157  12.335  0.00  0.00     0.035 A 
ATOM      2  C10 FL1 d   1      -1.840  10.927  13.515  0.00  0.00    -0.056 A 
ATOM      3  C11 FL1 d   1      -1.975  12.322  13.460  0.00  0.00    -0.069 A 
ATOM      4  C12 FL1 d   1      -2.157  12.985  12.201  0.00  0.00    -0.007 A 
ATOM      5  C13 FL1 d   1      -2.204  12.193  10.985  0.00  0.00     0.054 A 
ATOM      6  C14 FL1 d   1      -2.063  10.796  11.093  0.00  0.00    -0.040 A 
ATOM      7  H13 FL1 d   1      -1.703  10.437  14.472  0.00  0.00     0.086 H 
ATOM      8  H14 FL1 d   1      -1.942  12.903  14.375  0.00  0.00     0.085 H 
ATOM      9  H15 FL1 d   1      -2.095  10.194  10.192  0.00  0.00     0.088 H 
ENDROOT
BRANCH   1  10
ATOM     10  N3  FL1 d   1      -1.737   8.743  12.395  0.00  0.00    -0.333 N 
ATOM     11  H12 FL1 d   1      -1.667   8.334  11.485  0.00  0.00     0.168 HD
BRANCH  10  12
ATOM     12  C8  FL1 d   1      -1.671   7.811  13.379  0.00  0.00     0.172 C 
ATOM     13  S2  FL1 d   1      -1.748   8.187  15.022  0.00  0.00    -0.041 SA
BRANCH  12  14
ATOM     14  N2  FL1 d   1      -1.535   6.575  12.937  0.00  0.00    -0.367 N 
ATOM     15  H11 FL1 d   1      -1.016   6.440  12.093  0.00  0.00     0.161 HD
BRANCH  14  16
ATOM     16  C29 FL1 d   1      -2.078   5.404  13.580  0.00  0.00    -0.002 C 
ATOM     17  H9  FL1 d   1      -1.722   4.509  13.049  0.00  0.00     0.064 H 
ATOM     18  H10 FL1 d   1      -1.728   5.376  14.623  0.00  0.00     0.064 H 
BRANCH  16  19
ATOM     19  C7  FL1 d   1      -3.605   5.409  13.571  0.00  0.00    -0.026 C 
ATOM     20  H7  FL1 d   1      -3.952   6.374  13.969  0.00  0.00     0.042 H 
ATOM     21  H8  FL1 d   1      -3.947   5.296  12.532  0.00  0.00     0.042 H 
BRANCH  19  22
ATOM     22  C4  FL1 d   1      -4.228   4.283  14.413  0.00  0.00    -0.057 A 
ATOM     23  C3  FL1 d   1      -3.447   3.177  14.849  0.00  0.00    -0.075 A 
ATOM     24  C2  FL1 d   1      -3.970   2.158  15.595  0.00  0.00    -0.060 A 
ATOM     25  H4  FL1 d   1      -2.398   3.141  14.579  0.00  0.00     0.084 H 
ATOM     26  C1  FL1 d   1      -5.336   2.213  15.941  0.00  0.00     0.079 A 
ATOM     27  H3  FL1 d   1      -3.350   1.328  15.913  0.00  0.00     0.085 H 
ATOM     28  C6  FL1 d   1      -6.167   3.302  15.530  0.00  0.00    -0.060 A 
ATOM     29  C5  FL1 d   1      -5.600   4.313  14.776  0.00  0.00    -0.075 A 
ATOM     30  H6  FL1 d   1      -7.216   3.334  15.803  0.00  0.00     0.085 H 
ATOM     31  H5  FL1 d   1      -6.216   5.146  14.456  0.00  0.00     0.084 H 
BRANCH  26  32
ATOM     32  S1  FL1 d   1      -6.017   0.883  16.916  0.00  0.00     0.256 S 
ATOM     33  O1  FL1 d   1      -5.454   0.995  18.244  0.00  0.00    -0.201 OA
ATOM     34  O2  FL1 d   1      -7.450   0.947  16.776  0.00  0.00    -0.201 OA
BRANCH  32  35
ATOM     35  N1  FL1 d   1      -5.491  -0.495  16.283  0.00  0.00    -0.324 N 
ATOM     36  H1  FL1 d   1      -4.514  -0.709  16.292  0.00  0.00     0.169 HD
ATOM     37  H2  FL1 d   1      -6.140  -1.140  15.879  0.00  0.00     0.169 HD
ENDBRANCH  32  35
ENDBRANCH  26  32
ENDBRANCH  19  22
ENDBRANCH  16  19
ENDBRANCH  14  16
ENDBRANCH  12  14
ENDBRANCH  10  12
ENDBRANCH   1  10
BRANCH   5  38
ATOM     38  C15 FL1 d   1      -2.400  12.795   9.590  0.00  0.00     0.210 C 
ATOM     39  O3  FL1 d   1      -1.619  13.714   9.234  0.00  0.00    -0.644 OA
ATOM     40  O4  FL1 d   1      -3.330  12.350   8.878  0.00  0.00    -0.644 OA
ENDBRANCH   5  38
BRANCH   4  41
ATOM     41  C16 FL1 d   1      -2.290  14.518  12.249  0.00  0.00     0.001 A 
ATOM     42  C25 FL1 d   1      -3.559  15.132  12.025  0.00  0.00     0.010 A 
ATOM     43  C24 FL1 d   1      -4.809  14.403  11.752  0.00  0.00    -0.066 A 
ATOM     44  C26 FL1 d   1      -3.670  16.582  12.069  0.00  0.00     0.091 A 
ATOM     45  C23 FL1 d   1      -6.000  15.052  11.543  0.00  0.00    -0.034 A 
ATOM     46  H21 FL1 d   1      -4.788  13.315  11.715  0.00  0.00     0.085 H 
ATOM     47  C22 FL1 d   1      -6.072  16.520  11.589  0.00  0.00     0.174 A 
ATOM     48  H20 FL1 d   1      -6.901  14.474  11.341  0.00  0.00     0.089 H 
ATOM     49  C21 FL1 d   1      -4.866  17.259  11.859  0.00  0.00    -0.001 A 
ATOM     50  O7  FL1 d   1      -7.192  17.106  11.389  0.00  0.00    -0.288 OA
ATOM     51  H19 FL1 d   1      -4.891  18.347  11.899  0.00  0.00     0.094 H 
ATOM     52  O5  FL1 d   1      -2.551  17.367  12.321  0.00  0.00    -0.309 OA
ATOM     53  C28 FL1 d   1      -1.303  16.808  12.546  0.00  0.00     0.089 A 
ATOM     54  C20 FL1 d   1      -0.263  17.701  12.790  0.00  0.00    -0.018 A 
ATOM     55  C27 FL1 d   1      -1.134  15.364  12.511  0.00  0.00     0.010 A 
ATOM     56  C19 FL1 d   1       1.070  17.217  13.033  0.00  0.00     0.068 A 
ATOM     57  H18 FL1 d   1      -0.459  18.767  12.797  0.00  0.00     0.092 H 
ATOM     58  C18 FL1 d   1       1.267  15.783  13.006  0.00  0.00    -0.050 A 
ATOM     59  C17 FL1 d   1       0.227  14.904  12.760  0.00  0.00    -0.067 A 
ATOM     60  H17 FL1 d   1       2.260  15.386  13.184  0.00  0.00     0.087 H 
ATOM     61  H16 FL1 d   1       0.431  13.839  12.752  0.00  0.00     0.085 H 
BRANCH  56  62
ATOM     62  O6  FL1 d   1       2.089  18.023  13.270  0.00  0.00    -0.361 OA
ATOM     63  H22 FL1 d   1       2.212  18.603  12.528  0.00  0.00     0.217 HD
ENDBRANCH  56  62
ENDBRANCH   4  41
TORSDOF 11
