REMARK  8 active torsions:
REMARK  status: ('A' for Active; 'I' for Inactive)
REMARK    1  A    between atoms: C8_1  and  N7_2 
REMARK    2  A    between atoms: C10_16  and  C8_1 
REMARK    3  A    between atoms: C8_1  and  C9_17 
REMARK    4  A    between atoms: N7_2  and  C6_3 
REMARK    5  A    between atoms: C6_3  and  C5_4 
REMARK    6  A    between atoms: C3_7  and  O3_8 
REMARK    7  A    between atoms: C4_9  and  O4_10 
REMARK    8  A    between atoms: C9_17  and  O9_18 
ROOT
ATOM      1  N7  GB2 d   1      29.894  65.067  10.978  0.00  0.00    -0.063 N 
ATOM      2  H2  GB2 d   1      29.817  64.088  10.753  0.00  0.00     0.278 HD
ATOM      3  H3  GB2 d   1      30.822  65.261  11.320  0.00  0.00     0.278 HD
ENDROOT
BRANCH   1   4
ATOM      4  C8  GB2 d   1      29.014  65.265  12.129  0.00  0.00     0.147 C 
ATOM      5  H1  GB2 d   1      29.575  65.015  13.041  0.00  0.00     0.095 H 
BRANCH   4   6
ATOM      6  C10 GB2 d   1      28.556  66.736  12.259  0.00  0.00    -0.026 A 
ATOM      7  C15 GB2 d   1      27.382  67.327  11.668  0.00  0.00    -0.075 A 
ATOM      8  C14 GB2 d   1      27.073  68.715  11.823  0.00  0.00    -0.082 A 
ATOM      9  H15 GB2 d   1      26.713  66.701  11.089  0.00  0.00     0.084 H 
ATOM     10  C13 GB2 d   1      27.924  69.560  12.572  0.00  0.00    -0.083 A 
ATOM     11  H16 GB2 d   1      26.180  69.122  11.363  0.00  0.00     0.083 H 
ATOM     12  C12 GB2 d   1      29.064  68.969  13.140  0.00  0.00    -0.082 A 
ATOM     13  H17 GB2 d   1      27.707  70.614  12.702  0.00  0.00     0.083 H 
ATOM     14  C11 GB2 d   1      29.417  67.596  13.017  0.00  0.00    -0.075 A 
ATOM     15  H18 GB2 d   1      29.725  69.607  13.716  0.00  0.00     0.083 H 
ATOM     16  H19 GB2 d   1      30.315  67.210  13.485  0.00  0.00     0.084 H 
ENDBRANCH   4   6
BRANCH   4  17
ATOM     17  C9  GB2 d   1      27.851  64.285  12.003  0.00  0.00     0.047 C 
ATOM     18  H20 GB2 d   1      27.048  64.736  11.401  0.00  0.00     0.077 H 
ATOM     19  H21 GB2 d   1      27.464  64.037  13.002  0.00  0.00     0.077 H 
BRANCH  17  20
ATOM     20  O9  GB2 d   1      28.327  63.103  11.363  0.00  0.00    -0.398 OA
ATOM     21  H22 GB2 d   1      27.614  62.482  11.277  0.00  0.00     0.209 HD
ENDBRANCH  17  20
ENDBRANCH   4  17
ENDBRANCH   1   4
BRANCH   1  22
ATOM     22  C6  GB2 d   1      29.808  65.758   9.700  0.00  0.00     0.111 C 
ATOM     23  H4  GB2 d   1      29.912  66.843   9.847  0.00  0.00     0.079 H 
ATOM     24  H5  GB2 d   1      28.843  65.544   9.216  0.00  0.00     0.079 H 
BRANCH  22  25
ATOM     25  C5  GB2 d   1      30.957  65.230   8.842  0.00  0.00     0.151 C 
ATOM     26  N1  GB2 d   1      30.755  65.365   7.415  0.00  0.00    -0.064 N 
ATOM     27  C2  GB2 d   1      31.326  66.569   6.813  0.00  0.00     0.108 C 
ATOM     28  H7  GB2 d   1      29.762  65.371   7.240  0.00  0.00     0.277 HD
ATOM     29  H8  GB2 d   1      31.171  64.565   6.965  0.00  0.00     0.277 HD
ATOM     30  C3  GB2 d   1      32.651  66.527   7.575  0.00  0.00     0.085 C 
ATOM     31  H9  GB2 d   1      30.739  67.472   7.034  0.00  0.00     0.079 H 
ATOM     32  H10 GB2 d   1      31.460  66.476   5.725  0.00  0.00     0.079 H 
ATOM     33  C4  GB2 d   1      32.254  66.020   8.976  0.00  0.00     0.090 C 
ATOM     34  H11 GB2 d   1      33.032  67.555   7.665  0.00  0.00     0.089 H 
ATOM     35  H13 GB2 d   1      32.118  66.879   9.649  0.00  0.00     0.090 H 
ATOM     36  H6  GB2 d   1      31.116  64.175   9.111  0.00  0.00     0.091 H 
BRANCH  30  37
ATOM     37  O3  GB2 d   1      33.681  65.767   6.967  0.00  0.00    -0.391 OA
ATOM     38  H12 GB2 d   1      34.460  65.800   7.510  0.00  0.00     0.210 HD
ENDBRANCH  30  37
BRANCH  33  39
ATOM     39  O4  GB2 d   1      33.208  65.124   9.529  0.00  0.00    -0.391 OA
ATOM     40  H14 GB2 d   1      34.046  65.564   9.606  0.00  0.00     0.210 HD
ENDBRANCH  33  39
ENDBRANCH  22  25
ENDBRANCH   1  22
TORSDOF 8
