REMARK  13 active torsions:
REMARK  status: ('A' for Active; 'I' for Inactive)
REMARK    1  A    between atoms: O1_1  and  C15_2 
REMARK    2  A    between atoms: C15_2  and  C12_3 
REMARK    3  A    between atoms: C12_3  and  C13_4 
REMARK    4  A    between atoms: C12_3  and  N2_7 
REMARK    5  A    between atoms: C13_4  and  C14_5 
REMARK    6  A    between atoms: C13_4  and  C16_6 
REMARK    7  A    between atoms: N2_7  and  C2_8 
REMARK    8  A    between atoms: N9_14  and  C9_15 
REMARK    9  A    between atoms: C9_15  and  C10_16 
REMARK   10  A    between atoms: C9_15  and  C11_17 
REMARK   11  A    between atoms: C6_18  and  N6_20 
REMARK   12  A    between atoms: N6_20  and  C1A_21 
REMARK   13  A    between atoms: C3A_23  and  N10_24 
ROOT
ATOM      1  C2  AP9 d   1      30.978  22.865  60.321  0.00  0.00     0.726 A 
ATOM      2  N3  AP9 d   1      31.858  23.789  60.788  0.00  0.00    -0.042 NA
ATOM      3  C4  AP9 d   1      32.181  23.896  62.098  0.00  0.00     0.183 A 
ATOM      4  C5  AP9 d   1      31.544  22.963  63.039  0.00  0.00     0.151 A 
ATOM      5  N7  AP9 d   1      32.029  23.278  64.254  0.00  0.00    -0.236 NA
ATOM      6  C8  AP9 d   1      32.893  24.314  64.105  0.00  0.00     0.069 A 
ATOM      7  N9  AP9 d   1      32.995  24.691  62.817  0.00  0.00    -0.320 N 
ATOM      8  C6  AP9 d   1      30.592  21.948  62.495  0.00  0.00     0.180 A 
ATOM      9  N1  AP9 d   1      30.358  21.966  61.151  0.00  0.00    -0.043 NA
ATOM     10  H13 AP9 d   1      33.436  24.782  64.925  0.00  0.00     0.143 H 
ENDROOT
BRANCH   1  11
ATOM     11  N2  AP9 d   1      30.774  22.902  58.976  0.00  0.00    -0.215 N 
ATOM     12  H12 AP9 d   1      31.365  23.561  58.449  0.00  0.00     0.178 HD
BRANCH  11  13
ATOM     13  C12 AP9 d   1      29.823  22.126  58.186  0.00  0.00     0.049 C 
ATOM     14  H4  AP9 d   1      29.690  22.654  57.230  0.00  0.00     0.077 H 
BRANCH  13  15
ATOM     15  C15 AP9 d   1      28.438  22.074  58.840  0.00  0.00     0.036 C 
ATOM     16  H2  AP9 d   1      28.122  21.026  58.949  0.00  0.00     0.077 H 
ATOM     17  H3  AP9 d   1      28.481  22.549  59.831  0.00  0.00     0.077 H 
BRANCH  15  18
ATOM     18  O1  AP9 d   1      27.499  22.774  58.014  0.00  0.00    -0.399 OA
ATOM     19  H1  AP9 d   1      26.639  22.743  58.417  0.00  0.00     0.209 HD
ENDBRANCH  15  18
ENDBRANCH  13  15
BRANCH  13  20
ATOM     20  C13 AP9 d   1      30.419  20.761  57.850  0.00  0.00    -0.039 C 
ATOM     21  H5  AP9 d   1      30.346  20.125  58.744  0.00  0.00     0.042 H 
BRANCH  20  22
ATOM     22  C14 AP9 d   1      31.892  20.905  57.482  0.00  0.00    -0.071 C 
ATOM     23  H6  AP9 d   1      32.309  19.916  57.242  0.00  0.00     0.028 H 
ATOM     24  H7  AP9 d   1      32.441  21.338  58.331  0.00  0.00     0.028 H 
ATOM     25  H8  AP9 d   1      31.989  21.565  56.607  0.00  0.00     0.028 H 
ENDBRANCH  20  22
BRANCH  20  26
ATOM     26  C16 AP9 d   1      29.650  20.082  56.720  0.00  0.00    -0.071 C 
ATOM     27  H9  AP9 d   1      28.591  19.987  57.003  0.00  0.00     0.028 H 
ATOM     28  H10 AP9 d   1      30.072  19.083  56.538  0.00  0.00     0.028 H 
ATOM     29  H11 AP9 d   1      29.732  20.687  55.805  0.00  0.00     0.028 H 
ENDBRANCH  20  26
ENDBRANCH  13  20
ENDBRANCH  11  13
ENDBRANCH   1  11
BRANCH   8  30
ATOM     30  N6  AP9 d   1      29.980  21.091  63.356  0.00  0.00    -0.338 N 
ATOM     31  H21 AP9 d   1      29.776  21.471  64.291  0.00  0.00     0.167 HD
BRANCH  30  32
ATOM     32  C1A AP9 d   1      29.603  19.810  63.153  0.00  0.00     0.037 A 
ATOM     33  C2A AP9 d   1      30.182  18.813  63.945  0.00  0.00    -0.032 A 
ATOM     34  C3A AP9 d   1      29.809  17.475  63.806  0.00  0.00     0.029 A 
ATOM     35  H22 AP9 d   1      30.933  19.084  64.679  0.00  0.00     0.090 H 
ATOM     36  C4A AP9 d   1      28.835  17.125  62.875  0.00  0.00    -0.037 A 
ATOM     37  C5A AP9 d   1      28.244  18.119  62.091  0.00  0.00     0.038 A 
ATOM     38  H25 AP9 d   1      28.537  16.089  62.759  0.00  0.00     0.089 H 
ATOM     39 CL1  AP9 d   1      27.203  17.723  61.085  0.00  0.00    -0.084 Cl
ATOM     40  C6A AP9 d   1      28.615  19.464  62.229  0.00  0.00    -0.036 A 
ATOM     41  H26 AP9 d   1      28.140  20.228  61.624  0.00  0.00     0.089 H 
BRANCH  34  42
ATOM     42  N10 AP9 d   1      30.392  16.526  64.573  0.00  0.00    -0.399 N 
ATOM     43  H23 AP9 d   1      30.116  15.539  64.470  0.00  0.00     0.156 HD
ATOM     44  H24 AP9 d   1      31.112  16.790  65.261  0.00  0.00     0.156 HD
ENDBRANCH  34  42
ENDBRANCH  30  32
ENDBRANCH   8  30
BRANCH   7  45
ATOM     45  C9  AP9 d   1      33.867  25.813  62.334  0.00  0.00     0.012 C 
ATOM     46  H14 AP9 d   1      34.908  25.619  62.630  0.00  0.00     0.072 H 
BRANCH  45  47
ATOM     47  C10 AP9 d   1      33.353  27.099  62.977  0.00  0.00    -0.057 C 
ATOM     48  H15 AP9 d   1      33.970  27.947  62.645  0.00  0.00     0.030 H 
ATOM     49  H16 AP9 d   1      33.411  27.010  64.072  0.00  0.00     0.030 H 
ATOM     50  H17 AP9 d   1      32.308  27.267  62.677  0.00  0.00     0.030 H 
ENDBRANCH  45  47
BRANCH  45  51
ATOM     51  C11 AP9 d   1      33.796  26.027  60.819  0.00  0.00    -0.057 C 
ATOM     52  H18 AP9 d   1      34.456  26.860  60.535  0.00  0.00     0.030 H 
ATOM     53  H19 AP9 d   1      32.761  26.264  60.530  0.00  0.00     0.030 H 
ATOM     54  H20 AP9 d   1      34.120  25.111  60.304  0.00  0.00     0.030 H 
ENDBRANCH  45  51
ENDBRANCH   7  45
TORSDOF 13
