REMARK  22 active torsions:
REMARK  status: ('A' for Active; 'I' for Inactive)
REMARK    1  A    between atoms: C5_3  and  C55_27 
REMARK    2  A    between atoms: C10_6  and  C50_25 
REMARK    3  A    between atoms: C15_9  and  N31_16 
REMARK       I    between atoms: N31_16  and  C33_17 
REMARK    4  A    between atoms: C33_17  and  O35_19 
REMARK    5  A    between atoms: O35_19  and  C36_20 
REMARK    6  A    between atoms: C36_20  and  C37_21 
REMARK    7  A    between atoms: C36_20  and  C41_22 
REMARK    8  A    between atoms: C36_20  and  C45_23 
REMARK    9  A    between atoms: C55_27  and  O57_28 
REMARK   10  A    between atoms: C55_27  and  C59_29 
REMARK   11  A    between atoms: C59_29  and  C62_30 
REMARK   12  A    between atoms: C62_30  and  C64_31 
REMARK   13  A    between atoms: C62_30  and  C68_32 
REMARK       I    between atoms: C68_32  and  N70_34 
REMARK   14  A    between atoms: N70_34  and  C72_35 
REMARK   15  A    between atoms: C72_35  and  C74_36 
REMARK   16  A    between atoms: C72_35  and  C84_39 
REMARK   17  A    between atoms: C74_36  and  C76_37 
REMARK   18  A    between atoms: C74_36  and  C80_38 
REMARK       I    between atoms: C84_39  and  N86_41 
REMARK   19  A    between atoms: N86_41  and  C88_42 
REMARK   20  A    between atoms: C88_42  and  C91_43 
REMARK   21  A    between atoms: C91_43  and  C94_44 
REMARK   22  A    between atoms: C94_44  and  C97_45 
ROOT
ATOM      1  S1  AXQ d   1      31.595   8.537  15.444  0.00  0.00    -0.163 SA
ATOM      2  C2  AXQ d   1      32.394   6.882  15.531  0.00  0.00    -0.002 C 
ATOM      3  C5  AXQ d   1      31.363   5.888  14.894  0.00  0.00     0.045 C 
ATOM      4  N7  AXQ d   1      30.304   5.657  15.871  0.00  0.00    -0.351 N 
ATOM      5  C9  AXQ d   1      29.006   5.706  15.486  0.00  0.00     0.240 C 
ATOM      6  C10 AXQ d   1      27.987   5.413  16.578  0.00  0.00     0.086 C 
ATOM      7  N12 AXQ d   1      28.054   6.499  17.554  0.00  0.00    -0.346 N 
ATOM      8  C14 AXQ d   1      27.611   6.317  18.819  0.00  0.00     0.242 C 
ATOM      9  C15 AXQ d   1      27.757   7.504  19.722  0.00  0.00     0.099 C 
ATOM     10  C17 AXQ d   1      29.242   7.552  20.072  0.00  0.00     0.004 C 
ATOM     11  S20 AXQ d   1      29.580   9.096  20.887  0.00  0.00    -0.163 SA
ATOM     12  C21 AXQ d   1      31.373   9.066  20.559  0.00  0.00    -0.008 C 
ATOM     13  C24 AXQ d   1      31.675   9.593  19.169  0.00  0.00    -0.097 C 
ATOM     14  C26 AXQ d   1      32.044   8.805  18.149  0.00  0.00    -0.097 C 
ATOM     15  C28 AXQ d   1      32.396   9.417  16.820  0.00  0.00    -0.008 C 
ATOM     16  O49 AXQ d   1      27.124   5.284  19.248  0.00  0.00    -0.271 OA
ATOM     17  O54 AXQ d   1      28.653   5.957  14.343  0.00  0.00    -0.271 OA
ATOM     18  H1  AXQ d   1      32.598   6.607  16.576  0.00  0.00     0.052 H 
ATOM     19  H2  AXQ d   1      33.335   6.878  14.961  0.00  0.00     0.052 H 
ATOM     20  H3  AXQ d   1      30.918   6.370  14.011  0.00  0.00     0.077 H 
ATOM     21  H4  AXQ d   1      30.536   5.463  16.824  0.00  0.00     0.163 HD
ATOM     22  H5  AXQ d   1      28.285   4.479  17.077  0.00  0.00     0.086 H 
ATOM     23  H6  AXQ d   1      28.431   7.385  17.284  0.00  0.00     0.163 HD
ATOM     24  H7  AXQ d   1      27.478   8.422  19.184  0.00  0.00     0.088 H 
ATOM     25  H8  AXQ d   1      29.842   7.478  19.153  0.00  0.00     0.052 H 
ATOM     26  H9  AXQ d   1      29.493   6.716  20.742  0.00  0.00     0.052 H 
ATOM     27  H10 AXQ d   1      31.737   8.031  20.639  0.00  0.00     0.054 H 
ATOM     28  H11 AXQ d   1      31.886   9.694  21.302  0.00  0.00     0.054 H 
ATOM     29  H12 AXQ d   1      31.588  10.664  18.991  0.00  0.00     0.077 H 
ATOM     30  H13 AXQ d   1      32.089   7.725  18.282  0.00  0.00     0.077 H 
ATOM     31  H14 AXQ d   1      32.067  10.467  16.812  0.00  0.00     0.054 H 
ATOM     32  H15 AXQ d   1      33.487   9.373  16.685  0.00  0.00     0.054 H 
ENDROOT
BRANCH   3  33
ATOM     33  C55 AXQ d   1      32.043   4.557  14.409  0.00  0.00     0.056 C 
ATOM     34  H29 AXQ d   1      32.779   4.809  13.631  0.00  0.00     0.086 H 
BRANCH  33  35
ATOM     35  O57 AXQ d   1      32.683   3.900  15.484  0.00  0.00    -0.393 OA
ATOM     36  H30 AXQ d   1      33.350   4.469  15.850  0.00  0.00     0.210 HD
ENDBRANCH  33  35
BRANCH  33  37
ATOM     37  C59 AXQ d   1      31.044   3.526  13.854  0.00  0.00    -0.028 C 
ATOM     38  H31 AXQ d   1      30.219   4.034  13.332  0.00  0.00     0.038 H 
ATOM     39  H32 AXQ d   1      30.638   2.909  14.669  0.00  0.00     0.038 H 
BRANCH  37  40
ATOM     40  C62 AXQ d   1      31.841   2.661  12.876  0.00  0.00     0.022 C 
ATOM     41  H33 AXQ d   1      32.878   2.563  13.230  0.00  0.00     0.054 H 
BRANCH  40  42
ATOM     42  C64 AXQ d   1      31.210   1.272  12.679  0.00  0.00    -0.065 C 
ATOM     43  H34 AXQ d   1      31.818   0.691  11.970  0.00  0.00     0.028 H 
ATOM     44  H35 AXQ d   1      30.191   1.385  12.281  0.00  0.00     0.028 H 
ATOM     45  H36 AXQ d   1      31.171   0.747  13.645  0.00  0.00     0.028 H 
ENDBRANCH  40  42
BRANCH  40  46
ATOM     46  C68 AXQ d   1      31.791   3.311  11.507  0.00  0.00     0.222 C 
ATOM     47  O69 AXQ d   1      30.806   3.962  11.185  0.00  0.00    -0.273 OA
ATOM     48  N70 AXQ d   1      32.857   3.137  10.717  0.00  0.00    -0.347 N 
ATOM     49  H37 AXQ d   1      33.651   2.620  11.037  0.00  0.00     0.163 HD
BRANCH  48  50
ATOM     50  C72 AXQ d   1      32.835   3.720   9.376  0.00  0.00     0.092 C 
ATOM     51  H38 AXQ d   1      32.515   4.769   9.462  0.00  0.00     0.088 H 
BRANCH  50  52
ATOM     52  C74 AXQ d   1      34.229   3.706   8.715  0.00  0.00    -0.033 C 
ATOM     53  H39 AXQ d   1      34.954   4.191   9.385  0.00  0.00     0.042 H 
BRANCH  52  54
ATOM     54  C76 AXQ d   1      34.648   2.258   8.460  0.00  0.00    -0.071 C 
ATOM     55  H40 AXQ d   1      35.642   2.241   7.989  0.00  0.00     0.028 H 
ATOM     56  H41 AXQ d   1      33.918   1.777   7.793  0.00  0.00     0.028 H 
ATOM     57  H42 AXQ d   1      34.686   1.714   9.415  0.00  0.00     0.028 H 
ENDBRANCH  52  54
BRANCH  52  58
ATOM     58  C80 AXQ d   1      34.203   4.448   7.362  0.00  0.00    -0.071 C 
ATOM     59  H43 AXQ d   1      33.903   5.494   7.523  0.00  0.00     0.028 H 
ATOM     60  H44 AXQ d   1      33.482   3.959   6.690  0.00  0.00     0.028 H 
ATOM     61  H45 AXQ d   1      35.205   4.419   6.909  0.00  0.00     0.028 H 
ENDBRANCH  52  58
ENDBRANCH  50  52
BRANCH  50  62
ATOM     62  C84 AXQ d   1      31.823   2.982   8.539  0.00  0.00     0.240 C 
ATOM     63  O85 AXQ d   1      31.632   1.789   8.756  0.00  0.00    -0.271 OA
ATOM     64  N86 AXQ d   1      31.167   3.685   7.590  0.00  0.00    -0.359 N 
ATOM     65  H46 AXQ d   1      31.354   4.657   7.446  0.00  0.00     0.162 HD
BRANCH  64  66
ATOM     66  C88 AXQ d   1      30.173   2.978   6.779  0.00  0.00    -0.005 C 
ATOM     67  H47 AXQ d   1      29.692   2.200   7.390  0.00  0.00     0.064 H 
ATOM     68  H48 AXQ d   1      30.672   2.511   5.917  0.00  0.00     0.064 H 
BRANCH  66  69
ATOM     69  C91 AXQ d   1      29.102   3.965   6.275  0.00  0.00    -0.051 C 
ATOM     70  H49 AXQ d   1      28.612   3.549   5.382  0.00  0.00     0.035 H 
ATOM     71  H50 AXQ d   1      29.578   4.923   6.020  0.00  0.00     0.035 H 
BRANCH  69  72
ATOM     72  C94 AXQ d   1      28.055   4.192   7.372  0.00  0.00    -0.067 C 
ATOM     73  H51 AXQ d   1      28.536   4.622   8.263  0.00  0.00     0.032 H 
ATOM     74  H52 AXQ d   1      27.580   3.236   7.637  0.00  0.00     0.032 H 
BRANCH  72  75
ATOM     75  C97 AXQ d   1      26.996   5.166   6.832  0.00  0.00    -0.076 C 
ATOM     76  H53 AXQ d   1      26.233   5.343   7.604  0.00  0.00     0.027 H 
ATOM     77  H54 AXQ d   1      26.520   4.733   5.940  0.00  0.00     0.027 H 
ATOM     78  H55 AXQ d   1      27.476   6.119   6.565  0.00  0.00     0.027 H 
ENDBRANCH  72  75
ENDBRANCH  69  72
ENDBRANCH  66  69
ENDBRANCH  64  66
ENDBRANCH  50  62
ENDBRANCH  48  50
ENDBRANCH  40  46
ENDBRANCH  37  40
ENDBRANCH  33  37
ENDBRANCH   3  33
BRANCH   6  79
ATOM     79  C50 AXQ d   1      26.536   5.211  16.049  0.00  0.00    -0.049 C 
ATOM     80  H26 AXQ d   1      26.523   4.388  15.319  0.00  0.00     0.030 H 
ATOM     81  H27 AXQ d   1      26.190   6.136  15.565  0.00  0.00     0.030 H 
ATOM     82  H28 AXQ d   1      25.870   4.966  16.890  0.00  0.00     0.030 H 
ENDBRANCH   6  79
BRANCH   9  83
ATOM     83  N31 AXQ d   1      26.887   7.375  20.891  0.00  0.00    -0.323 N 
ATOM     84  C33 AXQ d   1      25.541   7.439  20.694  0.00  0.00     0.362 C 
ATOM     85  O34 AXQ d   1      25.023   7.640  19.595  0.00  0.00    -0.238 OA
ATOM     86  H16 AXQ d   1      27.269   7.244  21.806  0.00  0.00     0.165 HD
BRANCH  84  87
ATOM     87  O35 AXQ d   1      24.827   7.246  21.854  0.00  0.00    -0.294 OA
BRANCH  87  88
ATOM     88  C36 AXQ d   1      23.354   7.251  21.671  0.00  0.00     0.061 C 
BRANCH  88  89
ATOM     89  C37 AXQ d   1      22.682   7.001  23.044  0.00  0.00    -0.048 C 
ATOM     90  H17 AXQ d   1      21.589   7.002  22.923  0.00  0.00     0.031 H 
ATOM     91  H18 AXQ d   1      22.974   7.796  23.745  0.00  0.00     0.031 H 
ATOM     92  H19 AXQ d   1      23.006   6.027  23.439  0.00  0.00     0.031 H 
ENDBRANCH  88  89
BRANCH  88  93
ATOM     93  C41 AXQ d   1      22.842   8.617  21.128  0.00  0.00    -0.048 C 
ATOM     94  H20 AXQ d   1      21.749   8.577  21.008  0.00  0.00     0.031 H 
ATOM     95  H21 AXQ d   1      23.311   8.824  20.155  0.00  0.00     0.031 H 
ATOM     96  H22 AXQ d   1      23.104   9.415  21.838  0.00  0.00     0.031 H 
ENDBRANCH  88  93
BRANCH  88  97
ATOM     97  C45 AXQ d   1      22.912   6.106  20.716  0.00  0.00    -0.048 C 
ATOM     98  H23 AXQ d   1      21.819   6.130  20.596  0.00  0.00     0.031 H 
ATOM     99  H24 AXQ d   1      23.213   5.137  21.141  0.00  0.00     0.031 H 
ATOM    100  H25 AXQ d   1      23.391   6.241  19.735  0.00  0.00     0.031 H 
ENDBRANCH  88  97
ENDBRANCH  87  88
ENDBRANCH  84  87
ENDBRANCH   9  83
TORSDOF 22
