REMARK  11 active torsions:
REMARK  status: ('A' for Active; 'I' for Inactive)
REMARK    1  A    between atoms: C20_10  and  C72_33 
REMARK    2  A    between atoms: C25_13  and  C41_20 
REMARK    3  A    between atoms: C41_20  and  O43_21 
REMARK    4  A    between atoms: C41_20  and  C45_22 
REMARK    5  A    between atoms: C45_22  and  C48_23 
REMARK    6  A    between atoms: C48_23  and  C50_24 
REMARK    7  A    between atoms: C48_23  and  C54_25 
REMARK       I    between atoms: C54_25  and  N56_27 
REMARK    8  A    between atoms: N56_27  and  C58_28 
REMARK    9  A    between atoms: C58_28  and  C61_29 
REMARK   10  A    between atoms: C61_29  and  C64_30 
REMARK   11  A    between atoms: C64_30  and  C67_31 
ROOT
ATOM      1  C2  AXF d   1      29.845   9.012  18.655  0.00  0.00     0.027 C 
ATOM      2  C4  AXF d   1      29.362   7.769  19.458  0.00  0.00     0.189 C 
ATOM      3  S1  AXF d   1      28.436  10.072  18.074  0.00  0.00    -0.158 SA
ATOM      4  N6  AXF d   1      28.700   8.146  20.716  0.00  0.00    -0.061 N 
ATOM      5  C8  AXF d   1      29.693   8.820  21.591  0.00  0.00     0.083 C 
ATOM      6  C11 AXF d   1      30.185  10.131  20.918  0.00  0.00    -0.041 C 
ATOM      7  C14 AXF d   1      30.837   9.811  19.537  0.00  0.00    -0.050 C 
ATOM      8  C17 AXF d   1      28.616   6.761  18.651  0.00  0.00     0.250 C 
ATOM      9  N18 AXF d   1      29.001   6.715  17.360  0.00  0.00    -0.346 N 
ATOM     10  C20 AXF d   1      28.461   5.720  16.456  0.00  0.00     0.086 C 
ATOM     11  C22 AXF d   1      29.415   5.738  15.305  0.00  0.00     0.240 C 
ATOM     12  N23 AXF d   1      30.725   5.538  15.625  0.00  0.00    -0.351 N 
ATOM     13  C25 AXF d   1      31.733   5.593  14.589  0.00  0.00     0.045 C 
ATOM     14  C27 AXF d   1      32.993   6.381  15.068  0.00  0.00    -0.002 C 
ATOM     15  S30 AXF d   1      32.495   7.880  15.994  0.00  0.00    -0.163 SA
ATOM     16  C31 AXF d   1      31.831   8.971  14.663  0.00  0.00    -0.008 C 
ATOM     17  C34 AXF d   1      31.213  10.083  15.481  0.00  0.00    -0.097 C 
ATOM     18  C36 AXF d   1      29.912  10.058  15.780  0.00  0.00    -0.097 C 
ATOM     19  C38 AXF d   1      29.294  11.074  16.700  0.00  0.00    -0.008 C 
ATOM     20  O71 AXF d   1      29.019   5.926  14.177  0.00  0.00    -0.271 OA
ATOM     21  O76 AXF d   1      27.748   6.053  19.153  0.00  0.00    -0.271 OA
ATOM     22  H1  AXF d   1      30.383   8.657  17.764  0.00  0.00     0.060 H 
ATOM     23  H2  AXF d   1      30.284   7.252  19.764  0.00  0.00     0.101 H 
ATOM     24  H3  AXF d   1      28.348   7.321  21.175  0.00  0.00     0.278 HD
ATOM     25  H4  AXF d   1      27.936   8.774  20.523  0.00  0.00     0.278 HD
ATOM     26  H5  AXF d   1      30.550   8.150  21.754  0.00  0.00     0.075 H 
ATOM     27  H6  AXF d   1      29.225   9.059  22.557  0.00  0.00     0.075 H 
ATOM     28  H7  AXF d   1      30.928  10.617  21.567  0.00  0.00     0.035 H 
ATOM     29  H8  AXF d   1      29.330  10.807  20.769  0.00  0.00     0.035 H 
ATOM     30  H9  AXF d   1      31.098  10.752  19.031  0.00  0.00     0.034 H 
ATOM     31  H10 AXF d   1      31.747   9.214  19.694  0.00  0.00     0.034 H 
ATOM     32  H11 AXF d   1      29.669   7.377  17.021  0.00  0.00     0.163 HD
ATOM     33  H12 AXF d   1      28.502   4.729  16.932  0.00  0.00     0.086 H 
ATOM     34  H13 AXF d   1      30.988   5.354  16.572  0.00  0.00     0.163 HD
ATOM     35  H14 AXF d   1      31.291   6.134  13.739  0.00  0.00     0.077 H 
ATOM     36  H15 AXF d   1      33.590   6.677  14.193  0.00  0.00     0.052 H 
ATOM     37  H16 AXF d   1      33.597   5.735  15.722  0.00  0.00     0.052 H 
ATOM     38  H17 AXF d   1      31.077   8.451  14.053  0.00  0.00     0.054 H 
ATOM     39  H18 AXF d   1      32.633   9.347  14.011  0.00  0.00     0.054 H 
ATOM     40  H19 AXF d   1      31.833  10.909  15.828  0.00  0.00     0.077 H 
ATOM     41  H20 AXF d   1      29.283   9.282  15.347  0.00  0.00     0.077 H 
ATOM     42  H21 AXF d   1      30.070  11.726  17.128  0.00  0.00     0.054 H 
ATOM     43  H22 AXF d   1      28.560  11.687  16.157  0.00  0.00     0.054 H 
ENDROOT
BRANCH  13  44
ATOM     44  C41 AXF d   1      32.196   4.210  14.073  0.00  0.00     0.056 C 
ATOM     45  H23 AXF d   1      32.867   4.387  13.220  0.00  0.00     0.086 H 
BRANCH  44  46
ATOM     46  O43 AXF d   1      32.928   3.500  15.081  0.00  0.00    -0.393 OA
ATOM     47  H24 AXF d   1      33.694   4.004  15.329  0.00  0.00     0.210 HD
ENDBRANCH  44  46
BRANCH  44  48
ATOM     48  C45 AXF d   1      31.043   3.321  13.587  0.00  0.00    -0.028 C 
ATOM     49  H25 AXF d   1      30.276   3.928  13.083  0.00  0.00     0.038 H 
ATOM     50  H26 AXF d   1      30.589   2.785  14.433  0.00  0.00     0.038 H 
BRANCH  48  51
ATOM     51  C48 AXF d   1      31.677   2.325  12.597  0.00  0.00     0.022 C 
ATOM     52  H27 AXF d   1      32.667   2.023  12.969  0.00  0.00     0.054 H 
BRANCH  51  53
ATOM     53  C50 AXF d   1      30.790   1.084  12.413  0.00  0.00    -0.065 C 
ATOM     54  H28 AXF d   1      31.268   0.394  11.703  0.00  0.00     0.028 H 
ATOM     55  H29 AXF d   1      29.808   1.390  12.023  0.00  0.00     0.028 H 
ATOM     56  H30 AXF d   1      30.659   0.580  13.382  0.00  0.00     0.028 H 
ENDBRANCH  51  53
BRANCH  51  57
ATOM     57  C54 AXF d   1      31.808   2.979  11.244  0.00  0.00     0.221 C 
ATOM     58  O55 AXF d   1      30.895   3.679  10.827  0.00  0.00    -0.273 OA
ATOM     59  N56 AXF d   1      32.944   2.754  10.572  0.00  0.00    -0.361 N 
ATOM     60  H31 AXF d   1      33.658   2.178  10.971  0.00  0.00     0.162 HD
BRANCH  59  61
ATOM     61  C58 AXF d   1      33.135   3.350   9.261  0.00  0.00    -0.005 C 
ATOM     62  H32 AXF d   1      33.282   4.435   9.364  0.00  0.00     0.064 H 
ATOM     63  H33 AXF d   1      32.252   3.158   8.634  0.00  0.00     0.064 H 
BRANCH  61  64
ATOM     64  C61 AXF d   1      34.378   2.718   8.615  0.00  0.00    -0.051 C 
ATOM     65  H34 AXF d   1      34.358   1.633   8.794  0.00  0.00     0.035 H 
ATOM     66  H35 AXF d   1      35.277   3.149   9.079  0.00  0.00     0.035 H 
BRANCH  64  67
ATOM     67  C64 AXF d   1      34.434   2.974   7.074  0.00  0.00    -0.067 C 
ATOM     68  H36 AXF d   1      33.459   2.718   6.633  0.00  0.00     0.032 H 
ATOM     69  H37 AXF d   1      35.214   2.336   6.634  0.00  0.00     0.032 H 
BRANCH  67  70
ATOM     70  C67 AXF d   1      34.751   4.430   6.761  0.00  0.00    -0.076 C 
ATOM     71  H38 AXF d   1      34.782   4.572   5.671  0.00  0.00     0.027 H 
ATOM     72  H39 AXF d   1      35.727   4.694   7.193  0.00  0.00     0.027 H 
ATOM     73  H40 AXF d   1      33.972   5.076   7.193  0.00  0.00     0.027 H 
ENDBRANCH  67  70
ENDBRANCH  64  67
ENDBRANCH  61  64
ENDBRANCH  59  61
ENDBRANCH  51  57
ENDBRANCH  48  51
ENDBRANCH  44  48
ENDBRANCH  13  44
BRANCH  10  74
ATOM     74  C72 AXF d   1      26.982   5.999  16.114  0.00  0.00    -0.049 C 
ATOM     75  H41 AXF d   1      26.612   5.223  15.428  0.00  0.00     0.030 H 
ATOM     76  H42 AXF d   1      26.896   6.985  15.633  0.00  0.00     0.030 H 
ATOM     77  H43 AXF d   1      26.384   5.988  17.037  0.00  0.00     0.030 H 
ENDBRANCH  10  74
TORSDOF 11
