REMARK  22 active torsions:
REMARK  status: ('A' for Active; 'I' for Inactive)
REMARK    1  A    between atoms: S1_2  and  C37_4 
REMARK    2  A    between atoms: S1_2  and  C29_5 
REMARK    3  A    between atoms: C29_5  and  C33_6 
REMARK    4  A    between atoms: C29_5  and  C34_7 
REMARK    5  A    between atoms: C29_5  and  C26_8 
REMARK    6  A    between atoms: C26_8  and  N5_9 
REMARK    7  A    between atoms: C26_8  and  C24_20 
REMARK       I    between atoms: N5_9  and  C32_10 
REMARK    8  A    between atoms: C32_10  and  C36_12 
REMARK    9  A    between atoms: C36_12  and  O7_13 
REMARK   10  A    between atoms: O7_13  and  C1_14 
REMARK       I    between atoms: C24_20  and  N4_22 
REMARK   11  A    between atoms: N4_22  and  C15_23 
REMARK   12  A    between atoms: C15_23  and  C19_24 
REMARK   13  A    between atoms: C15_23  and  C12_31 
REMARK   14  A    between atoms: C19_24  and  C25_25 
REMARK   15  A    between atoms: C12_31  and  O2_32 
REMARK   16  A    between atoms: C12_31  and  C8_33 
REMARK   17  A    between atoms: C8_33  and  N2_34 
REMARK   18  A    between atoms: C6_35  and  C10_36 
REMARK       I    between atoms: C10_36  and  N3_38 
REMARK   19  A    between atoms: N3_38  and  C17_39 
REMARK   20  A    between atoms: C17_39  and  C23_40 
REMARK   21  A    between atoms: C17_39  and  C22_41 
REMARK   22  A    between atoms: C17_39  and  C21_42 
ROOT
ATOM      1  C15 RO1 d   1      20.273  -2.069  15.270  0.00  0.00     0.042 C 
ATOM      2  H19 RO1 d   1      20.177  -2.252  16.350  0.00  0.00     0.077 H 
ENDROOT
BRANCH   1   3
ATOM      3  N4  RO1 d   1      19.484  -3.051  14.512  0.00  0.00    -0.352 N 
ATOM      4  C24 RO1 d   1      18.862  -4.097  15.089  0.00  0.00     0.242 C 
ATOM      5  O3  RO1 d   1      18.977  -4.357  16.281  0.00  0.00    -0.271 OA
ATOM      6  H18 RO1 d   1      19.405  -2.937  13.522  0.00  0.00     0.163 HD
BRANCH   4   7
ATOM      7  C26 RO1 d   1      18.066  -5.004  14.166  0.00  0.00     0.109 C 
ATOM      8  H10 RO1 d   1      17.946  -4.471  13.211  0.00  0.00     0.090 H 
BRANCH   7   9
ATOM      9  C29 RO1 d   1      16.639  -5.306  14.693  0.00  0.00     0.085 C 
BRANCH   9  10
ATOM     10  S1  RO1 d   1      15.554  -5.921  13.474  0.00  0.00     0.151 S 
ATOM     11  O6  RO1 d   1      15.770  -5.127  12.267  0.00  0.00    -0.227 OA
ATOM     12  O5  RO1 d   1      14.257  -6.015  14.147  0.00  0.00    -0.227 OA
BRANCH  10  13
ATOM     13  C37 RO1 d   1      16.056  -7.633  13.122  0.00  0.00     0.016 C 
ATOM     14  H1  RO1 d   1      17.031  -7.632  12.613  0.00  0.00     0.049 H 
ATOM     15  H2  RO1 d   1      15.305  -8.110  12.475  0.00  0.00     0.049 H 
ATOM     16  H3  RO1 d   1      16.136  -8.193  14.065  0.00  0.00     0.049 H 
ENDBRANCH  10  13
ENDBRANCH   9  10
BRANCH   9  17
ATOM     17  C33 RO1 d   1      16.035  -3.976  15.159  0.00  0.00    -0.054 C 
ATOM     18  H4  RO1 d   1      16.677  -3.533  15.934  0.00  0.00     0.029 H 
ATOM     19  H5  RO1 d   1      15.031  -4.154  15.572  0.00  0.00     0.029 H 
ATOM     20  H6  RO1 d   1      15.963  -3.287  14.305  0.00  0.00     0.029 H 
ENDBRANCH   9  17
BRANCH   9  21
ATOM     21  C34 RO1 d   1      16.674  -6.315  15.856  0.00  0.00    -0.054 C 
ATOM     22  H7  RO1 d   1      17.354  -5.948  16.639  0.00  0.00     0.029 H 
ATOM     23  H8  RO1 d   1      17.031  -7.288  15.487  0.00  0.00     0.029 H 
ATOM     24  H9  RO1 d   1      15.662  -6.430  16.272  0.00  0.00     0.029 H 
ENDBRANCH   9  21
ENDBRANCH   7   9
BRANCH   7  25
ATOM     25  N5  RO1 d   1      18.814  -6.222  13.892  0.00  0.00    -0.344 N 
ATOM     26  C32 RO1 d   1      19.118  -6.517  12.626  0.00  0.00     0.242 C 
ATOM     27  O4  RO1 d   1      18.805  -5.808  11.675  0.00  0.00    -0.271 OA
ATOM     28  H11 RO1 d   1      19.095  -6.826  14.638  0.00  0.00     0.163 HD
BRANCH  26  29
ATOM     29  C36 RO1 d   1      19.878  -7.795  12.385  0.00  0.00     0.099 C 
ATOM     30  H12 RO1 d   1      20.573  -7.653  11.544  0.00  0.00     0.089 H 
ATOM     31  H13 RO1 d   1      19.169  -8.601  12.143  0.00  0.00     0.089 H 
BRANCH  29  32
ATOM     32  O7  RO1 d   1      20.615  -8.149  13.554  0.00  0.00    -0.341 OA
BRANCH  32  33
ATOM     33  C1  RO1 d   1      21.494  -9.207  13.541  0.00  0.00     0.086 A 
ATOM     34  C2  RO1 d   1      22.259  -9.489  12.414  0.00  0.00    -0.048 A 
ATOM     35  C4  RO1 d   1      23.128 -10.568  12.444  0.00  0.00    -0.063 A 
ATOM     36  H14 RO1 d   1      22.177  -8.874  11.525  0.00  0.00     0.087 H 
ATOM     37  C3  RO1 d   1      23.231 -11.340  13.595  0.00  0.00     0.002 A 
ATOM     38  H15 RO1 d   1      23.726 -10.809  11.572  0.00  0.00     0.085 H 
ATOM     39  N1  RO1 d   1      22.493 -11.043  14.674  0.00  0.00    -0.270 NA
ATOM     40  H16 RO1 d   1      23.910 -12.185  13.620  0.00  0.00     0.114 H 
ATOM     41  C5  RO1 d   1      21.637 -10.007  14.672  0.00  0.00     0.034 A 
ATOM     42  H17 RO1 d   1      21.052  -9.792  15.559  0.00  0.00     0.119 H 
ENDBRANCH  32  33
ENDBRANCH  29  32
ENDBRANCH  26  29
ENDBRANCH   7  25
ENDBRANCH   4   7
ENDBRANCH   1   3
BRANCH   1  43
ATOM     43  C19 RO1 d   1      21.755  -2.182  14.864  0.00  0.00    -0.020 C 
ATOM     44  H20 RO1 d   1      22.363  -1.596  15.569  0.00  0.00     0.043 H 
ATOM     45  H21 RO1 d   1      21.878  -1.776  13.849  0.00  0.00     0.043 H 
BRANCH  43  46
ATOM     46  C25 RO1 d   1      22.237  -3.616  14.878  0.00  0.00    -0.056 A 
ATOM     47  C27 RO1 d   1      22.417  -4.305  13.676  0.00  0.00    -0.077 A 
ATOM     48  C30 RO1 d   1      22.858  -5.625  13.692  0.00  0.00    -0.082 A 
ATOM     49  H22 RO1 d   1      22.213  -3.812  12.732  0.00  0.00     0.084 H 
ATOM     50  C35 RO1 d   1      23.124  -6.255  14.904  0.00  0.00    -0.083 A 
ATOM     51  H23 RO1 d   1      22.994  -6.162  12.760  0.00  0.00     0.083 H 
ATOM     52  C31 RO1 d   1      22.964  -5.562  16.099  0.00  0.00    -0.082 A 
ATOM     53  H24 RO1 d   1      23.456  -7.287  14.917  0.00  0.00     0.083 H 
ATOM     54  C28 RO1 d   1      22.516  -4.249  16.086  0.00  0.00    -0.077 A 
ATOM     55  H25 RO1 d   1      23.189  -6.048  17.041  0.00  0.00     0.083 H 
ATOM     56  H26 RO1 d   1      22.383  -3.714  17.020  0.00  0.00     0.084 H 
ENDBRANCH  43  46
ENDBRANCH   1  43
BRANCH   1  57
ATOM     57  C12 RO1 d   1      19.693  -0.692  14.919  0.00  0.00     0.078 C 
ATOM     58  H27 RO1 d   1      18.598  -0.736  15.009  0.00  0.00     0.088 H 
BRANCH  57  59
ATOM     59  O2  RO1 d   1      20.052  -0.375  13.576  0.00  0.00    -0.392 OA
ATOM     60  H28 RO1 d   1      19.698   0.476  13.347  0.00  0.00     0.210 HD
ENDBRANCH  57  59
BRANCH  57  61
ATOM     61  C8  RO1 d   1      20.222   0.421  15.834  0.00  0.00     0.110 C 
ATOM     62  H29 RO1 d   1      20.093   1.394  15.337  0.00  0.00     0.080 H 
ATOM     63  H30 RO1 d   1      21.290   0.251  16.035  0.00  0.00     0.080 H 
BRANCH  61  64
ATOM     64  N2  RO1 d   1      19.482   0.419  17.100  0.00  0.00    -0.055 N 
ATOM     65  C6  RO1 d   1      20.330   0.996  18.158  0.00  0.00     0.180 C 
ATOM     66  C9  RO1 d   1      19.561   0.905  19.476  0.00  0.00    -0.026 C 
ATOM     67  H32 RO1 d   1      20.534   2.047  17.907  0.00  0.00     0.100 H 
ATOM     68  C13 RO1 d   1      18.281   1.708  19.379  0.00  0.00    -0.047 C 
ATOM     69  H43 RO1 d   1      20.183   1.306  20.290  0.00  0.00     0.037 H 
ATOM     70  H44 RO1 d   1      19.317  -0.147  19.685  0.00  0.00     0.037 H 
ATOM     71  C11 RO1 d   1      17.442   1.204  18.218  0.00  0.00    -0.027 C 
ATOM     72  C16 RO1 d   1      17.503   1.683  20.690  0.00  0.00    -0.061 C 
ATOM     73  H45 RO1 d   1      18.551   2.754  19.173  0.00  0.00     0.040 H 
ATOM     74  C14 RO1 d   1      16.842  -0.168  18.495  0.00  0.00    -0.060 C 
ATOM     75  C7  RO1 d   1      18.251   1.202  16.917  0.00  0.00     0.088 C 
ATOM     76  H46 RO1 d   1      16.606   1.907  18.088  0.00  0.00     0.043 H 
ATOM     77  C18 RO1 d   1      16.017  -0.139  19.773  0.00  0.00    -0.065 C 
ATOM     78  H47 RO1 d   1      17.653  -0.903  18.604  0.00  0.00     0.033 H 
ATOM     79  H48 RO1 d   1      16.196  -0.458  17.653  0.00  0.00     0.033 H 
ATOM     80  C20 RO1 d   1      16.858   0.330  20.961  0.00  0.00    -0.065 C 
ATOM     81  H55 RO1 d   1      15.638  -1.151  19.979  0.00  0.00     0.033 H 
ATOM     82  H56 RO1 d   1      15.170   0.550  19.638  0.00  0.00     0.033 H 
ATOM     83  H53 RO1 d   1      16.210   0.414  21.846  0.00  0.00     0.033 H 
ATOM     84  H54 RO1 d   1      17.648  -0.410  21.154  0.00  0.00     0.033 H 
ATOM     85  H49 RO1 d   1      17.649   0.754  16.113  0.00  0.00     0.076 H 
ATOM     86  H50 RO1 d   1      18.512   2.236  16.647  0.00  0.00     0.076 H 
ATOM     87  H51 RO1 d   1      16.713   2.447  20.646  0.00  0.00     0.033 H 
ATOM     88  H52 RO1 d   1      18.193   1.916  21.514  0.00  0.00     0.033 H 
ATOM     89  H31 RO1 d   1      19.240  -0.527  17.351  0.00  0.00     0.281 HD
BRANCH  65  90
ATOM     90  C10 RO1 d   1      21.634   0.291  18.387  0.00  0.00     0.249 C 
ATOM     91  O1  RO1 d   1      21.713  -0.939  18.354  0.00  0.00    -0.271 OA
ATOM     92  N3  RO1 d   1      22.644   1.118  18.664  0.00  0.00    -0.351 N 
ATOM     93  H33 RO1 d   1      22.445   2.098  18.682  0.00  0.00     0.163 HD
BRANCH  92  94
ATOM     94  C17 RO1 d   1      24.009   0.709  18.941  0.00  0.00     0.022 C 
BRANCH  94  95
ATOM     95  C23 RO1 d   1      24.071  -0.023  20.283  0.00  0.00    -0.054 C 
ATOM     96  H34 RO1 d   1      25.108  -0.330  20.486  0.00  0.00     0.030 H 
ATOM     97  H35 RO1 d   1      23.426  -0.913  20.245  0.00  0.00     0.030 H 
ATOM     98  H36 RO1 d   1      23.724   0.648  21.083  0.00  0.00     0.030 H 
ENDBRANCH  94  95
BRANCH  94  99
ATOM     99  C22 RO1 d   1      24.880   1.958  19.025  0.00  0.00    -0.054 C 
ATOM    100  H37 RO1 d   1      25.920   1.667  19.235  0.00  0.00     0.030 H 
ATOM    101  H38 RO1 d   1      24.512   2.608  19.832  0.00  0.00     0.030 H 
ATOM    102  H39 RO1 d   1      24.837   2.500  18.069  0.00  0.00     0.030 H 
ENDBRANCH  94  99
BRANCH  94 103
ATOM    103  C21 RO1 d   1      24.508  -0.189  17.809  0.00  0.00    -0.054 C 
ATOM    104  H40 RO1 d   1      25.542  -0.500  18.017  0.00  0.00     0.030 H 
ATOM    105  H41 RO1 d   1      24.476   0.366  16.860  0.00  0.00     0.030 H 
ATOM    106  H42 RO1 d   1      23.865  -1.079  17.736  0.00  0.00     0.030 H 
ENDBRANCH  94 103
ENDBRANCH  92  94
ENDBRANCH  65  90
ENDBRANCH  61  64
ENDBRANCH  57  61
ENDBRANCH   1  57
TORSDOF 22
