REMARK  21 active torsions:
REMARK  status: ('A' for Active; 'I' for Inactive)
REMARK    1  A    between atoms: O3D_7  and  PE_1 
REMARK    2  A    between atoms: PE_1  and  AO5_40 
REMARK    3  A    between atoms: PD_4  and  O3D_7 
REMARK    4  A    between atoms: O3G_11  and  PD_4 
REMARK    5  A    between atoms: PG_8  and  O3G_11 
REMARK    6  A    between atoms: O3B_15  and  PG_8 
REMARK    7  A    between atoms: PB_12  and  O3B_15 
REMARK    8  A    between atoms: PB_12  and  O3A_16 
REMARK    9  A    between atoms: O3A_16  and  PA_17 
REMARK   10  A    between atoms: PA_17  and  O5_20 
REMARK   11  A    between atoms: O5_20  and  C5_21 
REMARK   12  A    between atoms: C5_21  and  C4_22 
REMARK   13  A    between atoms: C3_24  and  O3_25 
REMARK   14  A    between atoms: C2_26  and  O2_27 
REMARK   15  A    between atoms: C1_28  and  N9_29 
REMARK   16  A    between atoms: C2_36  and  N2_37 
REMARK   17  A    between atoms: AO5_40  and  AC5_41 
REMARK   18  A    between atoms: AC5_41  and  AC4_42 
REMARK   19  A    between atoms: AC1_44  and  AN9_49 
REMARK   20  A    between atoms: AC2_45  and  AO2_46 
REMARK   21  A    between atoms: AC3_47  and  AO3_48 
ROOT
ATOM      1  PG  G5P d   1      18.565  -7.425  -3.422  0.00  0.00     0.427 P 
ATOM      2  O1G G5P d   1      18.316  -8.523  -4.413  0.00  0.00    -0.624 OA
ATOM      3  O2G G5P d   1      19.952  -6.895  -3.820  0.00  0.00    -0.624 OA
ENDROOT
BRANCH   1   4
ATOM      4  O3G G5P d   1      18.400  -7.869  -2.002  0.00  0.00    -0.180 OA
BRANCH   4   5
ATOM      5  PD  G5P d   1      17.210  -7.652  -0.942  0.00  0.00     0.427 P 
ATOM      6  O1D G5P d   1      17.620  -6.576   0.039  0.00  0.00    -0.624 OA
ATOM      7  O2D G5P d   1      16.954  -8.955  -0.203  0.00  0.00    -0.624 OA
BRANCH   5   8
ATOM      8  O3D G5P d   1      15.766  -7.329  -1.552  0.00  0.00    -0.180 OA
BRANCH   8   9
ATOM      9  PE  G5P d   1      14.202  -7.684  -1.223  0.00  0.00     0.417 P 
ATOM     10  O1E G5P d   1      13.869  -7.220   0.157  0.00  0.00    -0.624 OA
ATOM     11  O2E G5P d   1      13.500  -7.101  -2.376  0.00  0.00    -0.624 OA
BRANCH   9  12
ATOM     12  AO5 G5P d   1      14.294  -9.214  -1.334  0.00  0.00    -0.287 OA
BRANCH  12  13
ATOM     13  AC5 G5P d   1      13.275 -10.158  -0.923  0.00  0.00     0.058 C 
ATOM     14  H13 G5P d   1      12.571 -10.325  -1.752  0.00  0.00     0.079 H 
ATOM     15  H14 G5P d   1      12.731  -9.759  -0.055  0.00  0.00     0.079 H 
BRANCH  13  16
ATOM     16  AC4 G5P d   1      13.929 -11.447  -0.554  0.00  0.00     0.089 C 
ATOM     17  AO4 G5P d   1      12.973 -12.492  -0.421  0.00  0.00    -0.353 OA
ATOM     18  AC1 G5P d   1      13.366 -13.658  -1.192  0.00  0.00     0.139 C 
ATOM     19  AC2 G5P d   1      14.215 -13.091  -2.324  0.00  0.00     0.105 C 
ATOM     20  H16 G5P d   1      13.976 -14.322  -0.562  0.00  0.00     0.122 H 
ATOM     21  AC3 G5P d   1      15.043 -11.993  -1.582  0.00  0.00     0.091 C 
ATOM     22  H17 G5P d   1      13.602 -12.633  -3.114  0.00  0.00     0.093 H 
ATOM     23  H19 G5P d   1      15.430 -11.230  -2.273  0.00  0.00     0.091 H 
ATOM     24  H15 G5P d   1      14.418 -11.289   0.419  0.00  0.00     0.090 H 
BRANCH  18  25
ATOM     25  AN9 G5P d   1      12.216 -14.454  -1.725  0.00  0.00    -0.294 N 
ATOM     26  AC4 G5P d   1      11.863 -15.733  -1.269  0.00  0.00     0.167 A 
ATOM     27  AN3 G5P d   1      12.505 -16.470  -0.261  0.00  0.00    -0.222 NA
ATOM     28  AC5 G5P d   1      10.754 -16.139  -2.012  0.00  0.00     0.149 A 
ATOM     29  AC2 G5P d   1      11.941 -17.689  -0.033  0.00  0.00     0.091 A 
ATOM     30  AN1 G5P d   1      10.848 -18.197  -0.701  0.00  0.00    -0.222 NA
ATOM     31  H21 G5P d   1      12.388 -18.309   0.736  0.00  0.00     0.146 H 
ATOM     32  AC6 G5P d   1      10.223 -17.469  -1.693  0.00  0.00     0.155 A 
ATOM     33  AN6 G5P d   1       9.184 -18.074  -2.260  0.00  0.00    -0.382 N 
ATOM     34  H22 G5P d   1       8.659 -17.602  -3.010  0.00  0.00     0.157 HD
ATOM     35  H23 G5P d   1       8.904 -19.015  -1.949  0.00  0.00     0.157 HD
ATOM     36  AN7 G5P d   1      10.422 -15.140  -2.909  0.00  0.00    -0.236 NA
ATOM     37  AC8 G5P d   1      11.299 -14.169  -2.711  0.00  0.00     0.071 A 
ATOM     38  H24 G5P d   1      11.296 -13.236  -3.273  0.00  0.00     0.144 H 
ENDBRANCH  18  25
BRANCH  19  39
ATOM     39  AO2 G5P d   1      14.953 -14.187  -2.877  0.00  0.00    -0.388 OA
ATOM     40  H18 G5P d   1      15.502 -14.570  -2.203  0.00  0.00     0.210 HD
ENDBRANCH  19  39
BRANCH  21  41
ATOM     41  AO3 G5P d   1      16.108 -12.519  -0.725  0.00  0.00    -0.390 OA
ATOM     42  H20 G5P d   1      16.565 -11.797  -0.310  0.00  0.00     0.210 HD
ENDBRANCH  21  41
ENDBRANCH  13  16
ENDBRANCH  12  13
ENDBRANCH   9  12
ENDBRANCH   8   9
ENDBRANCH   5   8
ENDBRANCH   4   5
ENDBRANCH   1   4
BRANCH   1  43
ATOM     43  O3B G5P d   1      17.565  -6.181  -3.724  0.00  0.00    -0.180 OA
BRANCH  43  44
ATOM     44  PB  G5P d   1      17.743  -4.854  -4.450  0.00  0.00     0.427 P 
ATOM     45  O1B G5P d   1      18.383  -3.778  -3.627  0.00  0.00    -0.624 OA
ATOM     46  O2B G5P d   1      16.511  -4.399  -5.220  0.00  0.00    -0.624 OA
BRANCH  44  47
ATOM     47  O3A G5P d   1      18.865  -5.194  -5.637  0.00  0.00    -0.180 OA
BRANCH  47  48
ATOM     48  PA  G5P d   1      19.483  -4.303  -6.790  0.00  0.00     0.417 P 
ATOM     49  O1A G5P d   1      18.865  -2.946  -6.831  0.00  0.00    -0.624 OA
ATOM     50  O2A G5P d   1      19.597  -5.069  -8.095  0.00  0.00    -0.624 OA
BRANCH  48  51
ATOM     51  O5  G5P d   1      20.996  -4.165  -6.282  0.00  0.00    -0.287 OA
BRANCH  51  52
ATOM     52  C5  G5P d   1      21.214  -3.488  -5.079  0.00  0.00     0.058 C 
ATOM     53  H1  G5P d   1      20.544  -3.898  -4.309  0.00  0.00     0.079 H 
ATOM     54  H2  G5P d   1      20.996  -2.420  -5.223  0.00  0.00     0.079 H 
BRANCH  52  55
ATOM     55  C4  G5P d   1      22.629  -3.640  -4.625  0.00  0.00     0.089 C 
ATOM     56  O4  G5P d   1      23.347  -2.558  -5.314  0.00  0.00    -0.353 OA
ATOM     57  C1  G5P d   1      23.796  -1.651  -4.334  0.00  0.00     0.139 C 
ATOM     58  C2  G5P d   1      22.935  -1.915  -3.041  0.00  0.00     0.105 C 
ATOM     59  H8  G5P d   1      24.865  -1.800  -4.120  0.00  0.00     0.122 H 
ATOM     60  C3  G5P d   1      22.702  -3.392  -3.112  0.00  0.00     0.091 C 
ATOM     61  H6  G5P d   1      21.979  -1.381  -3.149  0.00  0.00     0.093 H 
ATOM     62  H4  G5P d   1      21.781  -3.684  -2.586  0.00  0.00     0.091 H 
ATOM     63  H3  G5P d   1      23.036  -4.630  -4.880  0.00  0.00     0.090 H 
BRANCH  57  64
ATOM     64  N9  G5P d   1      23.549  -0.197  -4.876  0.00  0.00    -0.293 N 
ATOM     65  C8  G5P d   1      22.357   0.266  -5.366  0.00  0.00     0.071 A 
ATOM     66  N7  G5P d   1      22.471   1.555  -5.749  0.00  0.00    -0.234 NA
ATOM     67  H9  G5P d   1      21.444  -0.324  -5.437  0.00  0.00     0.144 H 
ATOM     68  C5  G5P d   1      23.791   1.900  -5.481  0.00  0.00     0.173 A 
ATOM     69  C6  G5P d   1      24.464   3.134  -5.687  0.00  0.00     0.292 A 
ATOM     70  C4  G5P d   1      24.473   0.832  -4.944  0.00  0.00     0.186 A 
ATOM     71  O6  G5P d   1      23.949   4.161  -6.161  0.00  0.00    -0.265 OA
ATOM     72  N1  G5P d   1      25.823   3.105  -5.291  0.00  0.00    -0.152 N 
ATOM     73  C2  G5P d   1      26.431   1.959  -4.750  0.00  0.00     0.703 A 
ATOM     74  H10 G5P d   1      26.372   3.933  -5.401  0.00  0.00     0.187 HD
ATOM     75  N3  G5P d   1      25.770   0.785  -4.558  0.00  0.00    -0.044 NA
BRANCH  73  76
ATOM     76  N2  G5P d   1      27.739   2.029  -4.402  0.00  0.00    -0.233 N 
ATOM     77  H11 G5P d   1      28.211   1.205  -4.003  0.00  0.00     0.174 HD
ATOM     78  H12 G5P d   1      28.261   2.906  -4.536  0.00  0.00     0.174 HD
ENDBRANCH  73  76
ENDBRANCH  57  64
BRANCH  58  79
ATOM     79  O2  G5P d   1      23.454  -1.551  -1.813  0.00  0.00    -0.388 OA
ATOM     80  H7  G5P d   1      24.282  -1.996  -1.676  0.00  0.00     0.210 HD
ENDBRANCH  58  79
BRANCH  60  81
ATOM     81  O3  G5P d   1      23.863  -4.165  -2.614  0.00  0.00    -0.390 OA
ATOM     82  H5  G5P d   1      23.946  -4.040  -1.676  0.00  0.00     0.210 HD
ENDBRANCH  60  81
ENDBRANCH  52  55
ENDBRANCH  51  52
ENDBRANCH  48  51
ENDBRANCH  47  48
ENDBRANCH  44  47
ENDBRANCH  43  44
ENDBRANCH   1  43
TORSDOF 21
