REMARK  13 active torsions:
REMARK  status: ('A' for Active; 'I' for Inactive)
REMARK    1  A    between atoms: CAL_6  and  CAK_7 
REMARK    2  A    between atoms: CAK_7  and  CAH_9 
REMARK    3  A    between atoms: CAE_14  and  CBK_15 
REMARK    4  A    between atoms: CBK_15  and  CBL_16 
REMARK    5  A    between atoms: CBL_16  and  CBM_17 
REMARK    6  A    between atoms: CAF_21  and  OBJ_22 
REMARK    7  A    between atoms: OBJ_22  and  CBI_23 
REMARK    8  A    between atoms: CBI_23  and  CBH_24 
REMARK    9  A    between atoms: CBH_24  and  CBG_25 
REMARK   10  A    between atoms: CBG_25  and  OBF_26 
REMARK   11  A    between atoms: OBF_26  and  CAS_27 
REMARK   12  A    between atoms: N_35  and  CA_36 
REMARK   13  A    between atoms: CA_36  and  C_37 
ROOT
ATOM      1  CAH EHA d   1       6.157  -5.165  42.195  0.00  0.00     0.016 A 
ATOM      2  CAG EHA d   1       7.482  -4.871  42.536  0.00  0.00    -0.058 A 
ATOM      3  CAI EHA d   1       5.696  -4.886  40.900  0.00  0.00    -0.068 A 
ATOM      4  CAJ EHA d   1       6.557  -4.340  39.952  0.00  0.00    -0.071 A 
ATOM      5  CAD EHA d   1       7.890  -4.048  40.284  0.00  0.00    -0.017 A 
ATOM      6  CAE EHA d   1       8.754  -3.497  39.309  0.00  0.00    -0.014 A 
ATOM      7  CAC EHA d   1       8.347  -4.322  41.588  0.00  0.00    -0.024 A 
ATOM      8  CAB EHA d   1       9.671  -4.043  41.946  0.00  0.00    -0.070 A 
ATOM      9  CAA EHA d   1      10.539  -3.493  40.999  0.00  0.00    -0.049 A 
ATOM     10  CAF EHA d   1      10.084  -3.216  39.700  0.00  0.00     0.075 A 
ATOM     11  H6  EHA d   1       7.838  -5.070  43.540  0.00  0.00     0.086 H 
ATOM     12  H7  EHA d   1       4.666  -5.096  40.636  0.00  0.00     0.085 H 
ATOM     13  H8  EHA d   1       6.196  -4.139  38.950  0.00  0.00     0.084 H 
ATOM     14  H16 EHA d   1      10.021  -4.252  42.951  0.00  0.00     0.085 H 
ATOM     15  H17 EHA d   1      11.567  -3.280  41.268  0.00  0.00     0.087 H 
ENDROOT
BRANCH  10  16
ATOM     16  OBJ EHA d   1      10.927  -2.688  38.762  0.00  0.00    -0.350 OA
BRANCH  16  17
ATOM     17  CBI EHA d   1      12.273  -2.221  39.135  0.00  0.00     0.028 C 
ATOM     18  H18 EHA d   1      12.474  -2.518  40.175  0.00  0.00     0.075 H 
ATOM     19  H19 EHA d   1      12.301  -1.124  39.055  0.00  0.00     0.075 H 
BRANCH  17  20
ATOM     20  CBH EHA d   1      13.376  -2.812  38.228  0.00  0.00    -0.024 C 
ATOM     21  H20 EHA d   1      13.788  -3.717  38.699  0.00  0.00     0.039 H 
ATOM     22  H21 EHA d   1      14.177  -2.069  38.098  0.00  0.00     0.039 H 
BRANCH  20  23
ATOM     23  CBG EHA d   1      12.799  -3.172  36.867  0.00  0.00     0.028 C 
ATOM     24  H22 EHA d   1      12.854  -2.273  36.235  0.00  0.00     0.075 H 
ATOM     25  H23 EHA d   1      11.745  -3.451  37.017  0.00  0.00     0.075 H 
BRANCH  23  26
ATOM     26  OBF EHA d   1      13.434  -4.245  36.151  0.00  0.00    -0.351 OA
BRANCH  26  27
ATOM     27  CAS EHA d   1      12.665  -5.340  35.815  0.00  0.00     0.069 A 
ATOM     28  CAX EHA d   1      12.990  -6.568  36.391  0.00  0.00    -0.039 A 
ATOM     29  CAW EHA d   1      12.250  -7.714  36.099  0.00  0.00    -0.005 A 
ATOM     30  H24 EHA d   1      13.829  -6.633  37.075  0.00  0.00     0.089 H 
ATOM     31  CAV EHA d   1      11.178  -7.647  35.200  0.00  0.00     0.045 A 
ATOM     32  CBA EHA d   1      12.367  -8.973  36.512  0.00  0.00    -0.056 A 
ATOM     33  CAU EHA d   1      10.850  -6.423  34.603  0.00  0.00    -0.054 A 
ATOM     34  N   EHA d   1      10.698  -8.894  35.122  0.00  0.00    -0.346 N 
ATOM     35  CAT EHA d   1      11.594  -5.279  34.916  0.00  0.00    -0.049 A 
ATOM     36  H26 EHA d   1      10.025  -6.362  33.903  0.00  0.00     0.087 H 
ATOM     37  H25 EHA d   1      11.337  -4.332  34.455  0.00  0.00     0.087 H 
ATOM     38  CAZ EHA d   1      11.413  -9.697  35.917  0.00  0.00    -0.019 A 
ATOM     39  H28 EHA d   1      11.246 -10.764  36.057  0.00  0.00     0.111 H 
ATOM     40  H27 EHA d   1      13.111  -9.349  37.213  0.00  0.00     0.086 H 
BRANCH  34  41
ATOM     41  CA  EHA d   1       9.546  -9.337  34.308  0.00  0.00     0.079 C 
ATOM     42  H29 EHA d   1       9.273  -8.523  33.620  0.00  0.00     0.081 H 
ATOM     43  H30 EHA d   1       8.703  -9.544  34.983  0.00  0.00     0.081 H 
BRANCH  41  44
ATOM     44  C   EHA d   1       9.825 -10.602  33.477  0.00  0.00     0.191 C 
ATOM     45  O   EHA d   1       9.509 -11.701  34.006  0.00  0.00    -0.647 OA
ATOM     46  OXT EHA d   1      10.319 -10.445  32.327  0.00  0.00    -0.647 OA
ENDBRANCH  41  44
ENDBRANCH  34  41
ENDBRANCH  26  27
ENDBRANCH  23  26
ENDBRANCH  20  23
ENDBRANCH  17  20
ENDBRANCH  16  17
ENDBRANCH  10  16
BRANCH   6  47
ATOM     47  CBK EHA d   1       8.262  -3.195  37.864  0.00  0.00    -0.038 C 
ATOM     48  H9  EHA d   1       8.784  -2.300  37.496  0.00  0.00     0.040 H 
ATOM     49  H10 EHA d   1       7.180  -3.002  37.895  0.00  0.00     0.040 H 
BRANCH  47  50
ATOM     50  CBL EHA d   1       8.526  -4.355  36.885  0.00  0.00    -0.065 C 
ATOM     51  H11 EHA d   1       7.876  -5.200  37.158  0.00  0.00     0.032 H 
ATOM     52  H12 EHA d   1       9.579  -4.658  36.976  0.00  0.00     0.032 H 
BRANCH  50  53
ATOM     53  CBM EHA d   1       8.248  -3.975  35.416  0.00  0.00    -0.076 C 
ATOM     54  H13 EHA d   1       8.454  -4.840  34.768  0.00  0.00     0.027 H 
ATOM     55  H14 EHA d   1       8.898  -3.136  35.125  0.00  0.00     0.027 H 
ATOM     56  H15 EHA d   1       7.194  -3.678  35.307  0.00  0.00     0.027 H 
ENDBRANCH  50  53
ENDBRANCH  47  50
ENDBRANCH   6  47
BRANCH   1  57
ATOM     57  CAK EHA d   1       5.173  -5.742  43.243  0.00  0.00     0.192 C 
ATOM     58  OAM EHA d   1       3.952  -5.654  43.039  0.00  0.00    -0.287 OA
BRANCH  57  59
ATOM     59  CAL EHA d   1       5.690  -6.355  44.585  0.00  0.00     0.015 A 
ATOM     60  CAN EHA d   1       6.146  -5.516  45.610  0.00  0.00    -0.069 A 
ATOM     61  CAO EHA d   1       6.602  -6.044  46.817  0.00  0.00    -0.082 A 
ATOM     62  H1  EHA d   1       6.144  -4.442  45.463  0.00  0.00     0.085 H 
ATOM     63  CAP EHA d   1       6.593  -7.417  47.018  0.00  0.00    -0.083 A 
ATOM     64  H2  EHA d   1       6.963  -5.383  47.597  0.00  0.00     0.083 H 
ATOM     65  CAQ EHA d   1       6.136  -8.256  46.012  0.00  0.00    -0.082 A 
ATOM     66  H3  EHA d   1       6.941  -7.832  47.957  0.00  0.00     0.083 H 
ATOM     67  CAR EHA d   1       5.679  -7.736  44.800  0.00  0.00    -0.069 A 
ATOM     68  H4  EHA d   1       6.134  -9.329  46.169  0.00  0.00     0.083 H 
ATOM     69  H5  EHA d   1       5.316  -8.403  44.026  0.00  0.00     0.085 H 
ENDBRANCH  57  59
ENDBRANCH   1  57
TORSDOF 13
