REMARK  9 active torsions:
REMARK  status: ('A' for Active; 'I' for Inactive)
REMARK    1  A    between atoms: N1_1  and  C7_7 
REMARK    2  A    between atoms: N4_4  and  C8_8 
REMARK    3  A    between atoms: C10_10  and  N14_14 
REMARK    4  A    between atoms: C12_12  and  S23_21 
REMARK    5  A    between atoms: N14_14  and  C15_15 
REMARK    6  A    between atoms: C18_17  and  C21_20 
REMARK    7  A    between atoms: S23_21  and  C24_22 
REMARK    8  A    between atoms: C27_25  and  N30_28 
REMARK       I    between atoms: N30_28  and  C31_29 
REMARK    9  A    between atoms: C31_29  and  C33_31 
ROOT
ATOM      1  C8  VX6 d   1       2.941  -6.829 -28.148  0.00  0.00     0.132 A 
ATOM      2  C9  VX6 d   1       1.735  -7.607 -27.825  0.00  0.00     0.006 A 
ATOM      3  C10 VX6 d   1       1.404  -7.764 -26.439  0.00  0.00     0.135 A 
ATOM      4  N11 VX6 d   1       2.229  -7.197 -25.523  0.00  0.00    -0.205 NA
ATOM      5  C12 VX6 d   1       3.300  -6.496 -25.867  0.00  0.00     0.197 A 
ATOM      6  N13 VX6 d   1       3.671  -6.297 -27.123  0.00  0.00    -0.205 NA
ATOM      7  H13 VX6 d   1       1.121  -8.044 -28.604  0.00  0.00     0.095 H 
ENDROOT
BRANCH   5   8
ATOM      8  S23 VX6 d   1       4.282  -5.776 -24.527  0.00  0.00    -0.050 SA
BRANCH   8   9
ATOM      9  C24 VX6 d   1       3.587  -6.260 -23.017  0.00  0.00     0.008 A 
ATOM     10  C25 VX6 d   1       2.860  -5.339 -22.252  0.00  0.00    -0.064 A 
ATOM     11  C26 VX6 d   1       2.250  -5.770 -21.034  0.00  0.00    -0.056 A 
ATOM     12  H20 VX6 d   1       2.761  -4.311 -22.580  0.00  0.00     0.085 H 
ATOM     13  C27 VX6 d   1       2.378  -7.094 -20.602  0.00  0.00     0.034 A 
ATOM     14  H21 VX6 d   1       1.682  -5.064 -20.439  0.00  0.00     0.087 H 
ATOM     15  C28 VX6 d   1       3.118  -8.023 -21.380  0.00  0.00    -0.056 A 
ATOM     16  C29 VX6 d   1       3.736  -7.575 -22.613  0.00  0.00    -0.064 A 
ATOM     17  H22 VX6 d   1       3.220  -9.053 -21.057  0.00  0.00     0.087 H 
ATOM     18  H23 VX6 d   1       4.312  -8.268 -23.216  0.00  0.00     0.085 H 
BRANCH  13  19
ATOM     19  N30 VX6 d   1       1.761  -7.560 -19.391  0.00  0.00    -0.327 N 
ATOM     20  C31 VX6 d   1       1.701  -8.761 -18.743  0.00  0.00     0.226 C 
ATOM     21  O32 VX6 d   1       2.216  -9.805 -19.137  0.00  0.00    -0.273 OA
ATOM     22  H24 VX6 d   1       1.260  -6.839 -18.912  0.00  0.00     0.169 HD
BRANCH  20  23
ATOM     23  C33 VX6 d   1       0.885  -8.737 -17.450  0.00  0.00     0.024 A 
ATOM     24  C34 VX6 d   1      -0.602  -9.266 -17.389  0.00  0.00    -0.053 A 
ATOM     25  C35 VX6 d   1       0.487  -9.810 -16.432  0.00  0.00    -0.053 A 
ATOM     26  H26 VX6 d   1      -0.998  -9.901 -18.196  0.00  0.00     0.034 H 
ATOM     27  H27 VX6 d   1      -1.404  -8.619 -17.004  0.00  0.00     0.034 H 
ATOM     28  H28 VX6 d   1       0.448  -9.558 -15.362  0.00  0.00     0.034 H 
ATOM     29  H29 VX6 d   1       0.854 -10.840 -16.553  0.00  0.00     0.034 H 
ATOM     30  H25 VX6 d   1       1.097  -7.752 -17.009  0.00  0.00     0.054 H 
ENDBRANCH  20  23
ENDBRANCH  13  19
ENDBRANCH   8   9
ENDBRANCH   5   8
BRANCH   3  31
ATOM     31  N14 VX6 d   1       0.281  -8.483 -26.123  0.00  0.00    -0.324 N 
ATOM     32  H14 VX6 d   1      -0.260  -8.764 -26.953  0.00  0.00     0.169 HD
BRANCH  31  33
ATOM     33  C15 VX6 d   1      -0.318  -8.938 -24.880  0.00  0.00     0.151 A 
ATOM     34  C17 VX6 d   1       0.114  -8.602 -23.587  0.00  0.00    -0.014 A 
ATOM     35  C18 VX6 d   1      -0.765  -9.246 -22.720  0.00  0.00     0.027 A 
ATOM     36  H15 VX6 d   1       0.959  -7.970 -23.318  0.00  0.00     0.092 H 
ATOM     37  N19 VX6 d   1      -1.715  -9.964 -23.462  0.00  0.00    -0.281 N 
ATOM     38  N20 VX6 d   1      -1.439  -9.774 -24.775  0.00  0.00    -0.157 NA
ATOM     39  H16 VX6 d   1      -2.483 -10.533 -23.078  0.00  0.00     0.189 HD
BRANCH  35  40
ATOM     40  C21 VX6 d   1      -0.783  -9.229 -21.208  0.00  0.00    -0.036 C 
ATOM     41  H17 VX6 d   1       0.046  -8.608 -20.838  0.00  0.00     0.035 H 
ATOM     42  H18 VX6 d   1      -0.670 -10.255 -20.828  0.00  0.00     0.035 H 
ATOM     43  H19 VX6 d   1      -1.738  -8.812 -20.857  0.00  0.00     0.035 H 
ENDBRANCH  35  40
ENDBRANCH  31  33
ENDBRANCH   3  31
BRANCH   1  44
ATOM     44  N4  VX6 d   1       3.373  -6.621 -29.509  0.00  0.00    -0.362 N 
ATOM     45  C3  VX6 d   1       4.790  -6.119 -29.950  0.00  0.00     0.019 C 
ATOM     46  C2  VX6 d   1       4.863  -5.204 -31.177  0.00  0.00     0.098 C 
ATOM     47  H4  VX6 d   1       5.224  -5.569 -29.102  0.00  0.00     0.066 H 
ATOM     48  H5  VX6 d   1       5.403  -7.007 -30.163  0.00  0.00     0.066 H 
ATOM     49  N1  VX6 d   1       4.048  -5.701 -32.333  0.00  0.00    -0.072 N 
ATOM     50  H2  VX6 d   1       4.495  -4.207 -30.892  0.00  0.00     0.078 H 
ATOM     51  H3  VX6 d   1       5.913  -5.130 -31.496  0.00  0.00     0.078 H 
ATOM     52  C6  VX6 d   1       2.647  -5.978 -31.939  0.00  0.00     0.098 C 
ATOM     53  H1  VX6 d   1       4.447  -6.581 -32.620  0.00  0.00     0.279 HD
ATOM     54  C5  VX6 d   1       2.480  -6.945 -30.720  0.00  0.00     0.019 C 
ATOM     55  H8  VX6 d   1       2.132  -6.425 -32.802  0.00  0.00     0.078 H 
ATOM     56  H9  VX6 d   1       2.169  -5.021 -31.683  0.00  0.00     0.078 H 
ATOM     57  H6  VX6 d   1       1.431  -6.903 -30.392  0.00  0.00     0.066 H 
ATOM     58  H7  VX6 d   1       2.718  -7.965 -31.057  0.00  0.00     0.066 H 
BRANCH  49  59
ATOM     59  C7  VX6 d   1       4.161  -4.762 -33.515  0.00  0.00     0.066 C 
ATOM     60  H10 VX6 d   1       5.222  -4.599 -33.754  0.00  0.00     0.068 H 
ATOM     61  H11 VX6 d   1       3.690  -3.800 -33.265  0.00  0.00     0.068 H 
ATOM     62  H12 VX6 d   1       3.653  -5.204 -34.385  0.00  0.00     0.068 H 
ENDBRANCH  49  59
ENDBRANCH   1  44
TORSDOF 9
