REMARK  12 active torsions:
REMARK  status: ('A' for Active; 'I' for Inactive)
REMARK    1  A    between atoms: O1_7  and  C1_1 
REMARK    2  A    between atoms: C2_2  and  O2_8 
REMARK    3  A    between atoms: C3_3  and  O3_9 
REMARK    4  A    between atoms: C4_4  and  O4_10 
REMARK    5  A    between atoms: C5_5  and  C6_6 
REMARK    6  A    between atoms: C6_6  and  O6_12 
REMARK    7  A    between atoms: C4'_16  and  O1_7 
REMARK    8  A    between atoms: C1'_13  and  O1'_19 
REMARK    9  A    between atoms: C2'_14  and  O2'_20 
REMARK   10  A    between atoms: C3'_15  and  O3'_21 
REMARK   11  A    between atoms: C5'_17  and  C6'_18 
REMARK   12  A    between atoms: C6'_18  and  O6'_23 
ROOT
ATOM      1  O1  NON d   1      35.154  32.763  31.582  0.00  0.00    -0.348 OA
ENDROOT
BRANCH   1   2
ATOM      2  C1  NON d   1      34.419  33.482  30.646  0.00  0.00     0.159 C 
ATOM      3  C2  NON d   1      33.178  32.628  30.294  0.00  0.00     0.110 C 
ATOM      4  C3  NON d   1      33.685  31.309  29.709  0.00  0.00     0.092 C 
ATOM      5  H2  NON d   1      32.576  33.154  29.539  0.00  0.00     0.094 H 
ATOM      6  C4  NON d   1      34.599  31.552  28.488  0.00  0.00     0.090 C 
ATOM      7  H3  NON d   1      34.285  30.798  30.477  0.00  0.00     0.091 H 
ATOM      8  C5  NON d   1      35.701  32.552  28.818  0.00  0.00     0.089 C 
ATOM      9  H4  NON d   1      33.995  31.972  27.671  0.00  0.00     0.091 H 
ATOM     10  O5  NON d   1      35.141  33.716  29.438  0.00  0.00    -0.348 OA
ATOM     11  H5  NON d   1      36.415  32.081  29.510  0.00  0.00     0.090 H 
ATOM     12  H1  NON d   1      34.114  34.445  31.081  0.00  0.00     0.133 H 
BRANCH   3  13
ATOM     13  O2  NON d   1      32.384  32.408  31.423  0.00  0.00    -0.388 OA
ATOM     14  H8  NON d   1      32.084  33.242  31.765  0.00  0.00     0.210 HD
ENDBRANCH   3  13
BRANCH   4  15
ATOM     15  O3  NON d   1      32.552  30.471  29.395  0.00  0.00    -0.390 OA
ATOM     16  H9  NON d   1      32.860  29.627  29.087  0.00  0.00     0.210 HD
ENDBRANCH   4  15
BRANCH   6  17
ATOM     17  O4  NON d   1      35.112  30.295  28.070  0.00  0.00    -0.390 OA
ATOM     18  H10 NON d   1      34.390  29.708  27.877  0.00  0.00     0.210 HD
ENDBRANCH   6  17
BRANCH   8  19
ATOM     19  C6  NON d   1      36.439  32.975  27.543  0.00  0.00     0.043 C 
ATOM     20  H6  NON d   1      36.911  32.087  27.098  0.00  0.00     0.078 H 
ATOM     21  H7  NON d   1      37.215  33.707  27.811  0.00  0.00     0.078 H 
BRANCH  19  22
ATOM     22  O6  NON d   1      35.555  33.574  26.560  0.00  0.00    -0.398 OA
ATOM     23  H11 NON d   1      34.884  32.947  26.315  0.00  0.00     0.209 HD
ENDBRANCH  19  22
ENDBRANCH   8  19
ENDBRANCH   1   2
BRANCH   1  24
ATOM     24  C4' NON d   1      35.883  33.496  32.546  0.00  0.00     0.096 C 
ATOM     25  C3' NON d   1      34.957  33.819  33.727  0.00  0.00     0.092 C 
ATOM     26  C2' NON d   1      35.724  34.281  34.974  0.00  0.00     0.110 C 
ATOM     27  H14 NON d   1      34.402  32.905  33.984  0.00  0.00     0.091 H 
ATOM     28  C1' NON d   1      36.891  33.344  35.269  0.00  0.00     0.156 C 
ATOM     29  H13 NON d   1      36.151  35.274  34.770  0.00  0.00     0.094 H 
ATOM     30  O5' NON d   1      37.684  33.120  34.137  0.00  0.00    -0.349 OA
ATOM     31  H12 NON d   1      36.447  32.371  35.528  0.00  0.00     0.133 H 
ATOM     32  C5' NON d   1      37.017  32.589  32.999  0.00  0.00     0.089 C 
ATOM     33  H16 NON d   1      36.574  31.623  33.283  0.00  0.00     0.090 H 
ATOM     34  H15 NON d   1      36.281  34.426  32.113  0.00  0.00     0.091 H 
BRANCH  25  35
ATOM     35  O3' NON d   1      34.043  34.813  33.361  0.00  0.00    -0.390 OA
ATOM     36  H21 NON d   1      33.475  35.006  34.097  0.00  0.00     0.210 HD
ENDBRANCH  25  35
BRANCH  26  37
ATOM     37  O2' NON d   1      34.800  34.423  36.034  0.00  0.00    -0.388 OA
ATOM     38  H20 NON d   1      35.258  34.709  36.816  0.00  0.00     0.210 HD
ENDBRANCH  26  37
BRANCH  28  39
ATOM     39  O1' NON d   1      37.607  33.732  36.359  0.00  0.00    -0.369 OA
ATOM     40  H19 NON d   1      38.237  33.056  36.580  0.00  0.00     0.212 HD
ENDBRANCH  28  39
BRANCH  32  41
ATOM     41  C6' NON d   1      38.040  32.327  31.884  0.00  0.00     0.043 C 
ATOM     42  H17 NON d   1      37.501  32.084  30.956  0.00  0.00     0.078 H 
ATOM     43  H18 NON d   1      38.672  31.475  32.175  0.00  0.00     0.078 H 
BRANCH  41  44
ATOM     44  O6' NON d   1      38.868  33.454  31.651  0.00  0.00    -0.398 OA
ATOM     45  H22 NON d   1      39.342  33.667  32.446  0.00  0.00     0.209 HD
ENDBRANCH  41  44
ENDBRANCH  32  41
ENDBRANCH   1  24
TORSDOF 12
