REMARK WARNING: 32 MAX_TORS EXCEEDED!!!
REMARK  35 active torsions:
REMARK  status: ('A' for Active; 'I' for Inactive)
REMARK    1  A    between atoms: CA_2  and  N_1 
REMARK    2  A    between atoms: CA_2  and  CB_5 
REMARK    3  A    between atoms: C_3  and  CA_2 
REMARK       I    between atoms: N_6  and  C_3 
REMARK    4  A    between atoms: CA_7  and  N_6 
REMARK    5  A    between atoms: CA_7  and  CB_10 
REMARK    6  A    between atoms: C_8  and  CA_7 
REMARK       I    between atoms: N_17  and  C_8 
REMARK    7  A    between atoms: CB_10  and  CG_11 
REMARK    8  A    between atoms: CG_11  and  CD_12 
REMARK    9  A    between atoms: CD_12  and  NE_13 
REMARK       I    between atoms: NE_13  and  CZ_14 
REMARK       I    between atoms: CZ_14  and  NH1_15 
REMARK   10  A    between atoms: CA_18  and  N_17 
REMARK   11  A    between atoms: CA_18  and  CB_21 
REMARK   12  A    between atoms: C_19  and  CA_18 
REMARK       I    between atoms: N_24  and  C_19 
REMARK   13  A    between atoms: CB_21  and  CG2_23 
REMARK   14  A    between atoms: CB_21  and  OG1_22 
REMARK   15  A    between atoms: CA_25  and  N_24 
REMARK   16  A    between atoms: CA_25  and  CB_26 
REMARK   17  A    between atoms: C_31  and  CA_25 
REMARK   18  A    between atoms: CB_26  and  CG_27 
REMARK   19  A    between atoms: CG_27  and  CD_28 
REMARK   20  A    between atoms: CD_28  and  CE_29 
REMARK   21  A    between atoms: CE_29  and  NZ_30 
REMARK   22  A    between atoms: NZ_30  and  CM1_33 
REMARK   23  A    between atoms: NZ_30  and  CM2_34 
REMARK   24  A    between atoms: NZ_30  and  CM3_35 
REMARK       I    between atoms: C_31  and  N_36 
REMARK   25  A    between atoms: N_36  and  CA_37 
REMARK   26  A    between atoms: CA_37  and  CB_40 
REMARK   27  A    between atoms: CA_37  and  C_38 
REMARK       I    between atoms: C_38  and  N_45 
REMARK   28  A    between atoms: CB_40  and  CG_41 
REMARK   29  A    between atoms: CG_41  and  CD_42 
REMARK       I    between atoms: CD_42  and  NE2_44 
REMARK   30  A    between atoms: N_45  and  CA_46 
REMARK   31  A    between atoms: CA_46  and  CB_49 
REMARK   32  A    between atoms: CA_46  and  C_47 
REMARK   33  A    between atoms: C_47  and  O1_52 
REMARK   34  A    between atoms: CB_49  and  CG2_51 
REMARK   35  A    between atoms: CB_49  and  OG1_50 
ROOT
ATOM      1  CA  M3L d   1      37.428  16.832  59.852  0.00  0.00     0.089 C 
ATOM      2  H29 M3L d   1      38.207  16.384  60.487  0.00  0.00     0.087 H 
ENDROOT
BRANCH   1   3
ATOM      3  N   M3L d   1      36.201  16.048  59.925  0.00  0.00    -0.346 N 
ATOM      4  C   THR d   1      36.132  14.868  60.534  0.00  0.00     0.243 C 
ATOM      5  O   THR d   1      37.104  14.305  61.032  0.00  0.00    -0.271 OA
ATOM      6  H28 M3L d   1      35.374  16.414  59.498  0.00  0.00     0.163 HD
BRANCH   4   7
ATOM      7  CA  THR d   1      34.747  14.230  60.570  0.00  0.00     0.113 C 
ATOM      8  H22 THR d   1      34.313  14.261  59.560  0.00  0.00     0.091 H 
BRANCH   7   9
ATOM      9  N   THR d   1      34.771  12.842  61.014  0.00  0.00    -0.344 N 
ATOM     10  C   ARG d   1      33.935  11.942  60.508  0.00  0.00     0.241 C 
ATOM     11  O   ARG d   1      33.121  12.206  59.624  0.00  0.00    -0.271 OA
ATOM     12  H21 THR d   1      35.429  12.562  61.713  0.00  0.00     0.163 HD
BRANCH  10  13
ATOM     13  CA  ARG d   1      34.025  10.534  61.083  0.00  0.00     0.089 C 
ATOM     14  H9  ARG d   1      34.583  10.561  62.031  0.00  0.00     0.087 H 
BRANCH  13  15
ATOM     15  N   ARG d   1      32.668  10.057  61.326  0.00  0.00    -0.346 N 
ATOM     16  C   ALA d   1      32.011  10.343  62.444  0.00  0.00     0.248 C 
ATOM     17  O   ALA d   1      32.492  11.016  63.356  0.00  0.00    -0.271 OA
ATOM     18  H8  ARG d   1      32.219   9.498  60.629  0.00  0.00     0.163 HD
BRANCH  16  19
ATOM     19  CA  ALA d   1      30.603   9.784  62.554  0.00  0.00     0.172 C 
ATOM     20  H4  ALA d   1      30.551   8.842  61.988  0.00  0.00     0.098 H 
BRANCH  19  21
ATOM     21  N   ALA d   1      30.262   9.505  63.981  0.00  0.00    -0.067 N 
ATOM     22  H1  ALA d   1      29.326   9.135  64.037  0.00  0.00     0.275 HD
ATOM     23  H2  ALA d   1      30.318  10.359  64.513  0.00  0.00     0.275 HD
ATOM     24  H3  ALA d   1      30.912   8.832  64.356  0.00  0.00     0.275 HD
ENDBRANCH  19  21
BRANCH  19  25
ATOM     25  CB  ALA d   1      29.603  10.772  61.958  0.00  0.00    -0.042 C 
ATOM     26  H5  ALA d   1      29.864  10.970  60.908  0.00  0.00     0.030 H 
ATOM     27  H6  ALA d   1      29.634  11.713  62.527  0.00  0.00     0.030 H 
ATOM     28  H7  ALA d   1      28.590  10.345  62.010  0.00  0.00     0.030 H 
ENDBRANCH  19  25
ENDBRANCH  16  19
ENDBRANCH  13  15
BRANCH  13  29
ATOM     29  CB  ARG d   1      34.737   9.591  60.110  0.00  0.00    -0.036 C 
ATOM     30  H10 ARG d   1      35.742   9.988  59.907  0.00  0.00     0.036 H 
ATOM     31  H11 ARG d   1      34.162   9.552  59.173  0.00  0.00     0.036 H 
BRANCH  29  32
ATOM     32  CG  ARG d   1      34.874   8.171  60.660  0.00  0.00    -0.048 C 
ATOM     33  H12 ARG d   1      33.894   7.846  61.040  0.00  0.00     0.035 H 
ATOM     34  H13 ARG d   1      35.602   8.183  61.485  0.00  0.00     0.035 H 
BRANCH  32  35
ATOM     35  CD  ARG d   1      35.345   7.171  59.609  0.00  0.00     0.009 C 
ATOM     36  H14 ARG d   1      35.439   6.181  60.079  0.00  0.00     0.064 H 
ATOM     37  H15 ARG d   1      36.326   7.491  59.229  0.00  0.00     0.064 H 
BRANCH  35  38
ATOM     38  NE  ARG d   1      34.416   7.074  58.489  0.00  0.00    -0.227 N 
ATOM     39  CZ  ARG d   1      34.600   7.660  57.310  0.00  0.00     0.665 C 
ATOM     40  NH2 ARG d   1      33.693   7.529  56.352  0.00  0.00    -0.235 N 
ATOM     41  NH1 ARG d   1      35.684   8.386  57.091  0.00  0.00    -0.235 N 
ATOM     42  H19 ARG d   1      32.847   6.965  56.517  0.00  0.00     0.174 HD
ATOM     43  H20 ARG d   1      33.834   7.991  55.443  0.00  0.00     0.174 HD
ATOM     44  H17 ARG d   1      35.824   8.839  56.177  0.00  0.00     0.174 HD
ATOM     45  H18 ARG d   1      36.388   8.498  57.835  0.00  0.00     0.174 HD
ATOM     46  H16 ARG d   1      33.561   6.515  58.620  0.00  0.00     0.177 HD
ENDBRANCH  35  38
ENDBRANCH  32  35
ENDBRANCH  29  32
ENDBRANCH  13  29
ENDBRANCH  10  13
ENDBRANCH   7   9
BRANCH   7  47
ATOM     47  CB  THR d   1      33.889  15.082  61.524  0.00  0.00     0.060 C 
ATOM     48  H23 THR d   1      33.867  16.120  61.160  0.00  0.00     0.086 H 
BRANCH  47  49
ATOM     49  CG2 THR d   1      32.463  14.550  61.604  0.00  0.00    -0.050 C 
ATOM     50  H25 THR d   1      31.876  15.177  62.291  0.00  0.00     0.031 H 
ATOM     51  H26 THR d   1      32.478  13.515  61.975  0.00  0.00     0.031 H 
ATOM     52  H27 THR d   1      32.006  14.574  60.604  0.00  0.00     0.031 H 
ENDBRANCH  47  49
BRANCH  47  53
ATOM     53  OG1 THR d   1      34.472  15.043  62.834  0.00  0.00    -0.393 OA
ATOM     54  H24 THR d   1      35.362  15.373  62.793  0.00  0.00     0.210 HD
ENDBRANCH  47  53
ENDBRANCH   7  47
ENDBRANCH   4   7
ENDBRANCH   1   3
BRANCH   1  55
ATOM     55  CB  M3L d   1      37.941  16.932  58.408  0.00  0.00    -0.038 C 
ATOM     56  H30 M3L d   1      38.735  17.692  58.379  0.00  0.00     0.036 H 
ATOM     57  H31 M3L d   1      37.105  17.251  57.769  0.00  0.00     0.036 H 
BRANCH  55  58
ATOM     58  CG  M3L d   1      38.507  15.630  57.837  0.00  0.00    -0.061 C 
ATOM     59  H32 M3L d   1      37.694  14.894  57.751  0.00  0.00     0.033 H 
ATOM     60  H33 M3L d   1      39.278  15.245  58.520  0.00  0.00     0.033 H 
BRANCH  58  61
ATOM     61  CD  M3L d   1      39.127  15.847  56.462  0.00  0.00    -0.042 C 
ATOM     62  H34 M3L d   1      39.988  16.524  56.563  0.00  0.00     0.035 H 
ATOM     63  H35 M3L d   1      38.376  16.305  55.801  0.00  0.00     0.035 H 
BRANCH  61  64
ATOM     64  CE  M3L d   1      39.602  14.532  55.835  0.00  0.00     0.084 C 
ATOM     65  H36 M3L d   1      38.736  13.863  55.721  0.00  0.00     0.076 H 
ATOM     66  H37 M3L d   1      40.339  14.067  56.507  0.00  0.00     0.076 H 
BRANCH  64  67
ATOM     67  NZ  M3L d   1      40.236  14.732  54.491  0.00  0.00    -0.079 N 
BRANCH  67  68
ATOM     68  CM1 M3L d   1      41.476  15.566  54.559  0.00  0.00     0.067 C 
ATOM     69  H38 M3L d   1      41.897  15.680  53.549  0.00  0.00     0.068 H 
ATOM     70  H39 M3L d   1      42.213  15.074  55.211  0.00  0.00     0.068 H 
ATOM     71  H40 M3L d   1      41.229  16.557  54.967  0.00  0.00     0.068 H 
ENDBRANCH  67  68
BRANCH  67  72
ATOM     72  CM2 M3L d   1      40.676  13.452  53.871  0.00  0.00     0.067 C 
ATOM     73  H41 M3L d   1      39.816  12.773  53.783  0.00  0.00     0.068 H 
ATOM     74  H42 M3L d   1      41.448  12.986  54.501  0.00  0.00     0.068 H 
ATOM     75  H43 M3L d   1      41.090  13.652  52.871  0.00  0.00     0.068 H 
ENDBRANCH  67  72
BRANCH  67  76
ATOM     76  CM3 M3L d   1      39.295  15.389  53.529  0.00  0.00     0.067 C 
ATOM     77  H44 M3L d   1      38.945  16.343  53.952  0.00  0.00     0.068 H 
ATOM     78  H45 M3L d   1      38.433  14.729  53.350  0.00  0.00     0.068 H 
ATOM     79  H46 M3L d   1      39.815  15.578  52.578  0.00  0.00     0.068 H 
ENDBRANCH  67  76
ENDBRANCH  64  67
ENDBRANCH  61  64
ENDBRANCH  58  61
ENDBRANCH  55  58
ENDBRANCH   1  55
BRANCH   1  80
ATOM     80  C   M3L d   1      37.046  18.223  60.365  0.00  0.00     0.241 C 
ATOM     81  O   M3L d   1      36.110  18.835  59.848  0.00  0.00    -0.271 OA
ATOM     82  N   GLN d   1      37.744  18.702  61.395  0.00  0.00    -0.346 N 
ATOM     83  H47 GLN d   1      38.475  18.143  61.786  0.00  0.00     0.163 HD
BRANCH  82  84
ATOM     84  CA  GLN d   1      37.474  20.025  61.975  0.00  0.00     0.090 C 
ATOM     85  H48 GLN d   1      36.464  20.326  61.659  0.00  0.00     0.087 H 
BRANCH  84  86
ATOM     86  CB  GLN d   1      37.517  19.977  63.507  0.00  0.00    -0.030 C 
ATOM     87  H49 GLN d   1      37.496  21.012  63.880  0.00  0.00     0.037 H 
ATOM     88  H50 GLN d   1      38.462  19.499  63.805  0.00  0.00     0.037 H 
BRANCH  86  89
ATOM     89  CG  GLN d   1      36.384  19.222  64.165  0.00  0.00     0.011 C 
ATOM     90  H51 GLN d   1      35.431  19.649  63.821  0.00  0.00     0.047 H 
ATOM     91  H52 GLN d   1      36.468  19.343  65.255  0.00  0.00     0.047 H 
BRANCH  89  92
ATOM     92  CD  GLN d   1      36.396  17.744  63.840  0.00  0.00     0.215 C 
ATOM     93  NE2 GLN d   1      35.215  17.182  63.614  0.00  0.00    -0.370 N 
ATOM     94  H53 GLN d   1      35.159  16.208  63.394  0.00  0.00     0.159 HD
ATOM     95  H54 GLN d   1      34.382  17.733  63.663  0.00  0.00     0.159 HD
ATOM     96  OE1 GLN d   1      37.451  17.108  63.809  0.00  0.00    -0.274 OA
ENDBRANCH  89  92
ENDBRANCH  86  89
ENDBRANCH  84  86
BRANCH  84  97
ATOM     97  C   GLN d   1      38.458  21.099  61.519  0.00  0.00     0.241 C 
ATOM     98  O   GLN d   1      39.454  20.816  60.858  0.00  0.00    -0.271 OA
ATOM     99  N   THR d   1      38.165  22.336  61.903  0.00  0.00    -0.343 N 
ATOM    100  H55 THR d   1      37.337  22.487  62.443  0.00  0.00     0.163 HD
BRANCH  99 101
ATOM    101  CA  THR d   1      39.001  23.481  61.570  0.00  0.00     0.117 C 
ATOM    102  H56 THR d   1      39.028  23.586  60.475  0.00  0.00     0.093 H 
BRANCH 101 103
ATOM    103  CB  THR d   1      38.435  24.771  62.188  0.00  0.00     0.061 C 
ATOM    104  H57 THR d   1      37.444  24.974  61.757  0.00  0.00     0.086 H 
BRANCH 103 105
ATOM    105  CG2 THR d   1      38.302  24.623  63.705  0.00  0.00    -0.050 C 
ATOM    106  H59 THR d   1      37.897  25.553  64.130  0.00  0.00     0.031 H 
ATOM    107  H60 THR d   1      39.291  24.421  64.142  0.00  0.00     0.031 H 
ATOM    108  H61 THR d   1      37.623  23.789  63.934  0.00  0.00     0.031 H 
ENDBRANCH 103 105
BRANCH 103 109
ATOM    109  OG1 THR d   1      39.314  25.861  61.891  0.00  0.00    -0.393 OA
ATOM    110  H58 THR d   1      40.168  25.689  62.269  0.00  0.00     0.210 HD
ENDBRANCH 103 109
ENDBRANCH 101 103
BRANCH 101 111
ATOM    111  C   THR d   1      40.425  23.303  62.089  0.00  0.00     0.166 C 
ATOM    112  O   THR d   1      40.639  22.437  62.969  0.00  0.00    -0.648 OA
BRANCH 111 113
ATOM    113  O1  THR d   1      41.418  24.051  61.617  0.00  0.00    -0.775 OA
ATOM    114  H62 THR d   1      41.078  24.650  60.962  0.00  0.00     0.167 HD
ENDBRANCH 111 113
ENDBRANCH 101 111
ENDBRANCH  99 101
ENDBRANCH  84  97
ENDBRANCH  82  84
ENDBRANCH   1  80
TORSDOF 35
