REMARK  7 active torsions:
REMARK  status: ('A' for Active; 'I' for Inactive)
REMARK    1  A    between atoms: S1_2  and  N3_5 
REMARK    2  A    between atoms: N3_5  and  C15_6 
REMARK       I    between atoms: N2_11  and  C7_20 
REMARK    3  A    between atoms: C4_12  and  C5_13 
REMARK       I    between atoms: C5_13  and  N1_15 
REMARK    4  A    between atoms: N1_15  and  C6_16 
REMARK    5  A    between atoms: C7_20  and  O2_22 
REMARK    6  A    between atoms: O2_22  and  C8_23 
REMARK    7  A    between atoms: C8_23  and  C11_24 
ROOT
ATOM      1  C15 SK2 d   1     -10.259  46.964  49.296  0.00  0.00     0.045 A 
ATOM      2  C16 SK2 d   1      -9.410  46.188  50.087  0.00  0.00    -0.056 A 
ATOM      3  C14 SK2 d   1     -11.637  46.798  49.430  0.00  0.00    -0.048 A 
ATOM      4  C13 SK2 d   1     -12.154  45.853  50.321  0.00  0.00    -0.032 A 
ATOM      5  C12 SK2 d   1     -13.656  45.704  50.446  0.00  0.00     0.025 C 
ATOM      6  N2  SK2 d   1     -14.051  44.960  51.652  0.00  0.00    -0.310 N 
ATOM      7  C4  SK2 d   1     -13.102  44.665  52.716  0.00  0.00     0.098 C 
ATOM      8  C3  SK2 d   1     -11.853  44.068  52.059  0.00  0.00    -0.013 C 
ATOM      9  C2  SK2 d   1     -11.292  45.086  51.083  0.00  0.00    -0.048 A 
ATOM     10  C1  SK2 d   1      -9.909  45.236  50.979  0.00  0.00    -0.074 A 
ATOM     11  C7  SK2 d   1     -15.295  44.537  51.831  0.00  0.00     0.364 C 
ATOM     12  O3  SK2 d   1     -15.701  43.906  52.802  0.00  0.00    -0.238 OA
ATOM     13  H2  SK2 d   1      -8.338  46.328  50.007  0.00  0.00     0.087 H 
ATOM     14  H3  SK2 d   1     -12.312  47.406  48.839  0.00  0.00     0.087 H 
ATOM     15  H4  SK2 d   1     -14.032  45.168  49.562  0.00  0.00     0.071 H 
ATOM     16  H5  SK2 d   1     -14.108  46.706  50.486  0.00  0.00     0.071 H 
ATOM     17  H6  SK2 d   1     -13.542  43.896  53.367  0.00  0.00     0.088 H 
ATOM     18  H11 SK2 d   1     -12.120  43.146  51.522  0.00  0.00     0.043 H 
ATOM     19  H12 SK2 d   1     -11.102  43.839  52.829  0.00  0.00     0.043 H 
ATOM     20  H13 SK2 d   1      -9.238  44.629  51.576  0.00  0.00     0.084 H 
ENDROOT
BRANCH   7  21
ATOM     21  C5  SK2 d   1     -12.824  45.869  53.582  0.00  0.00     0.240 C 
ATOM     22  O1  SK2 d   1     -11.821  45.913  54.287  0.00  0.00    -0.271 OA
ATOM     23  N1  SK2 d   1     -13.659  46.899  53.541  0.00  0.00    -0.364 N 
ATOM     24  H7  SK2 d   1     -14.464  46.872  52.948  0.00  0.00     0.161 HD
BRANCH  23  25
ATOM     25  C6  SK2 d   1     -13.393  48.073  54.370  0.00  0.00    -0.018 C 
ATOM     26  H8  SK2 d   1     -14.182  48.822  54.209  0.00  0.00     0.056 H 
ATOM     27  H9  SK2 d   1     -12.418  48.503  54.095  0.00  0.00     0.056 H 
ATOM     28  H10 SK2 d   1     -13.378  47.778  55.430  0.00  0.00     0.056 H 
ENDBRANCH  23  25
ENDBRANCH   7  21
BRANCH  11  29
ATOM     29  O2  SK2 d   1     -16.174  44.884  50.749  0.00  0.00    -0.299 OA
BRANCH  29  30
ATOM     30  C8  SK2 d   1     -17.516  44.395  50.767  0.00  0.00     0.054 C 
ATOM     31  H14 SK2 d   1     -17.945  44.474  51.777  0.00  0.00     0.082 H 
ATOM     32  H15 SK2 d   1     -17.552  43.347  50.435  0.00  0.00     0.082 H 
BRANCH  30  33
ATOM     33  C11 SK2 d   1     -18.260  45.287  49.800  0.00  0.00    -0.034 A 
ATOM     34  C19 SK2 d   1     -18.410  46.658  50.031  0.00  0.00    -0.075 A 
ATOM     35  C9  SK2 d   1     -19.109  47.423  49.101  0.00  0.00    -0.082 A 
ATOM     36  H16 SK2 d   1     -17.989  47.117  50.918  0.00  0.00     0.084 H 
ATOM     37  C17 SK2 d   1     -19.638  46.814  47.960  0.00  0.00    -0.083 A 
ATOM     38  H17 SK2 d   1     -19.242  48.487  49.261  0.00  0.00     0.083 H 
ATOM     39  C10 SK2 d   1     -19.487  45.450  47.726  0.00  0.00    -0.082 A 
ATOM     40  H20 SK2 d   1     -20.179  47.418  47.240  0.00  0.00     0.083 H 
ATOM     41  C18 SK2 d   1     -18.779  44.684  48.654  0.00  0.00    -0.075 A 
ATOM     42  H19 SK2 d   1     -19.911  44.991  46.840  0.00  0.00     0.083 H 
ATOM     43  H18 SK2 d   1     -18.633  43.623  48.484  0.00  0.00     0.084 H 
ENDBRANCH  30  33
ENDBRANCH  29  30
ENDBRANCH  11  29
BRANCH   1  44
ATOM     44  N3  SK2 d   1      -9.734  47.896  48.447  0.00  0.00    -0.266 N 
ATOM     45  H1  SK2 d   1      -9.672  48.848  48.748  0.00  0.00     0.181 HD
BRANCH  44  46
ATOM     46  S1  SK2 d   1      -9.208  47.501  46.962  0.00  0.00     0.209 S 
ATOM     47  O6  SK2 d   1     -10.330  46.801  46.301  0.00  0.00    -0.578 OA
ATOM     48  O4  SK2 d   1      -8.104  46.549  47.125  0.00  0.00    -0.578 OA
ATOM     49  O5  SK2 d   1      -8.817  48.764  46.320  0.00  0.00    -0.578 OA
ENDBRANCH  44  46
ENDBRANCH   1  44
TORSDOF 7
