REMARK  9 active torsions:
REMARK  status: ('A' for Active; 'I' for Inactive)
REMARK    1  A    between atoms: S1_2  and  N1_5 
REMARK    2  A    between atoms: N1_5  and  C5_6 
REMARK       I    between atoms: N2_12  and  C11_20 
REMARK    3  A    between atoms: C9_13  and  C10_14 
REMARK       I    between atoms: C10_14  and  N3_16 
REMARK    4  A    between atoms: N3_16  and  C16_17 
REMARK    5  A    between atoms: C11_20  and  O2_22 
REMARK    6  A    between atoms: O2_22  and  C12_23 
REMARK    7  A    between atoms: C12_23  and  C15_24 
REMARK    8  A    between atoms: C12_23  and  C14_25 
REMARK    9  A    between atoms: C12_23  and  C13_26 
ROOT
ATOM      1  C5  ENT d   1      42.352  14.505  14.385  0.00  0.00     0.045 A 
ATOM      2  C4  ENT d   1      42.087  13.143  14.193  0.00  0.00    -0.056 A 
ATOM      3  C1  ENT d   1      42.538  12.166  15.081  0.00  0.00    -0.074 A 
ATOM      4  C2  ENT d   1      43.064  14.968  15.482  0.00  0.00    -0.048 A 
ATOM      5  C6  ENT d   1      43.492  13.990  16.375  0.00  0.00    -0.032 A 
ATOM      6  C8  ENT d   1      44.234  14.530  17.584  0.00  0.00     0.025 C 
ATOM      7  N2  ENT d   1      44.416  13.513  18.634  0.00  0.00    -0.310 N 
ATOM      8  C9  ENT d   1      43.729  12.212  18.555  0.00  0.00     0.098 C 
ATOM      9  C7  ENT d   1      43.749  11.585  17.163  0.00  0.00    -0.013 C 
ATOM     10  C3  ENT d   1      43.252  12.621  16.183  0.00  0.00    -0.048 A 
ATOM     11  C11 ENT d   1      45.224  13.705  19.688  0.00  0.00     0.364 C 
ATOM     12  O1  ENT d   1      45.857  14.751  19.855  0.00  0.00    -0.238 OA
ATOM     13  H2  ENT d   1      41.513  12.838  13.326  0.00  0.00     0.087 H 
ATOM     14  H3  ENT d   1      42.343  11.112  14.921  0.00  0.00     0.084 H 
ATOM     15  H4  ENT d   1      43.273  16.021  15.633  0.00  0.00     0.087 H 
ATOM     16  H5  ENT d   1      43.662  15.371  18.003  0.00  0.00     0.071 H 
ATOM     17  H6  ENT d   1      45.224  14.885  17.261  0.00  0.00     0.071 H 
ATOM     18  H7  ENT d   1      44.303  11.539  19.209  0.00  0.00     0.088 H 
ATOM     19  H12 ENT d   1      43.092  10.703  17.140  0.00  0.00     0.043 H 
ATOM     20  H13 ENT d   1      44.775  11.285  16.902  0.00  0.00     0.043 H 
ENDROOT
BRANCH   8  21
ATOM     21  C10 ENT d   1      42.313  12.207  19.080  0.00  0.00     0.240 C 
ATOM     22  O3  ENT d   1      41.623  11.263  18.745  0.00  0.00    -0.271 OA
ATOM     23  N3  ENT d   1      41.803  13.167  19.868  0.00  0.00    -0.364 N 
ATOM     24  H8  ENT d   1      42.424  13.914  20.107  0.00  0.00     0.161 HD
BRANCH  23  25
ATOM     25  C16 ENT d   1      40.453  13.255  20.420  0.00  0.00    -0.018 C 
ATOM     26  H9  ENT d   1      40.363  14.169  21.025  0.00  0.00     0.056 H 
ATOM     27  H10 ENT d   1      40.257  12.376  21.052  0.00  0.00     0.056 H 
ATOM     28  H11 ENT d   1      39.722  13.286  19.598  0.00  0.00     0.056 H 
ENDBRANCH  23  25
ENDBRANCH   8  21
BRANCH  11  29
ATOM     29  O2  ENT d   1      45.381  12.606  20.645  0.00  0.00    -0.294 OA
BRANCH  29  30
ATOM     30  C12 ENT d   1      46.745  12.333  21.009  0.00  0.00     0.061 C 
BRANCH  30  31
ATOM     31  C15 ENT d   1      47.379  11.161  20.291  0.00  0.00    -0.048 C 
ATOM     32  H14 ENT d   1      48.416  11.036  20.637  0.00  0.00     0.031 H 
ATOM     33  H15 ENT d   1      47.375  11.349  19.207  0.00  0.00     0.031 H 
ATOM     34  H16 ENT d   1      46.807  10.246  20.506  0.00  0.00     0.031 H 
ENDBRANCH  30  31
BRANCH  30  35
ATOM     35  C14 ENT d   1      47.732  13.474  20.786  0.00  0.00    -0.048 C 
ATOM     36  H17 ENT d   1      48.738  13.155  21.097  0.00  0.00     0.031 H 
ATOM     37  H18 ENT d   1      47.424  14.347  21.380  0.00  0.00     0.031 H 
ATOM     38  H19 ENT d   1      47.746  13.743  19.720  0.00  0.00     0.031 H 
ENDBRANCH  30  35
BRANCH  30  39
ATOM     39  C13 ENT d   1      46.819  11.915  22.461  0.00  0.00    -0.048 C 
ATOM     40  H20 ENT d   1      47.865  11.708  22.730  0.00  0.00     0.031 H 
ATOM     41  H21 ENT d   1      46.215  11.008  22.613  0.00  0.00     0.031 H 
ATOM     42  H22 ENT d   1      46.430  12.725  23.096  0.00  0.00     0.031 H 
ENDBRANCH  30  39
ENDBRANCH  29  30
ENDBRANCH  11  29
BRANCH   1  43
ATOM     43  N1  ENT d   1      41.888  15.441  13.523  0.00  0.00    -0.266 N 
ATOM     44  H1  ENT d   1      41.044  15.900  13.800  0.00  0.00     0.181 HD
BRANCH  43  45
ATOM     45  S1  ENT d   1      42.505  15.916  12.117  0.00  0.00     0.209 S 
ATOM     46  O6  ENT d   1      41.425  16.919  11.760  0.00  0.00    -0.578 OA
ATOM     47  O4  ENT d   1      42.517  14.627  11.373  0.00  0.00    -0.578 OA
ATOM     48  O5  ENT d   1      43.812  16.517  12.516  0.00  0.00    -0.578 OA
ENDBRANCH  43  45
ENDBRANCH   1  43
TORSDOF 9
