REMARK  9 active torsions:
REMARK  status: ('A' for Active; 'I' for Inactive)
REMARK       I    between atoms: C9_2  and  N4_3 
REMARK    1  A    between atoms: C9_2  and  C8_5 
REMARK    2  A    between atoms: N4_3  and  C20_4 
REMARK       I    between atoms: N2_6  and  C10_20 
REMARK    3  A    between atoms: C5_10  and  N1_11 
REMARK    4  A    between atoms: N1_11  and  S1_12 
REMARK    5  A    between atoms: C10_20  and  C12_22 
REMARK    6  A    between atoms: C12_22  and  C13_23 
REMARK    7  A    between atoms: C13_23  and  C14_24 
REMARK    8  A    between atoms: C18_28  and  N3_30 
REMARK    9  A    between atoms: N3_30  and  S2_31 
ROOT
ATOM      1  C8  UN5 d   1      42.575  10.999  17.734  0.00  0.00     0.096 C 
ATOM      2  N2  UN5 d   1      41.781  10.420  16.645  0.00  0.00    -0.334 N 
ATOM      3  C11 UN5 d   1      41.422  11.184  15.446  0.00  0.00     0.023 C 
ATOM      4  C6  UN5 d   1      42.122  12.533  15.373  0.00  0.00    -0.032 A 
ATOM      5  C2  UN5 d   1      41.598  13.488  14.497  0.00  0.00    -0.048 A 
ATOM      6  C5  UN5 d   1      42.178  14.762  14.390  0.00  0.00     0.045 A 
ATOM      7  C4  UN5 d   1      43.260  15.046  15.220  0.00  0.00    -0.056 A 
ATOM      8  C3  UN5 d   1      43.207  12.843  16.172  0.00  0.00    -0.048 A 
ATOM      9  C7  UN5 d   1      43.735  11.788  17.121  0.00  0.00    -0.013 C 
ATOM     10  C1  UN5 d   1      43.794  14.104  16.096  0.00  0.00    -0.074 A 
ATOM     11  C10 UN5 d   1      41.378   9.158  16.788  0.00  0.00     0.221 C 
ATOM     12  O4  UN5 d   1      41.676   8.494  17.775  0.00  0.00    -0.273 OA
ATOM     13  H5  UN5 d   1      42.991  10.188  18.349  0.00  0.00     0.088 H 
ATOM     14  H6  UN5 d   1      40.335  11.352  15.449  0.00  0.00     0.071 H 
ATOM     15  H7  UN5 d   1      41.700  10.596  14.559  0.00  0.00     0.071 H 
ATOM     16  H8  UN5 d   1      40.733  13.242  13.893  0.00  0.00     0.087 H 
ATOM     17  H10 UN5 d   1      43.702  16.035  15.183  0.00  0.00     0.087 H 
ATOM     18  H11 UN5 d   1      44.391  11.099  16.569  0.00  0.00     0.043 H 
ATOM     19  H12 UN5 d   1      44.307  12.275  17.924  0.00  0.00     0.043 H 
ATOM     20  H13 UN5 d   1      44.654  14.348  16.709  0.00  0.00     0.084 H 
ENDROOT
BRANCH   1  21
ATOM     21  C9  UN5 d   1      41.685  11.847  18.607  0.00  0.00     0.240 C 
ATOM     22  O8  UN5 d   1      42.134  12.707  19.360  0.00  0.00    -0.271 OA
ATOM     23  N4  UN5 d   1      40.363  11.733  18.527  0.00  0.00    -0.364 N 
ATOM     24  H1  UN5 d   1      39.931  11.120  17.866  0.00  0.00     0.161 HD
BRANCH  23  25
ATOM     25  C20 UN5 d   1      39.574  12.539  19.444  0.00  0.00    -0.018 C 
ATOM     26  H2  UN5 d   1      38.504  12.349  19.272  0.00  0.00     0.056 H 
ATOM     27  H3  UN5 d   1      39.789  13.604  19.274  0.00  0.00     0.056 H 
ATOM     28  H4  UN5 d   1      39.831  12.273  20.480  0.00  0.00     0.056 H 
ENDBRANCH  23  25
ENDBRANCH   1  21
BRANCH  11  29
ATOM     29  C12 UN5 d   1      40.531   8.582  15.679  0.00  0.00     0.013 C 
ATOM     30  H14 UN5 d   1      41.112   8.604  14.746  0.00  0.00     0.047 H 
ATOM     31  H15 UN5 d   1      39.631   9.204  15.565  0.00  0.00     0.047 H 
BRANCH  29  32
ATOM     32  C13 UN5 d   1      40.097   7.142  15.950  0.00  0.00    -0.033 C 
ATOM     33  H16 UN5 d   1      39.639   7.072  16.948  0.00  0.00     0.040 H 
ATOM     34  H17 UN5 d   1      40.969   6.474  15.899  0.00  0.00     0.040 H 
BRANCH  32  35
ATOM     35  C14 UN5 d   1      39.086   6.749  14.892  0.00  0.00    -0.056 A 
ATOM     36  C16 UN5 d   1      39.510   6.078  13.746  0.00  0.00    -0.077 A 
ATOM     37  C19 UN5 d   1      38.588   5.711  12.761  0.00  0.00    -0.080 A 
ATOM     38  H18 UN5 d   1      40.560   5.840  13.618  0.00  0.00     0.084 H 
ATOM     39  C15 UN5 d   1      37.241   6.033  12.918  0.00  0.00    -0.057 A 
ATOM     40  H19 UN5 d   1      38.920   5.178  11.878  0.00  0.00     0.083 H 
ATOM     41  C18 UN5 d   1      36.821   6.718  14.061  0.00  0.00     0.045 A 
ATOM     42  H20 UN5 d   1      36.522   5.753  12.156  0.00  0.00     0.086 H 
ATOM     43  C17 UN5 d   1      37.744   7.084  15.036  0.00  0.00    -0.050 A 
ATOM     44  H21 UN5 d   1      37.416   7.633  15.911  0.00  0.00     0.087 H 
BRANCH  41  45
ATOM     45  N3  UN5 d   1      35.535   7.073  14.277  0.00  0.00    -0.266 N 
ATOM     46  H22 UN5 d   1      35.196   6.984  15.214  0.00  0.00     0.181 HD
BRANCH  45  47
ATOM     47  S2  UN5 d   1      34.496   7.623  13.184  0.00  0.00     0.209 S 
ATOM     48  O5  UN5 d   1      33.952   6.472  12.425  0.00  0.00    -0.578 OA
ATOM     49  O6  UN5 d   1      35.143   8.567  12.235  0.00  0.00    -0.578 OA
ATOM     50  O7  UN5 d   1      33.456   8.392  13.915  0.00  0.00    -0.578 OA
ENDBRANCH  45  47
ENDBRANCH  41  45
ENDBRANCH  32  35
ENDBRANCH  29  32
ENDBRANCH  11  29
BRANCH   6  51
ATOM     51  N1  UN5 d   1      41.645  15.693  13.553  0.00  0.00    -0.266 N 
ATOM     52  H9  UN5 d   1      40.862  16.235  13.860  0.00  0.00     0.181 HD
BRANCH  51  53
ATOM     53  S1  UN5 d   1      42.250  15.945  12.067  0.00  0.00     0.209 S 
ATOM     54  O3  UN5 d   1      41.327  16.903  11.445  0.00  0.00    -0.578 OA
ATOM     55  O2  UN5 d   1      43.624  16.393  12.218  0.00  0.00    -0.578 OA
ATOM     56  O1  UN5 d   1      42.253  14.610  11.422  0.00  0.00    -0.578 OA
ENDBRANCH  51  53
ENDBRANCH   6  51
TORSDOF 9
