REMARK  9 active torsions:
REMARK  status: ('A' for Active; 'I' for Inactive)
REMARK    1  A    between atoms: S1_2  and  N1_5 
REMARK    2  A    between atoms: N1_5  and  C5_6 
REMARK    3  A    between atoms: C6_10  and  C7_12 
REMARK    4  A    between atoms: C7_12  and  N2_13 
REMARK       I    between atoms: N2_13  and  C8_14 
REMARK    5  A    between atoms: C8_14  and  C9_16 
REMARK    6  A    between atoms: C9_16  and  C10_17 
REMARK    7  A    between atoms: C10_17  and  C11_18 
REMARK    8  A    between atoms: C15_20  and  N3_21 
REMARK    9  A    between atoms: N3_21  and  S2_22 
ROOT
ATOM      1  N2  UN6 d   1     -15.863  47.196  51.269  0.00  0.00    -0.357 N 
ATOM      2  C8  UN6 d   1     -15.008  46.283  51.743  0.00  0.00     0.218 C 
ATOM      3  O1  UN6 d   1     -15.394  45.273  52.337  0.00  0.00    -0.274 OA
ATOM      4  H8  UN6 d   1     -15.489  47.995  50.798  0.00  0.00     0.162 HD
ENDROOT
BRANCH   2   5
ATOM      5  C9  UN6 d   1     -13.529  46.518  51.482  0.00  0.00     0.013 C 
ATOM      6  H9  UN6 d   1     -12.952  46.337  52.401  0.00  0.00     0.047 H 
ATOM      7  H10 UN6 d   1     -13.367  47.552  51.145  0.00  0.00     0.047 H 
BRANCH   5   8
ATOM      8  C10 UN6 d   1     -13.088  45.527  50.378  0.00  0.00    -0.033 C 
ATOM      9  H11 UN6 d   1     -13.601  45.743  49.429  0.00  0.00     0.040 H 
ATOM     10  H12 UN6 d   1     -13.294  44.489  50.678  0.00  0.00     0.040 H 
BRANCH   8  11
ATOM     11  C11 UN6 d   1     -11.590  45.768  50.252  0.00  0.00    -0.056 A 
ATOM     12  C14 UN6 d   1     -11.098  46.700  49.341  0.00  0.00    -0.050 A 
ATOM     13  C15 UN6 d   1      -9.735  46.976  49.222  0.00  0.00     0.045 A 
ATOM     14  H13 UN6 d   1     -11.797  47.229  48.703  0.00  0.00     0.087 H 
ATOM     15  C12 UN6 d   1      -8.851  46.304  50.068  0.00  0.00    -0.057 A 
ATOM     16  C16 UN6 d   1      -9.305  45.373  50.992  0.00  0.00    -0.080 A 
ATOM     17  H15 UN6 d   1      -7.789  46.513  50.002  0.00  0.00     0.086 H 
ATOM     18  C13 UN6 d   1     -10.677  45.121  51.082  0.00  0.00    -0.077 A 
ATOM     19  H16 UN6 d   1      -8.606  44.849  51.634  0.00  0.00     0.083 H 
ATOM     20  H17 UN6 d   1     -11.038  44.407  51.813  0.00  0.00     0.084 H 
BRANCH  13  21
ATOM     21  N3  UN6 d   1      -9.296  47.905  48.325  0.00  0.00    -0.266 N 
ATOM     22  H14 UN6 d   1      -9.290  48.859  48.625  0.00  0.00     0.181 HD
BRANCH  21  23
ATOM     23  S2  UN6 d   1      -8.789  47.607  46.832  0.00  0.00     0.209 S 
ATOM     24  O4  UN6 d   1     -10.017  47.039  46.215  0.00  0.00    -0.578 OA
ATOM     25  O3  UN6 d   1      -8.511  48.979  46.374  0.00  0.00    -0.578 OA
ATOM     26  O2  UN6 d   1      -7.692  46.632  46.961  0.00  0.00    -0.578 OA
ENDBRANCH  21  23
ENDBRANCH  13  21
ENDBRANCH   8  11
ENDBRANCH   5   8
ENDBRANCH   2   5
BRANCH   1  27
ATOM     27  C7  UN6 d   1     -17.315  47.088  51.403  0.00  0.00     0.019 C 
ATOM     28  H6  UN6 d   1     -17.542  46.356  52.192  0.00  0.00     0.071 H 
ATOM     29  H7  UN6 d   1     -17.716  48.072  51.689  0.00  0.00     0.071 H 
BRANCH  27  30
ATOM     30  C6  UN6 d   1     -17.991  46.642  50.115  0.00  0.00    -0.038 A 
ATOM     31  C2  UN6 d   1     -18.936  47.471  49.491  0.00  0.00    -0.049 A 
ATOM     32  C5  UN6 d   1     -19.545  47.030  48.306  0.00  0.00     0.045 A 
ATOM     33  H4  UN6 d   1     -19.191  48.435  49.917  0.00  0.00     0.087 H 
ATOM     34  C4  UN6 d   1     -19.252  45.792  47.742  0.00  0.00    -0.057 A 
ATOM     35  C1  UN6 d   1     -18.311  44.945  48.316  0.00  0.00    -0.080 A 
ATOM     36  H2  UN6 d   1     -19.767  45.483  46.839  0.00  0.00     0.086 H 
ATOM     37  C3  UN6 d   1     -17.727  45.419  49.501  0.00  0.00    -0.075 A 
ATOM     38  H3  UN6 d   1     -18.047  43.988  47.880  0.00  0.00     0.083 H 
ATOM     39  H5  UN6 d   1     -17.003  44.773  49.984  0.00  0.00     0.084 H 
BRANCH  32  40
ATOM     40  N1  UN6 d   1     -20.484  47.768  47.660  0.00  0.00    -0.266 N 
ATOM     41  H1  UN6 d   1     -21.159  47.277  47.108  0.00  0.00     0.181 HD
BRANCH  40  42
ATOM     42  S1  UN6 d   1     -20.593  49.370  47.715  0.00  0.00     0.209 S 
ATOM     43  O7  UN6 d   1     -20.729  49.897  49.085  0.00  0.00    -0.578 OA
ATOM     44  O5  UN6 d   1     -21.684  49.803  46.818  0.00  0.00    -0.578 OA
ATOM     45  O6  UN6 d   1     -19.417  50.046  47.142  0.00  0.00    -0.578 OA
ENDBRANCH  40  42
ENDBRANCH  32  40
ENDBRANCH  27  30
ENDBRANCH   1  27
TORSDOF 9
