REMARK  8 active torsions:
REMARK  status: ('A' for Active; 'I' for Inactive)
REMARK    1  A    between atoms: S33_2  and  N9_5 
REMARK    2  A    between atoms: N9_5  and  C5_6 
REMARK       I    between atoms: N15_14  and  C20_20 
REMARK    3  A    between atoms: C13_15  and  C16_16 
REMARK       I    between atoms: C16_16  and  N27_17 
REMARK    4  A    between atoms: N27_17  and  C28_18 
REMARK    5  A    between atoms: C20_20  and  C22_22 
REMARK    6  A    between atoms: C22_22  and  C25_23 
REMARK    7  A    between atoms: C25_23  and  C35_24 
REMARK    8  A    between atoms: C42_26  and  C46_27 
ROOT
ATOM      1  C5  UN7 d   1      42.281  14.842  14.353  0.00  0.00     0.045 A 
ATOM      2  C4  UN7 d   1      43.359  15.117  15.192  0.00  0.00    -0.056 A 
ATOM      3  C2  UN7 d   1      41.735  13.561  14.409  0.00  0.00    -0.048 A 
ATOM      4  C6  UN7 d   1      42.226  12.591  15.279  0.00  0.00    -0.032 A 
ATOM      5  C3  UN7 d   1      43.293  12.863  16.095  0.00  0.00    -0.048 A 
ATOM      6  C7  UN7 d   1      43.781  11.770  17.030  0.00  0.00    -0.013 C 
ATOM      7  C1  UN7 d   1      43.871  14.137  16.050  0.00  0.00    -0.074 A 
ATOM      8  C19 UN7 d   1      41.611  11.224  15.335  0.00  0.00     0.023 C 
ATOM      9  N15 UN7 d   1      41.880  10.440  16.535  0.00  0.00    -0.334 N 
ATOM     10  C13 UN7 d   1      42.614  10.992  17.680  0.00  0.00     0.096 C 
ATOM     11  C20 UN7 d   1      41.428   9.181  16.611  0.00  0.00     0.221 C 
ATOM     12  O21 UN7 d   1      41.665   8.523  17.630  0.00  0.00    -0.273 OA
ATOM     13  H2  UN7 d   1      43.807  16.104  15.180  0.00  0.00     0.087 H 
ATOM     14  H3  UN7 d   1      40.905  13.313  13.757  0.00  0.00     0.087 H 
ATOM     15  H4  UN7 d   1      44.387  12.229  17.825  0.00  0.00     0.043 H 
ATOM     16  H5  UN7 d   1      44.401  11.065  16.457  0.00  0.00     0.043 H 
ATOM     17  H6  UN7 d   1      44.720  14.366  16.683  0.00  0.00     0.084 H 
ATOM     18  H7  UN7 d   1      41.985  10.653  14.472  0.00  0.00     0.071 H 
ATOM     19  H8  UN7 d   1      40.521  11.344  15.251  0.00  0.00     0.071 H 
ATOM     20  H9  UN7 d   1      43.001  10.183  18.317  0.00  0.00     0.088 H 
ENDROOT
BRANCH  10  21
ATOM     21  C16 UN7 d   1      41.732  11.886  18.509  0.00  0.00     0.240 C 
ATOM     22  N27 UN7 d   1      40.427  11.716  18.400  0.00  0.00    -0.364 N 
ATOM     23  H10 UN7 d   1      40.112  10.995  17.783  0.00  0.00     0.161 HD
ATOM     24  O26 UN7 d   1      42.183  12.775  19.211  0.00  0.00    -0.271 OA
BRANCH  22  25
ATOM     25  C28 UN7 d   1      39.405  12.484  19.098  0.00  0.00    -0.018 C 
ATOM     26  H11 UN7 d   1      38.409  12.117  18.809  0.00  0.00     0.056 H 
ATOM     27  H12 UN7 d   1      39.497  13.546  18.829  0.00  0.00     0.056 H 
ATOM     28  H13 UN7 d   1      39.537  12.368  20.184  0.00  0.00     0.056 H 
ENDBRANCH  22  25
ENDBRANCH  10  21
BRANCH  11  29
ATOM     29  C22 UN7 d   1      40.681   8.460  15.504  0.00  0.00     0.013 C 
ATOM     30  H14 UN7 d   1      41.419   8.198  14.731  0.00  0.00     0.047 H 
ATOM     31  H15 UN7 d   1      39.951   9.170  15.088  0.00  0.00     0.047 H 
BRANCH  29  32
ATOM     32  C25 UN7 d   1      39.919   7.181  15.853  0.00  0.00    -0.033 C 
ATOM     33  H16 UN7 d   1      39.285   7.364  16.733  0.00  0.00     0.040 H 
ATOM     34  H17 UN7 d   1      40.638   6.380  16.079  0.00  0.00     0.040 H 
BRANCH  32  35
ATOM     35  C35 UN7 d   1      39.050   6.760  14.689  0.00  0.00    -0.057 A 
ATOM     36  C39 UN7 d   1      37.734   7.195  14.521  0.00  0.00    -0.060 A 
ATOM     37  C42 UN7 d   1      36.979   6.825  13.406  0.00  0.00     0.041 A 
ATOM     38  H18 UN7 d   1      37.288   7.835  15.274  0.00  0.00     0.086 H 
ATOM     39  C38 UN7 d   1      37.556   5.987  12.465  0.00  0.00    -0.066 A 
ATOM     40  C41 UN7 d   1      38.866   5.550  12.610  0.00  0.00    -0.081 A 
ATOM     41  H19 UN7 d   1      36.978   5.669  11.605  0.00  0.00     0.085 H 
ATOM     42  C40 UN7 d   1      39.613   5.941  13.719  0.00  0.00    -0.077 A 
ATOM     43  H20 UN7 d   1      39.308   4.904  11.860  0.00  0.00     0.083 H 
ATOM     44  H21 UN7 d   1      40.638   5.605  13.825  0.00  0.00     0.084 H 
BRANCH  37  45
ATOM     45  C46 UN7 d   1      35.562   7.266  13.168  0.00  0.00     0.209 C 
ATOM     46  O49 UN7 d   1      35.214   8.133  12.321  0.00  0.00    -0.644 OA
ATOM     47  O48 UN7 d   1      34.739   6.674  13.909  0.00  0.00    -0.644 OA
ENDBRANCH  37  45
ENDBRANCH  32  35
ENDBRANCH  29  32
ENDBRANCH  11  29
BRANCH   1  48
ATOM     48  N9  UN7 d   1      41.757  15.735  13.457  0.00  0.00    -0.266 N 
ATOM     49  H1  UN7 d   1      40.940  16.254  13.707  0.00  0.00     0.181 HD
BRANCH  48  50
ATOM     50  S33 UN7 d   1      42.431  15.971  12.000  0.00  0.00     0.209 S 
ATOM     51  O53 UN7 d   1      41.515  16.939  11.398  0.00  0.00    -0.578 OA
ATOM     52  O51 UN7 d   1      42.362  14.651  11.336  0.00  0.00    -0.578 OA
ATOM     53  O52 UN7 d   1      43.799  16.441  12.140  0.00  0.00    -0.578 OA
ENDBRANCH  48  50
ENDBRANCH   1  48
TORSDOF 8
