REMARK  6 active torsions:
REMARK  status: ('A' for Active; 'I' for Inactive)
REMARK    1  A    between atoms: P1_1  and  C7_5 
REMARK    2  A    between atoms: C7_5  and  P8_6 
REMARK    3  A    between atoms: C7_5  and  O14_10 
REMARK    4  A    between atoms: C7_5  and  C16_11 
REMARK    5  A    between atoms: C16_11  and  C19_12 
REMARK    6  A    between atoms: C19_12  and  N22_13 
ROOT
ATOM      1  C7  210 d   1      15.148  77.225  25.251  0.00  0.00     0.286 C 
ENDROOT
BRANCH   1   2
ATOM      2  P1  210 d   1      15.496  75.787  24.112  0.00  0.00     0.310 P 
ATOM      3  O2  210 d   1      16.810  75.932  23.464  0.00  0.00    -0.637 OA
ATOM      4  O3  210 d   1      15.289  74.362  24.771  0.00  0.00    -0.637 OA
ATOM      5  O5  210 d   1      14.126  75.803  23.273  0.00  0.00    -0.637 OA
ENDBRANCH   1   2
BRANCH   1   6
ATOM      6  P8  210 d   1      16.511  77.470  26.518  0.00  0.00     0.310 P 
ATOM      7  O9  210 d   1      17.871  77.919  26.054  0.00  0.00    -0.637 OA
ATOM      8  O10 210 d   1      16.502  76.019  27.221  0.00  0.00    -0.637 OA
ATOM      9  O12 210 d   1      15.868  78.601  27.425  0.00  0.00    -0.637 OA
ENDBRANCH   1   6
BRANCH   1  10
ATOM     10  O14 210 d   1      13.948  76.850  25.913  0.00  0.00    -0.365 OA
ATOM     11  H1  210 d   1      14.090  76.040  26.389  0.00  0.00     0.212 HD
ENDBRANCH   1  10
BRANCH   1  12
ATOM     12  C16 210 d   1      14.880  78.559  24.424  0.00  0.00     0.012 C 
ATOM     13  H2  210 d   1      14.173  78.326  23.614  0.00  0.00     0.042 H 
ATOM     14  H3  210 d   1      15.835  78.895  23.993  0.00  0.00     0.042 H 
BRANCH  12  15
ATOM     15  C19 210 d   1      14.280  79.743  25.279  0.00  0.00     0.084 C 
ATOM     16  H4  210 d   1      14.890  80.642  25.112  0.00  0.00     0.075 H 
ATOM     17  H5  210 d   1      14.321  79.465  26.343  0.00  0.00     0.075 H 
BRANCH  15  18
ATOM     18  N22 210 d   1      12.847  80.057  24.916  0.00  0.00    -0.079 N 
ATOM     19  H6  210 d   1      12.514  80.817  25.489  0.00  0.00     0.274 HD
ATOM     20  H7  210 d   1      12.274  79.242  25.073  0.00  0.00     0.274 HD
ATOM     21  H8  210 d   1      12.797  80.322  23.945  0.00  0.00     0.274 HD
ENDBRANCH  15  18
ENDBRANCH  12  15
ENDBRANCH   1  12
TORSDOF 6
