REMARK  2 active torsions:
REMARK  status: ('A' for Active; 'I' for Inactive)
REMARK    1  A    between atoms: C5_4  and  C18_14 
REMARK    2  A    between atoms: C8_9  and  C10_8 
ROOT
ATOM      1  C1  205 d   1      22.090   0.393   4.545  0.00  0.00    -0.051 A 
ATOM      2  C2  205 d   1      21.612   0.064   5.811  0.00  0.00     0.093 A 
ATOM      3  C6  205 d   1      21.366  -0.038   3.406  0.00  0.00    -0.064 A 
ATOM      4  C5  205 d   1      20.206  -0.766   3.562  0.00  0.00     0.043 A 
ATOM      5  C4  205 d   1      19.725  -1.104   4.832  0.00  0.00    -0.031 A 
ATOM      6  C3  205 d   1      20.437  -0.671   5.951  0.00  0.00     0.107 A 
ATOM      7  C8  205 d   1      21.176  -0.248   7.957  0.00  0.00     0.184 A 
ATOM      8  O17 205 d   1      20.151  -0.884   7.311  0.00  0.00    -0.289 OA
ATOM      9  N17 205 d   1      22.044   0.319   7.064  0.00  0.00    -0.221 NA
ATOM     10  H1  205 d   1      23.001   0.970   4.433  0.00  0.00     0.087 H 
ATOM     11  H2  205 d   1      21.724   0.205   2.412  0.00  0.00     0.085 H 
ATOM     12  H3  205 d   1      18.819  -1.689   4.944  0.00  0.00     0.089 H 
ENDROOT
BRANCH   7  13
ATOM     13  C10 205 d   1      21.303  -0.183   9.418  0.00  0.00     0.061 A 
ATOM     14  C11 205 d   1      21.248   1.014  10.103  0.00  0.00     0.050 A 
ATOM     15  C12 205 d   1      21.354   1.066  11.482  0.00  0.00    -0.061 A 
ATOM     16 CL17 205 d   1      21.007   2.536   9.215  0.00  0.00    -0.083 Cl
ATOM     17  C13 205 d   1      21.522  -0.113  12.204  0.00  0.00    -0.080 A 
ATOM     18  H4  205 d   1      21.306   2.019  11.997  0.00  0.00     0.086 H 
ATOM     19  C14 205 d   1      21.580  -1.318  11.512  0.00  0.00    -0.061 A 
ATOM     20  H6  205 d   1      21.606  -0.092  13.284  0.00  0.00     0.083 H 
ATOM     21  C15 205 d   1      21.467  -1.345  10.137  0.00  0.00     0.050 A 
ATOM     22  H5  205 d   1      21.715  -2.245  12.058  0.00  0.00     0.086 H 
ATOM     23 CL16 205 d   1      21.543  -2.926   9.349  0.00  0.00    -0.083 Cl
ENDBRANCH   7  13
BRANCH   4  24
ATOM     24  C18 205 d   1      19.487  -1.192   2.317  0.00  0.00     0.209 C 
ATOM     25  O19 205 d   1      19.681  -0.517   1.275  0.00  0.00    -0.644 OA
ATOM     26  O20 205 d   1      18.739  -2.184   2.328  0.00  0.00    -0.644 OA
ENDBRANCH   4  24
TORSDOF 2
