REMARK  7 active torsions:
REMARK  status: ('A' for Active; 'I' for Inactive)
REMARK    1  A    between atoms: C1_1  and  N7_7 
REMARK    2  A    between atoms: C8_10  and  C1'_11 
REMARK    3  A    between atoms: C3'_13  and  C31'_14 
REMARK    4  A    between atoms: C31'_14  and  C32'_15 
REMARK    5  A    between atoms: C5'_19  and  C1''_22 
REMARK    6  A    between atoms: C6'_20  and  O6'_21 
REMARK    7  A    between atoms: C5''_26  and  N5''_27 
ROOT
ATOM      1  C1' N1H d   1      52.380  -8.424   9.446  0.00  0.00     0.025 A 
ATOM      2  C2' N1H d   1      53.240  -9.513   9.295  0.00  0.00    -0.061 A 
ATOM      3  C3' N1H d   1      54.438  -9.419   8.597  0.00  0.00    -0.046 A 
ATOM      4  C4' N1H d   1      54.801  -8.212   8.033  0.00  0.00    -0.063 A 
ATOM      5  C5' N1H d   1      53.989  -7.079   8.146  0.00  0.00     0.009 A 
ATOM      6  C6' N1H d   1      52.782  -7.223   8.855  0.00  0.00     0.089 A 
ATOM      7  H7  N1H d   1      52.964 -10.464   9.737  0.00  0.00     0.085 H 
ATOM      8  H10 N1H d   1      55.737  -8.141   7.490  0.00  0.00     0.085 H 
ENDROOT
BRANCH   1   9
ATOM      9  C8  N1H d   1      51.183  -8.552  10.171  0.00  0.00     0.048 A 
ATOM     10  N3  N1H d   1      50.324  -7.533  10.238  0.00  0.00    -0.354 N 
ATOM     11  C4  N1H d   1      49.237  -7.829  10.941  0.00  0.00     0.061 A 
ATOM     12  H5  N1H d   1      50.486  -6.618   9.794  0.00  0.00     0.166 HD
ATOM     13  C3  N1H d   1      48.151  -7.068  11.228  0.00  0.00    -0.051 A 
ATOM     14  C5  N1H d   1      49.410  -9.082  11.333  0.00  0.00     0.088 A 
ATOM     15  C2  N1H d   1      47.179  -7.705  11.987  0.00  0.00    -0.037 A 
ATOM     16  H2  N1H d   1      48.050  -6.043  10.891  0.00  0.00     0.087 H 
ATOM     17  C1  N1H d   1      47.328  -9.034  12.418  0.00  0.00     0.121 A 
ATOM     18  H1  N1H d   1      46.280  -7.162  12.255  0.00  0.00     0.089 H 
ATOM     19  N6  N1H d   1      48.460  -9.654  12.057  0.00  0.00    -0.230 NA
ATOM     20  CN4 N1H d   1      50.573  -9.578  10.902  0.00  0.00    -0.026 A 
ATOM     21  H6  N1H d   1      50.967 -10.577  11.083  0.00  0.00     0.090 H 
BRANCH  17  22
ATOM     22  N7  N1H d   1      46.394  -9.624  13.125  0.00  0.00    -0.384 N 
ATOM     23  H3  N1H d   1      46.520 -10.599  13.433  0.00  0.00     0.157 HD
ATOM     24  H4  N1H d   1      45.535  -9.112  13.372  0.00  0.00     0.157 HD
ENDBRANCH  17  22
ENDBRANCH   1   9
BRANCH   6  25
ATOM     25  O6' N1H d   1      51.917  -6.164   8.967  0.00  0.00    -0.359 OA
ATOM     26  H11 N1H d   1      51.158  -6.429   9.473  0.00  0.00     0.217 HD
ENDBRANCH   6  25
BRANCH   3  27
ATOM     27  C31 N1H d   1      55.342 -10.647   8.454  0.00  0.00     0.040 C 
ATOM     28  H8  N1H d   1      56.128 -10.440   7.713  0.00  0.00     0.056 H 
ATOM     29  H9  N1H d   1      54.743 -11.507   8.121  0.00  0.00     0.056 H 
BRANCH  27  30
ATOM     30  C32 N1H d   1      55.984 -10.964   9.804  0.00  0.00     0.176 C 
ATOM     31  O33 N1H d   1      55.284 -11.570  10.600  0.00  0.00    -0.648 OA
ATOM     32  O34 N1H d   1      57.133 -10.575   9.953  0.00  0.00    -0.648 OA
ENDBRANCH  27  30
ENDBRANCH   3  27
BRANCH   5  33
ATOM     33  C1' N1H d   1      54.405  -5.873   7.576  0.00  0.00    -0.021 A 
ATOM     34  C2' N1H d   1      53.490  -5.043   6.927  0.00  0.00    -0.072 A 
ATOM     35  C3' N1H d   1      53.907  -3.858   6.342  0.00  0.00    -0.080 A 
ATOM     36  H12 N1H d   1      52.445  -5.327   6.880  0.00  0.00     0.084 H 
ATOM     37  C4' N1H d   1      55.244  -3.472   6.391  0.00  0.00    -0.051 A 
ATOM     38  H13 N1H d   1      53.184  -3.224   5.841  0.00  0.00     0.083 H 
ATOM     39  C5' N1H d   1      56.195  -4.248   7.025  0.00  0.00     0.103 A 
ATOM     40  H14 N1H d   1      55.545  -2.542   5.921  0.00  0.00     0.087 H 
ATOM     41  C6' N1H d   1      55.770  -5.448   7.615  0.00  0.00    -0.040 A 
ATOM     42  H15 N1H d   1      56.500  -6.073   8.117  0.00  0.00     0.088 H 
BRANCH  39  43
ATOM     43  N5' N1H d   1      57.454  -3.836   7.077  0.00  0.00    -0.116 N 
ATOM     44  O51 N1H d   1      58.380  -4.312   8.107  0.00  0.00    -0.532 OA
ATOM     45  O52 N1H d   1      58.034  -2.829   6.078  0.00  0.00    -0.532 OA
ENDBRANCH  39  43
ENDBRANCH   5  33
TORSDOF 7
