REMARK  24 active torsions:
REMARK  status: ('A' for Active; 'I' for Inactive)
REMARK    1  A    between atoms: C1_1  and  O3_3 
REMARK       I    between atoms: N8_8  and  C1_1 
REMARK    2  A    between atoms: O3_3  and  C4_4 
REMARK    3  A    between atoms: C4_4  and  C5_5 
REMARK    4  A    between atoms: C4_4  and  C6_6 
REMARK    5  A    between atoms: C4_4  and  C7_7 
REMARK    6  A    between atoms: C9_9  and  N8_8 
REMARK    7  A    between atoms: C9_9  and  C10_10 
REMARK    8  A    between atoms: C16_16  and  C9_9 
REMARK       I    between atoms: N20_20  and  C16_16 
REMARK    9  A    between atoms: C18_18  and  C21_21 
REMARK       I    between atoms: N27_27  and  C18_18 
REMARK   10  A    between atoms: C28_28  and  N27_27 
REMARK   11  A    between atoms: C28_28  and  C29_29 
REMARK   12  A    between atoms: C34_34  and  C28_28 
REMARK   13  A    between atoms: C29_29  and  C30_30 
REMARK   14  A    between atoms: C30_30  and  C31_31 
REMARK   15  A    between atoms: C31_31  and  C32_32 
REMARK   16  A    between atoms: C34_34  and  O33_33 
REMARK   17  A    between atoms: C40_40  and  C34_34 
REMARK   18  A    between atoms: N36_36  and  C37_37 
REMARK       I    between atoms: N36_36  and  C40_40 
REMARK   19  A    between atoms: C37_37  and  C38_38 
REMARK       I    between atoms: C38_38  and  N41_41 
REMARK   20  A    between atoms: N41_41  and  C42_42 
REMARK   21  A    between atoms: C42_42  and  C43_43 
REMARK   22  A    between atoms: C42_42  and  C49_49 
REMARK       I    between atoms: C49_49  and  N51_51 
REMARK   23  A    between atoms: N51_51  and  C52_52 
REMARK   24  A    between atoms: N51_51  and  C53_53 
ROOT
ATOM      1  C18 5NH d   1     197.243  -7.495  51.224  0.00  0.00     0.241 C 
ATOM      2  O19 5NH d   1     197.969  -7.759  50.259  0.00  0.00    -0.271 OA
ATOM      3  N27 5NH d   1     197.172  -6.290  51.775  0.00  0.00    -0.352 N 
ATOM      4  H32 5NH d   1     196.509  -6.127  52.506  0.00  0.00     0.163 HD
ENDROOT
BRANCH   1   5
ATOM      5  C21 5NH d   1     196.257  -8.521  51.757  0.00  0.00     0.095 C 
ATOM      6  N20 5NH d   1     195.629  -9.165  50.599  0.00  0.00    -0.332 N 
ATOM      7  C16 5NH d   1     195.113  -8.528  49.536  0.00  0.00     0.244 C 
ATOM      8  C25 5NH d   1     195.756 -10.632  50.862  0.00  0.00     0.016 C 
ATOM      9  O17 5NH d   1     195.042  -7.294  49.488  0.00  0.00    -0.271 OA
ATOM     10  C24 5NH d   1     194.876 -11.018  52.059  0.00  0.00    -0.045 C 
ATOM     11  C26 5NH d   1     197.129 -10.680  51.487  0.00  0.00    -0.040 C 
ATOM     12  H29 5NH d   1     195.607 -11.264  49.974  0.00  0.00     0.072 H 
ATOM     13  C23 5NH d   1     195.607 -10.420  53.257  0.00  0.00    -0.058 C 
ATOM     14  H27 5NH d   1     193.869 -10.587  51.960  0.00  0.00     0.036 H 
ATOM     15  H28 5NH d   1     194.800 -12.111  52.153  0.00  0.00     0.036 H 
ATOM     16  C22 5NH d   1     196.788  -9.702  52.598  0.00  0.00    -0.024 C 
ATOM     17  H25 5NH d   1     194.965  -9.712  53.802  0.00  0.00     0.033 H 
ATOM     18  H26 5NH d   1     195.953 -11.206  53.945  0.00  0.00     0.033 H 
ATOM     19  H24 5NH d   1     197.604  -9.442  53.288  0.00  0.00     0.043 H 
ATOM     20  H30 5NH d   1     197.398 -11.679  51.860  0.00  0.00     0.036 H 
ATOM     21  H31 5NH d   1     197.921 -10.313  50.817  0.00  0.00     0.036 H 
ATOM     22  H23 5NH d   1     195.507  -7.982  52.355  0.00  0.00     0.088 H 
BRANCH   7  23
ATOM     23  C9  5NH d   1     194.510  -9.377  48.416  0.00  0.00     0.095 C 
ATOM     24  H11 5NH d   1     194.892 -10.406  48.484  0.00  0.00     0.088 H 
BRANCH  23  25
ATOM     25  N8  5NH d   1     193.062  -9.395  48.519  0.00  0.00    -0.323 N 
ATOM     26  C1  5NH d   1     192.385 -10.445  48.962  0.00  0.00     0.362 C 
ATOM     27  O2  5NH d   1     192.901 -11.541  49.198  0.00  0.00    -0.238 OA
ATOM     28  H10 5NH d   1     192.553  -8.579  48.244  0.00  0.00     0.165 HD
BRANCH  26  29
ATOM     29  O3  5NH d   1     191.116 -10.049  49.068  0.00  0.00    -0.294 OA
BRANCH  29  30
ATOM     30  C4  5NH d   1     190.066 -10.901  49.547  0.00  0.00     0.061 C 
BRANCH  30  31
ATOM     31  C5  5NH d   1     190.242 -10.888  51.096  0.00  0.00    -0.048 C 
ATOM     32  H1  5NH d   1     189.471 -11.522  51.558  0.00  0.00     0.031 H 
ATOM     33  H2  5NH d   1     190.140  -9.858  51.468  0.00  0.00     0.031 H 
ATOM     34  H3  5NH d   1     191.239 -11.275  51.355  0.00  0.00     0.031 H 
ENDBRANCH  30  31
BRANCH  30  35
ATOM     35  C6  5NH d   1     188.760 -10.185  49.129  0.00  0.00    -0.048 C 
ATOM     36  H4  5NH d   1     187.895 -10.777  49.461  0.00  0.00     0.031 H 
ATOM     37  H5  5NH d   1     188.734 -10.080  48.034  0.00  0.00     0.031 H 
ATOM     38  H6  5NH d   1     188.723  -9.189  49.594  0.00  0.00     0.031 H 
ENDBRANCH  30  35
BRANCH  30  39
ATOM     39  C7  5NH d   1     190.116 -12.308  48.879  0.00  0.00    -0.048 C 
ATOM     40  H7  5NH d   1     189.298 -12.929  49.271  0.00  0.00     0.031 H 
ATOM     41  H8  5NH d   1     191.080 -12.787  49.104  0.00  0.00     0.031 H 
ATOM     42  H9  5NH d   1     190.005 -12.201  47.790  0.00  0.00     0.031 H 
ENDBRANCH  30  39
ENDBRANCH  29  30
ENDBRANCH  26  29
ENDBRANCH  23  25
BRANCH  23  43
ATOM     43  C10 5NH d   1     194.930  -8.754  47.078  0.00  0.00    -0.026 C 
ATOM     44  C11 5NH d   1     196.437  -8.479  47.024  0.00  0.00    -0.059 C 
ATOM     45  C12 5NH d   1     196.863  -7.857  45.704  0.00  0.00    -0.065 C 
ATOM     46  H13 5NH d   1     196.975  -9.429  47.157  0.00  0.00     0.033 H 
ATOM     47  H14 5NH d   1     196.701  -7.791  47.841  0.00  0.00     0.033 H 
ATOM     48  C13 5NH d   1     196.437  -8.734  44.524  0.00  0.00    -0.065 C 
ATOM     49  H15 5NH d   1     197.957  -7.747  45.694  0.00  0.00     0.033 H 
ATOM     50  H16 5NH d   1     196.394  -6.867  45.605  0.00  0.00     0.033 H 
ATOM     51  C14 5NH d   1     194.937  -9.039  44.561  0.00  0.00    -0.065 C 
ATOM     52  H17 5NH d   1     196.995  -9.681  44.563  0.00  0.00     0.033 H 
ATOM     53  H18 5NH d   1     196.672  -8.209  43.586  0.00  0.00     0.033 H 
ATOM     54  C15 5NH d   1     194.540  -9.646  45.904  0.00  0.00    -0.059 C 
ATOM     55  H19 5NH d   1     194.694  -9.750  43.758  0.00  0.00     0.033 H 
ATOM     56  H20 5NH d   1     194.375  -8.106  44.407  0.00  0.00     0.033 H 
ATOM     57  H21 5NH d   1     193.450  -9.793  45.918  0.00  0.00     0.033 H 
ATOM     58  H22 5NH d   1     195.042 -10.618  46.016  0.00  0.00     0.033 H 
ATOM     59  H12 5NH d   1     194.402  -7.795  46.974  0.00  0.00     0.043 H 
ENDBRANCH  23  43
ENDBRANCH   7  23
ENDBRANCH   1   5
BRANCH   3  60
ATOM     60  C28 5NH d   1     198.032  -5.203  51.344  0.00  0.00     0.045 C 
ATOM     61  H33 5NH d   1     198.784  -5.604  50.648  0.00  0.00     0.077 H 
BRANCH  60  62
ATOM     62  C29 5NH d   1     197.195  -4.166  50.577  0.00  0.00    -0.043 C 
ATOM     63  H34 5NH d   1     197.426  -3.169  50.979  0.00  0.00     0.036 H 
ATOM     64  H35 5NH d   1     196.131  -4.390  50.742  0.00  0.00     0.036 H 
BRANCH  62  65
ATOM     65  C30 5NH d   1     197.455  -4.149  49.072  0.00  0.00    -0.063 C 
ATOM     66  H36 5NH d   1     198.187  -4.934  48.832  0.00  0.00     0.033 H 
ATOM     67  H37 5NH d   1     197.867  -3.167  48.797  0.00  0.00     0.033 H 
BRANCH  65  68
ATOM     68  C31 5NH d   1     196.185  -4.395  48.252  0.00  0.00    -0.068 C 
ATOM     69  H38 5NH d   1     195.365  -3.807  48.690  0.00  0.00     0.032 H 
ATOM     70  H39 5NH d   1     195.936  -5.465  48.303  0.00  0.00     0.032 H 
BRANCH  68  71
ATOM     71  C32 5NH d   1     196.337  -4.003  46.794  0.00  0.00    -0.077 C 
ATOM     72  H40 5NH d   1     195.396  -4.203  46.261  0.00  0.00     0.027 H 
ATOM     73  H41 5NH d   1     197.148  -4.590  46.339  0.00  0.00     0.027 H 
ATOM     74  H42 5NH d   1     196.577  -2.932  46.725  0.00  0.00     0.027 H 
ENDBRANCH  68  71
ENDBRANCH  65  68
ENDBRANCH  62  65
ENDBRANCH  60  62
BRANCH  60  75
ATOM     75  C34 5NH d   1     198.780  -4.637  52.563  0.00  0.00     0.131 C 
ATOM     76  H44 5NH d   1     198.168  -3.876  53.069  0.00  0.00     0.101 H 
BRANCH  75  77
ATOM     77  O33 5NH d   1     199.167  -5.676  53.555  0.00  0.00    -0.384 OA
ATOM     78  H43 5NH d   1     198.386  -6.112  53.876  0.00  0.00     0.210 HD
ENDBRANCH  75  77
BRANCH  75  79
ATOM     79  C40 5NH d   1     200.005  -4.011  51.926  0.00  0.00     0.248 C 
ATOM     80  O35 5NH d   1     199.818  -2.894  51.456  0.00  0.00    -0.271 OA
ATOM     81  N36 5NH d   1     201.185  -4.608  51.875  0.00  0.00    -0.350 N 
ATOM     82  H45 5NH d   1     201.226  -5.593  52.041  0.00  0.00     0.163 HD
BRANCH  81  83
ATOM     83  C37 5NH d   1     202.425  -3.903  51.590  0.00  0.00     0.069 C 
ATOM     84  H46 5NH d   1     203.224  -4.388  52.170  0.00  0.00     0.078 H 
ATOM     85  H47 5NH d   1     202.303  -2.865  51.931  0.00  0.00     0.078 H 
BRANCH  83  86
ATOM     86  C38 5NH d   1     202.872  -3.859  50.145  0.00  0.00     0.236 C 
ATOM     87  O39 5NH d   1     202.124  -4.194  49.226  0.00  0.00    -0.272 OA
ATOM     88  N41 5NH d   1     204.103  -3.410  49.947  0.00  0.00    -0.342 N 
ATOM     89  H48 5NH d   1     204.647  -3.119  50.734  0.00  0.00     0.163 HD
BRANCH  88  90
ATOM     90  C42 5NH d   1     204.681  -3.330  48.621  0.00  0.00     0.115 C 
ATOM     91  H49 5NH d   1     204.325  -4.169  48.006  0.00  0.00     0.095 H 
BRANCH  90  92
ATOM     92  C43 5NH d   1     204.427  -2.021  47.952  0.00  0.00    -0.026 A 
ATOM     93  C44 5NH d   1     204.193  -1.970  46.587  0.00  0.00    -0.074 A 
ATOM     94  C45 5NH d   1     204.051  -0.755  45.947  0.00  0.00    -0.082 A 
ATOM     95  H50 5NH d   1     204.121  -2.890  46.018  0.00  0.00     0.084 H 
ATOM     96  C46 5NH d   1     204.142   0.429  46.686  0.00  0.00    -0.083 A 
ATOM     97  H51 5NH d   1     203.870  -0.719  44.879  0.00  0.00     0.083 H 
ATOM     98  C47 5NH d   1     204.369   0.379  48.054  0.00  0.00    -0.082 A 
ATOM     99  H52 5NH d   1     204.035   1.387  46.190  0.00  0.00     0.083 H 
ATOM    100  C48 5NH d   1     204.506  -0.842  48.676  0.00  0.00    -0.074 A 
ATOM    101  H53 5NH d   1     204.438   1.295  48.629  0.00  0.00     0.083 H 
ATOM    102  H54 5NH d   1     204.678  -0.881  49.746  0.00  0.00     0.084 H 
ENDBRANCH  90  92
BRANCH  90 103
ATOM    103  C49 5NH d   1     206.206  -3.314  48.752  0.00  0.00     0.246 C 
ATOM    104  O50 5NH d   1     206.748  -2.772  49.724  0.00  0.00    -0.271 OA
ATOM    105  N51 5NH d   1     206.917  -3.908  47.777  0.00  0.00    -0.359 N 
BRANCH 105 106
ATOM    106  C52 5NH d   1     208.398  -3.833  47.845  0.00  0.00    -0.017 C 
ATOM    107  H55 5NH d   1     208.832  -4.362  46.984  0.00  0.00     0.056 H 
ATOM    108  H56 5NH d   1     208.746  -4.302  48.777  0.00  0.00     0.056 H 
ATOM    109  H57 5NH d   1     208.713  -2.779  47.825  0.00  0.00     0.056 H 
ENDBRANCH 105 106
BRANCH 105 110
ATOM    110  C53 5NH d   1     206.289  -4.638  46.623  0.00  0.00    -0.017 C 
ATOM    111  H58 5NH d   1     205.194  -4.603  46.719  0.00  0.00     0.056 H 
ATOM    112  H59 5NH d   1     206.624  -5.686  46.626  0.00  0.00     0.056 H 
ATOM    113  H60 5NH d   1     206.590  -4.160  45.679  0.00  0.00     0.056 H 
ENDBRANCH 105 110
ENDBRANCH  90 103
ENDBRANCH  88  90
ENDBRANCH  83  86
ENDBRANCH  81  83
ENDBRANCH  75  79
ENDBRANCH  60  75
ENDBRANCH   3  60
TORSDOF 24
