REMARK  22 active torsions:
REMARK  status: ('A' for Active; 'I' for Inactive)
REMARK    1  A    between atoms: C1_1  and  O3_3 
REMARK       I    between atoms: N8_8  and  C1_1 
REMARK    2  A    between atoms: O3_3  and  C4_4 
REMARK    3  A    between atoms: C4_4  and  C5_5 
REMARK    4  A    between atoms: C5_5  and  C6_6 
REMARK    5  A    between atoms: C5_5  and  C7_7 
REMARK    6  A    between atoms: C9_9  and  N8_8 
REMARK    7  A    between atoms: C9_9  and  C10_10 
REMARK    8  A    between atoms: C16_16  and  C9_9 
REMARK       I    between atoms: N18_18  and  C16_16 
REMARK    9  A    between atoms: N19_46  and  N18_18 
REMARK       I    between atoms: N26_25  and  C20_19 
REMARK       I    between atoms: C20_19  and  N19_46 
REMARK   10  A    between atoms: C22_21  and  C23_22 
REMARK   11  A    between atoms: N19_46  and  C22_21 
REMARK   12  A    between atoms: C27_26  and  N26_25 
REMARK   13  A    between atoms: C27_26  and  C28_27 
REMARK   14  A    between atoms: C33_32  and  C27_26 
REMARK   15  A    between atoms: C28_27  and  C29_28 
REMARK   16  A    between atoms: C33_32  and  O32_31 
REMARK   17  A    between atoms: C39_50  and  C33_32 
REMARK       I    between atoms: C37_34  and  N40_35 
REMARK   18  A    between atoms: C36_48  and  C37_34 
REMARK   19  A    between atoms: N40_35  and  C41_36 
REMARK   20  A    between atoms: C41_36  and  C42_37 
REMARK   21  A    between atoms: C41_36  and  C48_43 
REMARK   22  A    between atoms: N35_47  and  C36_48 
REMARK       I    between atoms: N35_47  and  C39_50 
ROOT
ATOM      1  C20 BN6 d   1     195.656  -7.854  50.968  0.00  0.00     0.337 C 
ATOM      2  O21 BN6 d   1     196.597  -8.029  50.185  0.00  0.00    -0.245 OA
ATOM      3  N26 BN6 d   1     195.459  -6.708  51.616  0.00  0.00    -0.334 N 
ATOM      4  N19 BN6 d   1     194.774  -8.829  51.242  0.00  0.00    -0.240 N 
ATOM      5  H31 BN6 d   1     194.875  -6.697  52.428  0.00  0.00     0.164 HD
ENDROOT
BRANCH   4   6
ATOM      6  N18 BN6 d   1     194.311  -9.539  50.086  0.00  0.00    -0.262 N 
ATOM      7  C16 BN6 d   1     193.544  -8.859  49.231  0.00  0.00     0.259 C 
ATOM      8  O17 BN6 d   1     193.075  -7.741  49.475  0.00  0.00    -0.269 OA
ATOM      9  H23 BN6 d   1     194.551 -10.497  49.928  0.00  0.00     0.190 HD
BRANCH   7  10
ATOM     10  C9  BN6 d   1     193.201  -9.548  47.914  0.00  0.00     0.096 C 
ATOM     11  H11 BN6 d   1     193.727 -10.510  47.828  0.00  0.00     0.088 H 
BRANCH  10  12
ATOM     12  N8  BN6 d   1     191.756  -9.750  47.944  0.00  0.00    -0.323 N 
ATOM     13  C1  BN6 d   1     191.185 -10.746  48.626  0.00  0.00     0.361 C 
ATOM     14  O2  BN6 d   1     191.847 -11.603  49.230  0.00  0.00    -0.239 OA
ATOM     15  H10 BN6 d   1     191.171  -9.119  47.434  0.00  0.00     0.165 HD
BRANCH  13  16
ATOM     16  O3  BN6 d   1     189.779 -10.702  48.518  0.00  0.00    -0.304 OA
BRANCH  16  17
ATOM     17  C4  BN6 d   1     188.865 -11.470  49.369  0.00  0.00     0.033 C 
ATOM     18  H1  BN6 d   1     189.457 -12.267  49.843  0.00  0.00     0.075 H 
ATOM     19  H2  BN6 d   1     188.109 -11.919  48.708  0.00  0.00     0.075 H 
BRANCH  17  20
ATOM     20  C5  BN6 d   1     188.108 -10.742  50.492  0.00  0.00    -0.040 C 
ATOM     21  H3  BN6 d   1     187.178 -11.306  50.655  0.00  0.00     0.042 H 
BRANCH  20  22
ATOM     22  C6  BN6 d   1     187.697  -9.336  50.117  0.00  0.00    -0.071 C 
ATOM     23  H4  BN6 d   1     187.162  -8.873  50.960  0.00  0.00     0.028 H 
ATOM     24  H5  BN6 d   1     187.037  -9.369  49.238  0.00  0.00     0.028 H 
ATOM     25  H6  BN6 d   1     188.593  -8.743  49.881  0.00  0.00     0.028 H 
ENDBRANCH  20  22
BRANCH  20  26
ATOM     26  C7  BN6 d   1     188.867 -10.766  51.805  0.00  0.00    -0.071 C 
ATOM     27  H7  BN6 d   1     189.150 -11.801  52.046  0.00  0.00     0.028 H 
ATOM     28  H8  BN6 d   1     188.228 -10.364  52.605  0.00  0.00     0.028 H 
ATOM     29  H9  BN6 d   1     189.774 -10.150  51.716  0.00  0.00     0.028 H 
ENDBRANCH  20  26
ENDBRANCH  17  20
ENDBRANCH  16  17
ENDBRANCH  13  16
ENDBRANCH  10  12
BRANCH  10  30
ATOM     30  C10 BN6 d   1     193.582  -8.633  46.729  0.00  0.00    -0.026 C 
ATOM     31  C11 BN6 d   1     195.074  -8.276  46.753  0.00  0.00    -0.059 C 
ATOM     32  C13 BN6 d   1     195.505  -7.427  45.550  0.00  0.00    -0.065 C 
ATOM     33  H13 BN6 d   1     195.658  -9.208  46.752  0.00  0.00     0.033 H 
ATOM     34  H14 BN6 d   1     195.285  -7.712  47.674  0.00  0.00     0.033 H 
ATOM     35  C15 BN6 d   1     195.169  -8.134  44.229  0.00  0.00    -0.065 C 
ATOM     36  H17 BN6 d   1     196.590  -7.256  45.601  0.00  0.00     0.033 H 
ATOM     37  H18 BN6 d   1     194.980  -6.461  45.585  0.00  0.00     0.033 H 
ATOM     38  C14 BN6 d   1     193.693  -8.514  44.167  0.00  0.00    -0.065 C 
ATOM     39  H21 BN6 d   1     195.778  -9.046  44.145  0.00  0.00     0.033 H 
ATOM     40  H22 BN6 d   1     195.401  -7.460  43.392  0.00  0.00     0.033 H 
ATOM     41  C12 BN6 d   1     193.291  -9.333  45.395  0.00  0.00    -0.059 C 
ATOM     42  H19 BN6 d   1     193.086  -7.598  44.130  0.00  0.00     0.033 H 
ATOM     43  H20 BN6 d   1     193.512  -9.110  43.261  0.00  0.00     0.033 H 
ATOM     44  H15 BN6 d   1     192.211  -9.536  45.338  0.00  0.00     0.033 H 
ATOM     45  H16 BN6 d   1     193.844 -10.283  45.374  0.00  0.00     0.033 H 
ATOM     46  H12 BN6 d   1     192.988  -7.709  46.793  0.00  0.00     0.043 H 
ENDBRANCH  10  30
ENDBRANCH   7  10
ENDBRANCH   4   6
BRANCH   4  47
ATOM     47  C22 BN6 d   1     194.686  -9.471  52.560  0.00  0.00     0.023 C 
ATOM     48  H24 BN6 d   1     195.702  -9.586  52.965  0.00  0.00     0.068 H 
ATOM     49  H25 BN6 d   1     194.096  -8.826  53.228  0.00  0.00     0.068 H 
BRANCH  47  50
ATOM     50  C23 BN6 d   1     194.025 -10.845  52.497  0.00  0.00    -0.037 A 
ATOM     51  C24 BN6 d   1     192.629 -10.968  53.093  0.00  0.00    -0.060 A 
ATOM     52  C25 BN6 d   1     193.834 -11.608  53.814  0.00  0.00    -0.060 A 
ATOM     53  H27 BN6 d   1     191.877 -11.606  52.606  0.00  0.00     0.033 H 
ATOM     54  H28 BN6 d   1     192.136 -10.085  53.525  0.00  0.00     0.033 H 
ATOM     55  H29 BN6 d   1     194.203 -11.181  54.758  0.00  0.00     0.033 H 
ATOM     56  H30 BN6 d   1     193.945 -12.702  53.839  0.00  0.00     0.033 H 
ATOM     57  H26 BN6 d   1     194.299 -11.372  51.571  0.00  0.00     0.042 H 
ENDBRANCH  47  50
ENDBRANCH   4  47
BRANCH   3  58
ATOM     58  C27 BN6 d   1     196.080  -5.467  51.163  0.00  0.00     0.047 C 
ATOM     59  H32 BN6 d   1     196.813  -5.726  50.384  0.00  0.00     0.077 H 
BRANCH  58  60
ATOM     60  C28 BN6 d   1     195.032  -4.531  50.537  0.00  0.00    -0.040 C 
ATOM     61  H33 BN6 d   1     195.257  -3.487  50.799  0.00  0.00     0.036 H 
ATOM     62  H34 BN6 d   1     194.028  -4.793  50.903  0.00  0.00     0.036 H 
BRANCH  60  63
ATOM     63  C29 BN6 d   1     195.098  -4.714  49.025  0.00  0.00    -0.052 A 
ATOM     64  C30 BN6 d   1     194.474  -3.674  48.097  0.00  0.00    -0.061 A 
ATOM     65  C31 BN6 d   1     193.764  -5.015  48.336  0.00  0.00    -0.061 A 
ATOM     66  H36 BN6 d   1     194.934  -3.462  47.121  0.00  0.00     0.033 H 
ATOM     67  H37 BN6 d   1     194.053  -2.747  48.514  0.00  0.00     0.033 H 
ATOM     68  H38 BN6 d   1     192.835  -5.049  48.925  0.00  0.00     0.033 H 
ATOM     69  H39 BN6 d   1     193.716  -5.764  47.532  0.00  0.00     0.033 H 
ATOM     70  H35 BN6 d   1     196.027  -5.228  48.736  0.00  0.00     0.040 H 
ENDBRANCH  60  63
ENDBRANCH  58  60
BRANCH  58  71
ATOM     71  C33 BN6 d   1     196.843  -4.741  52.307  0.00  0.00     0.131 C 
ATOM     72  H41 BN6 d   1     196.185  -4.134  52.946  0.00  0.00     0.101 H 
BRANCH  71  73
ATOM     73  O32 BN6 d   1     197.599  -5.753  53.068  0.00  0.00    -0.384 OA
ATOM     74  H40 BN6 d   1     196.996  -6.391  53.430  0.00  0.00     0.210 HD
ENDBRANCH  71  73
BRANCH  71  75
ATOM     75  C39 BN6 d   1     197.901  -3.922  51.560  0.00  0.00     0.248 C 
ATOM     76  O34 BN6 d   1     197.676  -2.817  51.088  0.00  0.00    -0.271 OA
ATOM     77  N35 BN6 d   1     199.079  -4.529  51.464  0.00  0.00    -0.350 N 
ATOM     78  H49 BN6 d   1     199.097  -5.529  51.491  0.00  0.00     0.163 HD
BRANCH  77  79
ATOM     79  C36 BN6 d   1     200.340  -3.828  51.322  0.00  0.00     0.069 C 
ATOM     80  H50 BN6 d   1     200.217  -2.786  51.653  0.00  0.00     0.078 H 
ATOM     81  H51 BN6 d   1     201.103  -4.322  51.941  0.00  0.00     0.078 H 
BRANCH  79  82
ATOM     82  C37 BN6 d   1     200.780  -3.845  49.877  0.00  0.00     0.236 C 
ATOM     83  N40 BN6 d   1     202.088  -3.670  49.705  0.00  0.00    -0.341 N 
ATOM     84  H42 BN6 d   1     202.661  -3.554  50.516  0.00  0.00     0.163 HD
ATOM     85  O38 BN6 d   1     199.977  -4.003  48.944  0.00  0.00    -0.272 OA
BRANCH  83  86
ATOM     86  C41 BN6 d   1     202.729  -3.638  48.397  0.00  0.00     0.122 C 
ATOM     87  H43 BN6 d   1     202.324  -4.463  47.793  0.00  0.00     0.097 H 
BRANCH  86  88
ATOM     88  C42 BN6 d   1     202.482  -2.311  47.611  0.00  0.00    -0.025 A 
ATOM     89  C43 BN6 d   1     202.564  -1.019  48.229  0.00  0.00    -0.074 A 
ATOM     90  C45 BN6 d   1     202.376   0.172  47.510  0.00  0.00    -0.082 A 
ATOM     91  H44 BN6 d   1     202.779  -0.960  49.290  0.00  0.00     0.084 H 
ATOM     92  C47 BN6 d   1     202.086   0.090  46.149  0.00  0.00    -0.083 A 
ATOM     93  H46 BN6 d   1     202.455   1.135  48.002  0.00  0.00     0.083 H 
ATOM     94  C46 BN6 d   1     201.996  -1.162  45.515  0.00  0.00    -0.082 A 
ATOM     95  H48 BN6 d   1     201.929   0.997  45.576  0.00  0.00     0.083 H 
ATOM     96  C44 BN6 d   1     202.188  -2.360  46.242  0.00  0.00    -0.074 A 
ATOM     97  H47 BN6 d   1     201.776  -1.210  44.455  0.00  0.00     0.083 H 
ATOM     98  H45 BN6 d   1     202.108  -3.317  45.739  0.00  0.00     0.084 H 
ENDBRANCH  86  88
BRANCH  86  99
ATOM     99  C48 BN6 d   1     204.228  -3.873  48.618  0.00  0.00     0.201 C 
ATOM    100  O49 BN6 d   1     204.771  -3.481  49.664  0.00  0.00    -0.646 OA
ATOM    101  O50 BN6 d   1     204.890  -4.452  47.758  0.00  0.00    -0.646 OA
ENDBRANCH  86  99
ENDBRANCH  83  86
ENDBRANCH  79  82
ENDBRANCH  77  79
ENDBRANCH  71  75
ENDBRANCH  58  71
ENDBRANCH   3  58
TORSDOF 22
