REMARK  2 active torsions:
REMARK  status: ('A' for Active; 'I' for Inactive)
REMARK    1  A    between atoms: C1_1  and  C2_4 
REMARK    2  A    between atoms: C2_4  and  C3_5 
ROOT
ATOM      1  C2  NON d   1      21.589  47.379   3.635  0.00  0.00     0.095 C 
ATOM      2  H1  NON d   1      21.044  46.947   4.487  0.00  0.00     0.065 H 
ATOM      3  H2  NON d   1      22.031  48.341   3.933  0.00  0.00     0.065 H 
ENDROOT
BRANCH   1   4
ATOM      4  C1  NON d   1      20.644  47.589   2.479  0.00  0.00     0.182 C 
ATOM      5  O1A NON d   1      21.106  48.025   1.400  0.00  0.00    -0.648 OA
ATOM      6  O1B NON d   1      19.440  47.311   2.657  0.00  0.00    -0.648 OA
ENDBRANCH   1   4
BRANCH   1   7
ATOM      7  C3  NON d   1      22.675  46.436   3.196  0.00  0.00     0.182 C 
ATOM      8  O3A NON d   1      22.355  45.252   2.960  0.00  0.00    -0.648 OA
ATOM      9  O3B NON d   1      23.842  46.874   3.083  0.00  0.00    -0.648 OA
ENDBRANCH   1   7
TORSDOF 2
