REMARK  6 active torsions:
REMARK  status: ('A' for Active; 'I' for Inactive)
REMARK    1  A    between atoms: CAT_1  and  CAK_2 
REMARK    2  A    between atoms: CAN_4  and  CAQ_5 
REMARK    3  A    between atoms: CAL_8  and  CAR_9 
REMARK    4  A    between atoms: CAR_9  and  OAS_10 
REMARK    5  A    between atoms: CAI_13  and  CAD_14 
REMARK    6  A    between atoms: CAA_17  and  OAG_18 
ROOT
ATOM      1  CAK 459 d   1       3.964  -0.421  -4.409  0.00  0.00    -0.036 C 
ATOM      2  CAJ 459 d   1       5.460  -0.416  -4.750  0.00  0.00     0.000 C 
ATOM      3  CAN 459 d   1       5.576  -1.426  -5.856  0.00  0.00    -0.080 C 
ATOM      4  CAP 459 d   1       4.554  -1.435  -6.814  0.00  0.00    -0.100 C 
ATOM      5  CAO 459 d   1       3.428  -0.589  -6.869  0.00  0.00    -0.038 C 
ATOM      6  CAL 459 d   1       3.201   0.217  -5.572  0.00  0.00     0.010 C 
ATOM      7  CAM 459 d   1       3.737   1.617  -5.765  0.00  0.00     0.030 C 
ATOM      8  OAH 459 d   1       5.069   1.454  -6.278  0.00  0.00    -0.380 OA
ATOM      9  CAI 459 d   1       5.928   0.975  -5.242  0.00  0.00     0.071 C 
ATOM     10  H4  459 d   1       3.637  -1.467  -4.312  0.00  0.00     0.042 H 
ATOM     11  H5  459 d   1       6.059  -0.716  -3.878  0.00  0.00     0.051 H 
ATOM     12  H9  459 d   1       4.639  -2.179  -7.605  0.00  0.00     0.077 H 
ATOM     13  H10 459 d   1       2.537  -1.206  -7.056  0.00  0.00     0.040 H 
ATOM     14  H11 459 d   1       3.564   0.119  -7.700  0.00  0.00     0.040 H 
ATOM     15  H15 459 d   1       3.758   2.155  -4.806  0.00  0.00     0.075 H 
ATOM     16  H16 459 d   1       3.114   2.171  -6.483  0.00  0.00     0.075 H 
ATOM     17  H17 459 d   1       5.847   1.653  -4.380  0.00  0.00     0.092 H 
ENDROOT
BRANCH   9  18
ATOM     18  CAD 459 d   1       7.380   1.090  -5.780  0.00  0.00    -0.029 A 
ATOM     19  CAC 459 d   1       7.738   0.792  -7.101  0.00  0.00    -0.072 A 
ATOM     20  CAB 459 d   1       9.078   0.920  -7.508  0.00  0.00    -0.050 A 
ATOM     21  H18 459 d   1       6.984   0.464  -7.808  0.00  0.00     0.084 H 
ATOM     22  CAA 459 d   1      10.041   1.369  -6.604  0.00  0.00     0.065 A 
ATOM     23  H19 459 d   1       9.363   0.670  -8.524  0.00  0.00     0.087 H 
ATOM     24  CAF 459 d   1       9.667   1.678  -5.304  0.00  0.00    -0.050 A 
ATOM     25  CAE 459 d   1       8.350   1.539  -4.902  0.00  0.00    -0.072 A 
ATOM     26  H21 459 d   1      10.411   2.030  -4.599  0.00  0.00     0.087 H 
ATOM     27  H22 459 d   1       8.074   1.786  -3.883  0.00  0.00     0.084 H 
BRANCH  22  28
ATOM     28  OAG 459 d   1      11.350   1.531  -6.957  0.00  0.00    -0.361 OA
ATOM     29  H20 459 d   1      11.704   0.698  -7.247  0.00  0.00     0.217 HD
ENDBRANCH  22  28
ENDBRANCH   9  18
BRANCH   1  30
ATOM     30  CAT 459 d   1       3.666   0.277  -3.093  0.00  0.00    -0.071 C 
ATOM     31  H1  459 d   1       4.231  -0.209  -2.284  0.00  0.00     0.028 H 
ATOM     32  H2  459 d   1       2.589   0.211  -2.879  0.00  0.00     0.028 H 
ATOM     33  H3  459 d   1       3.962   1.334  -3.163  0.00  0.00     0.028 H 
ENDBRANCH   1  30
BRANCH   3  34
ATOM     34  CAQ 459 d   1       6.755  -2.413  -5.878  0.00  0.00    -0.054 C 
ATOM     35  H6  459 d   1       6.668  -3.068  -6.757  0.00  0.00     0.033 H 
ATOM     36  H7  459 d   1       6.740  -3.023  -4.963  0.00  0.00     0.033 H 
ATOM     37  H8  459 d   1       7.701  -1.853  -5.930  0.00  0.00     0.033 H 
ENDBRANCH   3  34
BRANCH   6  38
ATOM     38  CAR 459 d   1       1.712   0.340  -5.270  0.00  0.00     0.026 C 
ATOM     39  H12 459 d   1       1.140   0.247  -6.205  0.00  0.00     0.075 H 
ATOM     40  H13 459 d   1       1.511   1.320  -4.813  0.00  0.00     0.075 H 
BRANCH  38  41
ATOM     41  OAS 459 d   1       1.319  -0.696  -4.367  0.00  0.00    -0.400 OA
ATOM     42  H14 459 d   1       0.391  -0.617  -4.181  0.00  0.00     0.209 HD
ENDBRANCH  38  41
ENDBRANCH   6  38
TORSDOF 6
