REMARK  10 active torsions:
REMARK  status: ('A' for Active; 'I' for Inactive)
REMARK    1  A    between atoms: C3_1  and  C8_16 
REMARK    2  A    between atoms: C6_3  and  C5_2 
REMARK    3  A    between atoms: O22_30  and  C23_5 
REMARK    4  A    between atoms: C23_5  and  C24_31 
REMARK    5  A    between atoms: N33_9  and  O34_8 
REMARK    6  A    between atoms: C2_17  and  C7_18 
REMARK    7  A    between atoms: C19_27  and  O22_30 
REMARK    8  A    between atoms: C24_31  and  N25_32 
REMARK    9  A    between atoms: N25_32  and  C27_33 
REMARK   10  A    between atoms: N25_32  and  C26_34 
ROOT
ATOM      1  C3  215 d   1     -40.215  28.186  -1.222  0.00  0.00     0.074 A 
ATOM      2  C5  215 d   1     -40.040  30.374  -1.066  0.00  0.00     0.139 A 
ATOM      3  C2  215 d   1     -38.878  28.447  -0.909  0.00  0.00     0.097 A 
ATOM      4  N4  215 d   1     -40.883  29.355  -1.300  0.00  0.00    -0.338 N 
ATOM      5  N1  215 d   1     -38.826  29.795  -0.821  0.00  0.00    -0.227 NA
ATOM      6  H16 215 d   1     -41.887  29.452  -1.508  0.00  0.00     0.167 HD
ENDROOT
BRANCH   2   7
ATOM      7  C6  215 d   1     -40.395  31.859  -1.018  0.00  0.00     0.010 A 
ATOM      8  C21 215 d   1     -41.737  32.310  -0.981  0.00  0.00    -0.067 A 
ATOM      9  C20 215 d   1     -42.098  33.685  -0.909  0.00  0.00    -0.050 A 
ATOM     10  H1  215 d   1     -42.529  31.571  -1.009  0.00  0.00     0.085 H 
ATOM     11  C19 215 d   1     -41.095  34.663  -0.807  0.00  0.00     0.068 A 
ATOM     12  H17 215 d   1     -43.142  33.976  -0.933  0.00  0.00     0.087 H 
ATOM     13  C18 215 d   1     -39.756  34.198  -0.830  0.00  0.00    -0.050 A 
ATOM     14  C17 215 d   1     -39.404  32.833  -0.916  0.00  0.00    -0.067 A 
ATOM     15  H18 215 d   1     -38.959  34.930  -0.779  0.00  0.00     0.087 H 
ATOM     16  H19 215 d   1     -38.360  32.542  -0.903  0.00  0.00     0.085 H 
BRANCH  11  17
ATOM     17  O22 215 d   1     -41.398  36.027  -0.764  0.00  0.00    -0.350 OA
BRANCH  17  18
ATOM     18  C23 215 d   1     -41.156  37.012   0.243  0.00  0.00     0.049 C 
ATOM     19  H2  215 d   1     -40.223  37.564   0.055  0.00  0.00     0.077 H 
ATOM     20  H3  215 d   1     -41.121  36.565   1.248  0.00  0.00     0.077 H 
BRANCH  18  21
ATOM     21  C24 215 d   1     -42.380  37.900   0.065  0.00  0.00     0.102 C 
ATOM     22  H20 215 d   1     -42.542  38.046  -1.013  0.00  0.00     0.079 H 
ATOM     23  H21 215 d   1     -42.170  38.870   0.538  0.00  0.00     0.079 H 
BRANCH  21  24
ATOM     24  N25 215 d   1     -43.649  37.356   0.659  0.00  0.00    -0.077 N 
ATOM     25  H22 215 d   1     -44.181  38.172   0.921  0.00  0.00     0.279 HD
BRANCH  24  26
ATOM     26  C27 215 d   1     -44.576  36.561  -0.210  0.00  0.00     0.066 C 
ATOM     27  H23 215 d   1     -45.448  36.242   0.380  0.00  0.00     0.068 H 
ATOM     28  H24 215 d   1     -44.049  35.675  -0.594  0.00  0.00     0.068 H 
ATOM     29  H25 215 d   1     -44.911  37.182  -1.054  0.00  0.00     0.068 H 
ENDBRANCH  24  26
BRANCH  24  30
ATOM     30  C26 215 d   1     -43.355  36.626   1.916  0.00  0.00     0.066 C 
ATOM     31  H26 215 d   1     -42.674  37.226   2.538  0.00  0.00     0.068 H 
ATOM     32  H27 215 d   1     -42.881  35.662   1.678  0.00  0.00     0.068 H 
ATOM     33  H28 215 d   1     -44.292  36.448   2.465  0.00  0.00     0.068 H 
ENDBRANCH  24  30
ENDBRANCH  21  24
ENDBRANCH  18  21
ENDBRANCH  17  18
ENDBRANCH  11  17
ENDBRANCH   2   7
BRANCH   1  34
ATOM     34  C8  215 d   1     -40.881  26.868  -1.389  0.00  0.00    -0.006 A 
ATOM     35  C9  215 d   1     -40.581  25.890  -0.446  0.00  0.00    -0.064 A 
ATOM     36  C29 215 d   1     -41.192  24.641  -0.505  0.00  0.00    -0.045 A 
ATOM     37  H9  215 d   1     -39.866  26.102   0.341  0.00  0.00     0.085 H 
ATOM     38  C30 215 d   1     -40.945  23.473   0.444  0.00  0.00    -0.035 A 
ATOM     39  C28 215 d   1     -42.126  24.371  -1.479  0.00  0.00    -0.003 A 
ATOM     40  C31 215 d   1     -41.905  22.380  -0.043  0.00  0.00    -0.018 A 
ATOM     41  H7  215 d   1     -39.901  23.132   0.379  0.00  0.00     0.040 H 
ATOM     42  H8  215 d   1     -41.174  23.759   1.481  0.00  0.00     0.040 H 
ATOM     43  C32 215 d   1     -42.588  22.961  -1.268  0.00  0.00     0.072 A 
ATOM     44  H4  215 d   1     -41.348  21.469  -0.308  0.00  0.00     0.043 H 
ATOM     45  H5  215 d   1     -42.646  22.144   0.735  0.00  0.00     0.043 H 
ATOM     46  N33 215 d   1     -43.400  22.246  -1.931  0.00  0.00    -0.140 NA
ATOM     47  C10 215 d   1     -42.483  25.353  -2.422  0.00  0.00    -0.070 A 
ATOM     48  C11 215 d   1     -41.851  26.617  -2.363  0.00  0.00    -0.070 A 
ATOM     49  H10 215 d   1     -43.229  25.144  -3.180  0.00  0.00     0.085 H 
ATOM     50  H11 215 d   1     -42.119  27.391  -3.073  0.00  0.00     0.084 H 
BRANCH  46  51
ATOM     51  O34 215 d   1     -44.052  22.669  -3.079  0.00  0.00    -0.266 OA
ATOM     52  H6  215 d   1     -44.607  21.969  -3.402  0.00  0.00     0.247 HD
ENDBRANCH  46  51
ENDBRANCH   1  34
BRANCH   3  53
ATOM     53  C7  215 d   1     -37.721  27.473  -0.663  0.00  0.00    -0.002 A 
ATOM     54  C16 215 d   1     -37.767  26.115  -1.017  0.00  0.00    -0.054 A 
ATOM     55  C15 215 d   1     -36.704  25.279  -0.727  0.00  0.00     0.003 A 
ATOM     56  H12 215 d   1     -38.641  25.719  -1.521  0.00  0.00     0.087 H 
ATOM     57  N14 215 d   1     -35.629  25.738  -0.090  0.00  0.00    -0.273 NA
ATOM     58  H13 215 d   1     -36.747  24.237  -1.022  0.00  0.00     0.114 H 
ATOM     59  C13 215 d   1     -35.543  27.009   0.283  0.00  0.00     0.003 A 
ATOM     60  C12 215 d   1     -36.582  27.898   0.021  0.00  0.00    -0.054 A 
ATOM     61  H14 215 d   1     -34.655  27.358   0.797  0.00  0.00     0.114 H 
ATOM     62  H15 215 d   1     -36.505  28.928   0.351  0.00  0.00     0.087 H 
ENDBRANCH   3  53
TORSDOF 10
