REMARK WARNING: 32 MAX_TORS EXCEEDED!!!
REMARK  55 active torsions:
REMARK  status: ('A' for Active; 'I' for Inactive)
REMARK    1  A    between atoms: C_1  and  CH3_3 
REMARK       I    between atoms: C_1  and  N_4 
REMARK    2  A    between atoms: N_4  and  CA_5 
REMARK    3  A    between atoms: CA_5  and  C_6 
REMARK    4  A    between atoms: CA_5  and  CB_8 
REMARK       I    between atoms: C_6  and  N_12 
REMARK    5  A    between atoms: CB_8  and  CG_9 
REMARK    6  A    between atoms: N_12  and  CA_13 
REMARK    7  A    between atoms: CA_13  and  C_14 
REMARK    8  A    between atoms: CA_13  and  CB_16 
REMARK       I    between atoms: C_14  and  N_19 
REMARK    9  A    between atoms: CB_16  and  OG1_17 
REMARK   10  A    between atoms: CB_16  and  CG2_18 
REMARK   11  A    between atoms: N_19  and  CA_20 
REMARK   12  A    between atoms: CA_20  and  C_21 
REMARK   13  A    between atoms: CA_20  and  CB_23 
REMARK       I    between atoms: C_21  and  N_28 
REMARK   14  A    between atoms: CB_23  and  CG_24 
REMARK   15  A    between atoms: CG_24  and  CD_25 
REMARK   16  A    between atoms: N_28  and  CA_29 
REMARK   17  A    between atoms: CA_29  and  C_30 
REMARK   18  A    between atoms: CA_29  and  CB_32 
REMARK       I    between atoms: C_30  and  N_35 
REMARK   19  A    between atoms: CB_32  and  CG1_33 
REMARK   20  A    between atoms: CB_32  and  CG2_34 
REMARK   21  A    between atoms: N_35  and  CA_36 
REMARK   22  A    between atoms: CA_36  and  C_37 
REMARK   23  A    between atoms: CA_36  and  CB_39 
REMARK       I    between atoms: C_37  and  N_51 
REMARK   24  A    between atoms: CB_39  and  CG_40 
REMARK   25  A    between atoms: CZ_45  and  OH_46 
REMARK   26  A    between atoms: OH_46  and  P_47 
REMARK   27  A    between atoms: N_51  and  CA_52 
REMARK   28  A    between atoms: CA_52  and  C_53 
REMARK   29  A    between atoms: CA_52  and  CB_55 
REMARK       I    between atoms: C_53  and  N_60 
REMARK   30  A    between atoms: CB_55  and  CG_56 
REMARK   31  A    between atoms: CG_56  and  CD_57 
REMARK   32  A    between atoms: N_60  and  CA_61 
REMARK   33  A    between atoms: CA_61  and  C_62 
REMARK   34  A    between atoms: CA_61  and  CB_64 
REMARK       I    between atoms: C_62  and  N_66 
REMARK   35  A    between atoms: CB_64  and  OG_65 
REMARK   36  A    between atoms: CA_67  and  C_68 
REMARK       I    between atoms: C_68  and  N_73 
REMARK   37  A    between atoms: N_73  and  CA_74 
REMARK   38  A    between atoms: CA_74  and  C_75 
REMARK   39  A    between atoms: CA_74  and  CB_77 
REMARK       I    between atoms: C_75  and  N_89 
REMARK   40  A    between atoms: CB_77  and  CG_78 
REMARK   41  A    between atoms: CZ_83  and  OH_84 
REMARK   42  A    between atoms: OH_84  and  P_85 
REMARK   43  A    between atoms: N_89  and  CA_90 
REMARK   44  A    between atoms: CA_90  and  C_91 
REMARK   45  A    between atoms: CA_90  and  CB_93 
REMARK       I    between atoms: C_91  and  N_94 
REMARK   46  A    between atoms: N_94  and  CA_95 
REMARK   47  A    between atoms: CA_95  and  C_96 
REMARK   48  A    between atoms: CA_95  and  CB_98 
REMARK       I    between atoms: C_96  and  N_102 
REMARK   49  A    between atoms: CB_98  and  CG_99 
REMARK   50  A    between atoms: CA_103  and  C_104 
REMARK       I    between atoms: C_104  and  N_109 
REMARK   51  A    between atoms: N_109  and  CA_110 
REMARK   52  A    between atoms: CA_110  and  C_111 
REMARK   53  A    between atoms: CA_110  and  CB_113 
REMARK       I    between atoms: C_111  and  N2_118 
REMARK   54  A    between atoms: CB_113  and  CG_114 
REMARK   55  A    between atoms: CG_114  and  CD_115 
ROOT
ATOM      1  C   GLU d   1      -1.830 -10.105  -8.800  0.00  0.00     0.241 C 
ATOM      2  O   GLU d   1      -2.839  -9.468  -8.616  0.00  0.00    -0.271 OA
ATOM      3  N   SER d   1      -1.243 -10.735  -7.799  0.00  0.00    -0.344 N 
ATOM      4  H44 SER d   1      -0.405 -11.257  -7.959  0.00  0.00     0.163 HD
ENDROOT
BRANCH   3   5
ATOM      5  CA  SER d   1      -1.837 -10.668  -6.413  0.00  0.00     0.109 C 
ATOM      6  H45 SER d   1      -2.857 -10.257  -6.455  0.00  0.00     0.090 H 
BRANCH   5   7
ATOM      7  C   SER d   1      -0.981  -9.779  -5.478  0.00  0.00     0.245 C 
ATOM      8  O   SER d   1       0.137 -10.130  -5.147  0.00  0.00    -0.271 OA
ATOM      9  N   PRO d   1      -1.529  -8.617  -5.133  0.00  0.00    -0.337 N 
ATOM     10  CA  PRO d   1      -0.800  -7.613  -4.294  0.00  0.00     0.091 C 
ATOM     11  CD  PRO d   1      -2.866  -8.136  -5.491  0.00  0.00    -0.001 C 
ATOM     12  CB  PRO d   1      -1.454  -6.292  -4.731  0.00  0.00    -0.036 C 
ATOM     13  H49 PRO d   1       0.268  -7.613  -4.556  0.00  0.00     0.087 H 
ATOM     14  CG  PRO d   1      -2.829  -6.650  -5.214  0.00  0.00    -0.048 C 
ATOM     15  H50 PRO d   1      -0.873  -5.828  -5.542  0.00  0.00     0.036 H 
ATOM     16  H51 PRO d   1      -1.517  -5.597  -3.881  0.00  0.00     0.036 H 
ATOM     17  H52 PRO d   1      -3.055  -6.095  -6.136  0.00  0.00     0.035 H 
ATOM     18  H53 PRO d   1      -3.571  -6.397  -4.442  0.00  0.00     0.035 H 
ATOM     19  H54 PRO d   1      -3.633  -8.626  -4.873  0.00  0.00     0.064 H 
ATOM     20  H55 PRO d   1      -3.075  -8.327  -6.554  0.00  0.00     0.064 H 
BRANCH  10  21
ATOM     21  C   PRO d   1      -0.915  -7.859  -2.758  0.00  0.00     0.241 C 
ATOM     22  O   PRO d   1      -0.452  -8.863  -2.253  0.00  0.00    -0.271 OA
ATOM     23  N   PTR d   1      -1.473  -6.926  -2.006  0.00  0.00    -0.346 N 
ATOM     24  H56 PTR d   1      -1.845  -6.103  -2.435  0.00  0.00     0.163 HD
BRANCH  23  25
ATOM     25  CA  PTR d   1      -1.554  -7.088  -0.519  0.00  0.00     0.093 C 
ATOM     26  H57 PTR d   1      -0.870  -7.878  -0.176  0.00  0.00     0.088 H 
BRANCH  25  27
ATOM     27  C   PTR d   1      -2.982  -7.426  -0.079  0.00  0.00     0.241 C 
ATOM     28  O   PTR d   1      -3.862  -6.588  -0.086  0.00  0.00    -0.271 OA
ATOM     29  N   ALA d   1      -3.212  -8.661   0.275  0.00  0.00    -0.346 N 
ATOM     30  H64 ALA d   1      -2.463  -9.323   0.278  0.00  0.00     0.163 HD
BRANCH  29  31
ATOM     31  CA  ALA d   1      -4.586  -9.095   0.676  0.00  0.00     0.086 C 
ATOM     32  H65 ALA d   1      -5.330  -8.368   0.318  0.00  0.00     0.086 H 
BRANCH  31  33
ATOM     33  C   ALA d   1      -4.763  -9.272   2.203  0.00  0.00     0.240 C 
ATOM     34  O   ALA d   1      -5.820  -8.974   2.733  0.00  0.00    -0.271 OA
ATOM     35  N   ASP d   1      -3.780  -9.785   2.908  0.00  0.00    -0.346 N 
ATOM     36  H69 ASP d   1      -2.915 -10.024   2.466  0.00  0.00     0.163 HD
BRANCH  35  37
ATOM     37  CA  ASP d   1      -3.963 -10.011   4.385  0.00  0.00     0.099 C 
ATOM     38  H70 ASP d   1      -5.020  -9.879   4.660  0.00  0.00     0.088 H 
BRANCH  37  39
ATOM     39  C   ASP d   1      -3.087  -9.082   5.237  0.00  0.00     0.243 C 
ATOM     40  O   ASP d   1      -2.050  -8.625   4.789  0.00  0.00    -0.271 OA
ATOM     41  N   PRO d   1      -3.488  -8.906   6.483  0.00  0.00    -0.337 N 
ATOM     42  CA  PRO d   1      -2.660  -8.119   7.426  0.00  0.00     0.091 C 
ATOM     43  CD  PRO d   1      -4.713  -9.422   7.123  0.00  0.00    -0.001 C 
ATOM     44  CB  PRO d   1      -3.565  -7.940   8.652  0.00  0.00    -0.036 C 
ATOM     45  H73 PRO d   1      -2.362  -7.145   7.010  0.00  0.00     0.087 H 
ATOM     46  CG  PRO d   1      -4.534  -9.081   8.585  0.00  0.00    -0.048 C 
ATOM     47  H74 PRO d   1      -4.096  -6.978   8.604  0.00  0.00     0.036 H 
ATOM     48  H75 PRO d   1      -2.975  -7.987   9.579  0.00  0.00     0.036 H 
ATOM     49  H76 PRO d   1      -5.498  -8.785   9.025  0.00  0.00     0.035 H 
ATOM     50  H77 PRO d   1      -4.134  -9.949   9.129  0.00  0.00     0.035 H 
ATOM     51  H78 PRO d   1      -4.799 -10.510   6.983  0.00  0.00     0.064 H 
ATOM     52  H79 PRO d   1      -5.606  -8.928   6.713  0.00  0.00     0.064 H 
BRANCH  42  53
ATOM     53  C   PRO d   1      -1.422  -8.982   7.727  0.00  0.00     0.241 C 
ATOM     54  O   PRO d   1      -1.403 -10.154   7.392  0.00  0.00    -0.271 OA
ATOM     55  N   GMA d   1      -0.381  -8.454   8.312  0.00  0.00    -0.346 N 
ATOM     56  H80 GMA d   1      -0.385  -7.494   8.591  0.00  0.00     0.163 HD
BRANCH  55  57
ATOM     57  CA  GMA d   1       0.822  -9.319   8.558  0.00  0.00     0.089 C 
ATOM     58  H81 GMA d   1       1.234  -9.663   7.598  0.00  0.00     0.087 H 
BRANCH  57  59
ATOM     59  C   GMA d   1       0.473 -10.545   9.421  0.00  0.00     0.238 C 
ATOM     60  O   GMA d   1       0.636 -11.672   9.000  0.00  0.00    -0.271 OA
ATOM     61  N2  GMA d   1       0.035 -10.371  10.634  0.00  0.00    -0.368 N 
ATOM     62  H86 GMA d   1      -0.194 -11.162  11.201  0.00  0.00     0.159 HD
ATOM     63  H87 GMA d   1      -0.073  -9.446  10.999  0.00  0.00     0.159 HD
ENDBRANCH  57  59
BRANCH  57  64
ATOM     64  CB  GMA d   1       1.843  -8.444   9.281  0.00  0.00    -0.029 C 
ATOM     65  H82 GMA d   1       1.384  -8.002  10.178  0.00  0.00     0.037 H 
ATOM     66  H83 GMA d   1       2.185  -7.642   8.611  0.00  0.00     0.037 H 
BRANCH  64  67
ATOM     67  CG  GMA d   1       3.039  -9.323   9.690  0.00  0.00     0.018 C 
ATOM     68  H84 GMA d   1       2.664 -10.241  10.166  0.00  0.00     0.049 H 
ATOM     69  H85 GMA d   1       3.665  -8.768  10.405  0.00  0.00     0.049 H 
BRANCH  67  70
ATOM     70  CD  GMA d   1       3.890  -9.703   8.468  0.00  0.00     0.172 C 
ATOM     71  OE1 GMA d   1       5.061  -9.972   8.663  0.00  0.00    -0.648 OA
ATOM     72  OE2 GMA d   1       3.365  -9.734   7.361  0.00  0.00    -0.648 OA
ENDBRANCH  67  70
ENDBRANCH  64  67
ENDBRANCH  57  64
ENDBRANCH  55  57
ENDBRANCH  42  53
ENDBRANCH  37  39
BRANCH  37  73
ATOM     73  CB  ASP d   1      -3.497 -11.460   4.643  0.00  0.00     0.043 C 
ATOM     74  H71 ASP d   1      -3.889 -11.793   5.615  0.00  0.00     0.052 H 
ATOM     75  H72 ASP d   1      -2.397 -11.483   4.664  0.00  0.00     0.052 H 
BRANCH  73  76
ATOM     76  CG  ASP d   1      -3.992 -12.415   3.556  0.00  0.00     0.175 C 
ATOM     77  OD1 ASP d   1      -5.072 -12.957   3.717  0.00  0.00    -0.648 OA
ATOM     78  OD2 ASP d   1      -3.267 -12.604   2.591  0.00  0.00    -0.648 OA
ENDBRANCH  73  76
ENDBRANCH  37  73
ENDBRANCH  35  37
ENDBRANCH  31  33
BRANCH  31  79
ATOM     79  CB  ALA d   1      -4.755 -10.437  -0.039  0.00  0.00    -0.049 C 
ATOM     80  H66 ALA d   1      -5.747 -10.852   0.190  0.00  0.00     0.030 H 
ATOM     81  H67 ALA d   1      -3.977 -11.136   0.303  0.00  0.00     0.030 H 
ATOM     82  H68 ALA d   1      -4.662 -10.288  -1.125  0.00  0.00     0.030 H 
ENDBRANCH  31  79
ENDBRANCH  29  31
ENDBRANCH  25  27
BRANCH  25  83
ATOM     83  CB  PTR d   1      -1.123  -5.726   0.024  0.00  0.00    -0.014 C 
ATOM     84  H58 PTR d   1      -1.776  -5.442   0.862  0.00  0.00     0.043 H 
ATOM     85  H59 PTR d   1      -1.200  -4.972  -0.773  0.00  0.00     0.043 H 
BRANCH  83  86
ATOM     86  CG  PTR d   1       0.304  -5.806   0.504  0.00  0.00    -0.056 A 
ATOM     87  CD1 PTR d   1       0.573  -6.340   1.759  0.00  0.00    -0.074 A 
ATOM     88  CE1 PTR d   1       1.882  -6.406   2.234  0.00  0.00    -0.050 A 
ATOM     89  H60 PTR d   1      -0.241  -6.708   2.373  0.00  0.00     0.084 H 
ATOM     90  CZ  PTR d   1       2.937  -5.939   1.445  0.00  0.00     0.082 A 
ATOM     91  H62 PTR d   1       2.082  -6.820   3.216  0.00  0.00     0.087 H 
ATOM     92  CE2 PTR d   1       2.670  -5.403   0.179  0.00  0.00    -0.050 A 
ATOM     93  CD2 PTR d   1       1.351  -5.333  -0.292  0.00  0.00    -0.074 A 
ATOM     94  H63 PTR d   1       3.485  -5.042  -0.438  0.00  0.00     0.087 H 
ATOM     95  H61 PTR d   1       1.144  -4.914  -1.270  0.00  0.00     0.084 H 
BRANCH  90  96
ATOM     96  OH  PTR d   1       4.240  -5.993   1.913  0.00  0.00    -0.240 OA
BRANCH  96  97
ATOM     97  P   PTR d   1       4.786  -7.308   2.565  0.00  0.00     0.427 P 
ATOM     98  O1P PTR d   1       6.139  -7.522   1.852  0.00  0.00    -0.617 OA
ATOM     99  O2P PTR d   1       3.817  -8.435   2.110  0.00  0.00    -0.617 OA
ATOM    100  O3P PTR d   1       4.867  -7.071   4.136  0.00  0.00    -0.617 OA
ENDBRANCH  96  97
ENDBRANCH  90  96
ENDBRANCH  83  86
ENDBRANCH  25  83
ENDBRANCH  23  25
ENDBRANCH  10  21
ENDBRANCH   5   7
BRANCH   5 101
ATOM    101  CB  SER d   1      -1.877 -12.122  -5.948  0.00  0.00     0.044 C 
ATOM    102  H46 SER d   1      -1.798 -12.162  -4.852  0.00  0.00     0.077 H 
ATOM    103  H47 SER d   1      -1.040 -12.677  -6.396  0.00  0.00     0.077 H 
BRANCH 101 104
ATOM    104  OG  SER d   1      -3.112 -12.702  -6.361  0.00  0.00    -0.398 OA
ATOM    105  H48 SER d   1      -3.177 -12.664  -7.308  0.00  0.00     0.209 HD
ENDBRANCH 101 104
ENDBRANCH   5 101
ENDBRANCH   3   5
BRANCH   1 106
ATOM    106  CA  GLU d   1      -1.216 -10.204 -10.223  0.00  0.00     0.090 C 
ATOM    107  H39 GLU d   1      -1.903  -9.728 -10.938  0.00  0.00     0.087 H 
BRANCH 106 108
ATOM    108  N   GLU d   1       0.137  -9.545 -10.298  0.00  0.00    -0.346 N 
ATOM    109  C   PTR d   1       0.575  -9.030 -11.442  0.00  0.00     0.241 C 
ATOM    110  O   PTR d   1      -0.101  -9.075 -12.452  0.00  0.00    -0.271 OA
ATOM    111  H38 GLU d   1       0.710  -9.495  -9.480  0.00  0.00     0.163 HD
BRANCH 109 112
ATOM    112  CA  PTR d   1       1.970  -8.353 -11.449  0.00  0.00     0.093 C 
ATOM    113  H31 PTR d   1       2.750  -9.120 -11.564  0.00  0.00     0.088 H 
BRANCH 112 114
ATOM    114  N   PTR d   1       2.062  -7.379 -12.614  0.00  0.00    -0.346 N 
ATOM    115  C   VAL d   1       3.060  -7.486 -13.491  0.00  0.00     0.241 C 
ATOM    116  O   VAL d   1       3.896  -8.353 -13.342  0.00  0.00    -0.271 OA
ATOM    117  H30 PTR d   1       1.375  -6.660 -12.722  0.00  0.00     0.163 HD
BRANCH 115 118
ATOM    118  CA  VAL d   1       3.066  -6.538 -14.746  0.00  0.00     0.092 C 
ATOM    119  H22 VAL d   1       2.017  -6.314 -14.989  0.00  0.00     0.088 H 
BRANCH 118 120
ATOM    120  N   VAL d   1       3.810  -5.244 -14.542  0.00  0.00    -0.346 N 
ATOM    121  C   GLU d   1       3.716  -4.291 -15.467  0.00  0.00     0.241 C 
ATOM    122  O   GLU d   1       3.031  -4.470 -16.460  0.00  0.00    -0.271 OA
ATOM    123  H21 VAL d   1       4.367  -5.103 -13.723  0.00  0.00     0.163 HD
BRANCH 121 124
ATOM    124  CA  GLU d   1       4.464  -2.944 -15.259  0.00  0.00     0.090 C 
ATOM    125  H16 GLU d   1       4.053  -2.450 -14.366  0.00  0.00     0.087 H 
BRANCH 124 126
ATOM    126  N   GLU d   1       5.963  -3.114 -15.120  0.00  0.00    -0.346 N 
ATOM    127  C   THR d   1       6.649  -2.187 -14.464  0.00  0.00     0.243 C 
ATOM    128  O   THR d   1       6.090  -1.244 -13.990  0.00  0.00    -0.271 OA
ATOM    129  H15 GLU d   1       6.426  -3.908 -15.514  0.00  0.00     0.163 HD
BRANCH 127 130
ATOM    130  CA  THR d   1       8.175  -2.298 -14.274  0.00  0.00     0.113 C 
ATOM    131  H9  THR d   1       8.397  -2.098 -13.215  0.00  0.00     0.091 H 
BRANCH 130 132
ATOM    132  N   THR d   1       8.755  -3.668 -14.626  0.00  0.00    -0.344 N 
ATOM    133  C   ASP d   1       9.036  -4.539 -13.652  0.00  0.00     0.241 C 
ATOM    134  O   ASP d   1       8.846  -4.259 -12.489  0.00  0.00    -0.271 OA
ATOM    135  H8  THR d   1       8.924  -3.912 -15.581  0.00  0.00     0.163 HD
BRANCH 133 136
ATOM    136  CA  ASP d   1       9.629  -5.924 -13.982  0.00  0.00     0.098 C 
ATOM    137  H5  ASP d   1      10.706  -5.915 -13.761  0.00  0.00     0.088 H 
BRANCH 136 138
ATOM    138  N   ASP d   1       8.918  -6.931 -13.126  0.00  0.00    -0.348 N 
ATOM    139  C   ACE d   1       9.271  -8.201 -13.080  0.00  0.00     0.214 C 
ATOM    140  O   ACE d   1      10.185  -8.643 -13.738  0.00  0.00    -0.274 OA
ATOM    141  H4  ASP d   1       8.146  -6.627 -12.568  0.00  0.00     0.163 HD
BRANCH 139 142
ATOM    142  CH3 ACE d   1       8.462  -9.128 -12.160  0.00  0.00    -0.003 C 
ATOM    143  H1  ACE d   1       7.680  -8.547 -11.649  0.00  0.00     0.040 H 
ATOM    144  H2  ACE d   1       9.132  -9.578 -11.412  0.00  0.00     0.040 H 
ATOM    145  H3  ACE d   1       7.995  -9.923 -12.760  0.00  0.00     0.040 H 
ENDBRANCH 139 142
ENDBRANCH 136 138
BRANCH 136 146
ATOM    146  CB  ASP d   1       9.410  -6.380 -15.447  0.00  0.00     0.043 C 
ATOM    147  H6  ASP d   1       8.365  -6.192 -15.734  0.00  0.00     0.052 H 
ATOM    148  H7  ASP d   1       9.625  -7.455 -15.529  0.00  0.00     0.052 H 
BRANCH 146 149
ATOM    149  CG  ASP d   1      10.341  -5.603 -16.385  0.00  0.00     0.175 C 
ATOM    150  OD1 ASP d   1      11.527  -5.882 -16.409  0.00  0.00    -0.648 OA
ATOM    151  OD2 ASP d   1       9.822  -4.757 -17.088  0.00  0.00    -0.648 OA
ENDBRANCH 146 149
ENDBRANCH 136 146
ENDBRANCH 133 136
ENDBRANCH 130 132
BRANCH 130 152
ATOM    152  CB  THR d   1       8.872  -1.239 -15.138  0.00  0.00     0.060 C 
ATOM    153  H10 THR d   1       8.674  -0.249 -14.702  0.00  0.00     0.086 H 
BRANCH 152 154
ATOM    154  OG1 THR d   1       8.352  -1.256 -16.464  0.00  0.00    -0.393 OA
ATOM    155  H11 THR d   1       8.794  -0.595 -16.985  0.00  0.00     0.210 HD
ENDBRANCH 152 154
BRANCH 152 156
ATOM    156  CG2 THR d   1      10.373  -1.470 -15.139  0.00  0.00    -0.050 C 
ATOM    157  H12 THR d   1      10.861  -0.705 -15.761  0.00  0.00     0.031 H 
ATOM    158  H13 THR d   1      10.590  -2.468 -15.547  0.00  0.00     0.031 H 
ATOM    159  H14 THR d   1      10.755  -1.404 -14.110  0.00  0.00     0.031 H 
ENDBRANCH 152 156
ENDBRANCH 130 152
ENDBRANCH 127 130
ENDBRANCH 124 126
BRANCH 124 160
ATOM    160  CB  GLU d   1       4.333  -2.033 -16.483  0.00  0.00    -0.029 C 
ATOM    161  H17 GLU d   1       3.468  -2.351 -17.083  0.00  0.00     0.037 H 
ATOM    162  H18 GLU d   1       5.247  -2.105 -17.091  0.00  0.00     0.037 H 
BRANCH 160 163
ATOM    163  CG  GLU d   1       4.133  -0.570 -16.031  0.00  0.00     0.018 C 
ATOM    164  H19 GLU d   1       4.422   0.103 -16.852  0.00  0.00     0.049 H 
ATOM    165  H20 GLU d   1       4.769  -0.374 -15.155  0.00  0.00     0.049 H 
BRANCH 163 166
ATOM    166  CD  GLU d   1       2.673  -0.306 -15.659  0.00  0.00     0.172 C 
ATOM    167  OE1 GLU d   1       1.989  -1.239 -15.278  0.00  0.00    -0.648 OA
ATOM    168  OE2 GLU d   1       2.256   0.833 -15.774  0.00  0.00    -0.648 OA
ENDBRANCH 163 166
ENDBRANCH 160 163
ENDBRANCH 124 160
ENDBRANCH 121 124
ENDBRANCH 118 120
BRANCH 118 169
ATOM    169  CB  VAL d   1       3.762  -7.177 -15.998  0.00  0.00    -0.033 C 
ATOM    170  H23 VAL d   1       4.099  -6.360 -16.653  0.00  0.00     0.042 H 
BRANCH 169 171
ATOM    171  CG1 VAL d   1       4.986  -8.027 -15.624  0.00  0.00    -0.071 C 
ATOM    172  H24 VAL d   1       5.432  -8.448 -16.537  0.00  0.00     0.028 H 
ATOM    173  H25 VAL d   1       4.675  -8.844 -14.957  0.00  0.00     0.028 H 
ATOM    174  H26 VAL d   1       5.727  -7.397 -15.111  0.00  0.00     0.028 H 
ENDBRANCH 169 171
BRANCH 169 175
ATOM    175  CG2 VAL d   1       2.763  -8.047 -16.771  0.00  0.00    -0.071 C 
ATOM    176  H27 VAL d   1       1.884  -7.444 -17.042  0.00  0.00     0.028 H 
ATOM    177  H28 VAL d   1       2.448  -8.892 -16.141  0.00  0.00     0.028 H 
ATOM    178  H29 VAL d   1       3.240  -8.430 -17.685  0.00  0.00     0.028 H 
ENDBRANCH 169 175
ENDBRANCH 118 169
ENDBRANCH 115 118
ENDBRANCH 112 114
BRANCH 112 179
ATOM    179  CB  PTR d   1       2.165  -7.631 -10.096  0.00  0.00    -0.014 C 
ATOM    180  H32 PTR d   1       2.928  -8.180  -9.524  0.00  0.00     0.043 H 
ATOM    181  H33 PTR d   1       1.209  -7.660  -9.553  0.00  0.00     0.043 H 
BRANCH 179 182
ATOM    182  CG  PTR d   1       2.602  -6.190 -10.195  0.00  0.00    -0.056 A 
ATOM    183  CD1 PTR d   1       3.959  -5.868 -10.180  0.00  0.00    -0.074 A 
ATOM    184  CE1 PTR d   1       4.359  -4.526 -10.169  0.00  0.00    -0.050 A 
ATOM    185  H34 PTR d   1       4.704  -6.656 -10.177  0.00  0.00     0.084 H 
ATOM    186  CZ  PTR d   1       3.399  -3.510 -10.186  0.00  0.00     0.082 A 
ATOM    187  H36 PTR d   1       5.413  -4.275 -10.147  0.00  0.00     0.087 H 
ATOM    188  CE2 PTR d   1       2.037  -3.837 -10.208  0.00  0.00    -0.050 A 
ATOM    189  CD2 PTR d   1       1.639  -5.175 -10.202  0.00  0.00    -0.074 A 
ATOM    190  H37 PTR d   1       1.292  -3.050 -10.230  0.00  0.00     0.087 H 
ATOM    191  H35 PTR d   1       0.585  -5.427 -10.203  0.00  0.00     0.084 H 
BRANCH 186 192
ATOM    192  OH  PTR d   1       3.786  -2.178 -10.167  0.00  0.00    -0.240 OA
BRANCH 192 193
ATOM    193  P   PTR d   1       4.854  -1.684 -11.193  0.00  0.00     0.427 P 
ATOM    194  O1P PTR d   1       5.920  -0.983 -10.310  0.00  0.00    -0.617 OA
ATOM    195  O2P PTR d   1       4.101  -0.602 -12.000  0.00  0.00    -0.617 OA
ATOM    196  O3P PTR d   1       5.357  -2.945 -12.016  0.00  0.00    -0.617 OA
ENDBRANCH 192 193
ENDBRANCH 186 192
ENDBRANCH 179 182
ENDBRANCH 112 179
ENDBRANCH 109 112
ENDBRANCH 106 108
BRANCH 106 197
ATOM    197  CB  GLU d   1      -0.975 -11.666 -10.621  0.00  0.00    -0.029 C 
ATOM    198  H40 GLU d   1      -0.820 -12.274  -9.717  0.00  0.00     0.037 H 
ATOM    199  H41 GLU d   1      -0.085 -11.731 -11.264  0.00  0.00     0.037 H 
BRANCH 197 200
ATOM    200  CG  GLU d   1      -2.203 -12.185 -11.386  0.00  0.00     0.018 C 
ATOM    201  H42 GLU d   1      -1.982 -13.181 -11.796  0.00  0.00     0.049 H 
ATOM    202  H43 GLU d   1      -2.438 -11.494 -12.209  0.00  0.00     0.049 H 
BRANCH 200 203
ATOM    203  CD  GLU d   1      -3.407 -12.280 -10.444  0.00  0.00     0.172 C 
ATOM    204  OE1 GLU d   1      -3.283 -12.926  -9.411  0.00  0.00    -0.648 OA
ATOM    205  OE2 GLU d   1      -4.435 -11.700 -10.775  0.00  0.00    -0.648 OA
ENDBRANCH 200 203
ENDBRANCH 197 200
ENDBRANCH 106 197
ENDBRANCH   1 106
TORSDOF 55
