REMARK  13 active torsions:
REMARK  status: ('A' for Active; 'I' for Inactive)
REMARK    1  A    between atoms: CY_2  and  CX_1 
REMARK    2  A    between atoms: CX_1  and  CZ_3 
REMARK    3  A    between atoms: CX_1  and  O5_6 
REMARK    4  A    between atoms: N4_5  and  CY_2 
REMARK    5  A    between atoms: CY_2  and  C6_7 
REMARK       I    between atoms: C19_20  and  N4_5 
REMARK    6  A    between atoms: C6_7  and  C7_8 
REMARK    7  A    between atoms: C7_8  and  C8_9 
REMARK    8  A    between atoms: C8_9  and  N9_10 
REMARK       I    between atoms: N9_10  and  C10_11 
REMARK       I    between atoms: C10_11  and  N11_12 
REMARK    9  A    between atoms: C18_19  and  N17_18 
REMARK       I    between atoms: N17_18  and  C23_24 
REMARK   10  A    between atoms: C18_19  and  C19_20 
REMARK   11  A    between atoms: C18_19  and  C20_21 
REMARK   12  A    between atoms: C20_21  and  C21_22 
REMARK   13  A    between atoms: C20_21  and  C22_23 
REMARK       I    between atoms: C23_24  and  N24_25 
ROOT
ATOM      1  CY  682 d   1      11.559  51.401  23.988  0.00  0.00     0.043 C 
ATOM      2  H2  682 d   1      11.017  52.275  23.597  0.00  0.00     0.077 H 
ENDROOT
BRANCH   1   3
ATOM      3  CX  682 d   1      11.303  51.284  25.507  0.00  0.00     0.103 C 
ATOM      4  H1  682 d   1      11.886  50.438  25.899  0.00  0.00     0.097 H 
BRANCH   3   5
ATOM      5  CZ  682 d   1      11.685  52.530  26.319  0.00  0.00     0.105 A 
ATOM      6  N13 682 d   1      12.914  52.778  26.597  0.00  0.00    -0.255 NA
ATOM      7  C14 682 d   1      13.017  53.952  27.336  0.00  0.00     0.009 A 
ATOM      8  C15 682 d   1      11.782  54.539  27.576  0.00  0.00    -0.026 A 
ATOM      9  H16 682 d   1      13.961  54.365  27.687  0.00  0.00     0.115 H 
ATOM     10  S16 682 d   1      10.502  53.644  26.894  0.00  0.00    -0.083 SA
ATOM     11  H17 682 d   1      11.647  55.464  28.135  0.00  0.00     0.097 H 
ENDBRANCH   3   5
BRANCH   3  12
ATOM     12  O5  682 d   1       9.913  51.002  25.633  0.00  0.00    -0.387 OA
ATOM     13  H4  682 d   1       9.700  50.229  25.123  0.00  0.00     0.210 HD
ENDBRANCH   3  12
ENDBRANCH   1   3
BRANCH   1  14
ATOM     14  N4  682 d   1      13.013  51.539  23.806  0.00  0.00    -0.352 N 
ATOM     15  C19 682 d   1      13.624  52.600  23.247  0.00  0.00     0.241 C 
ATOM     16  OX  682 d   1      13.008  53.579  22.831  0.00  0.00    -0.271 OA
ATOM     17  H3  682 d   1      13.591  50.787  24.122  0.00  0.00     0.163 HD
BRANCH  15  18
ATOM     18  C18 682 d   1      15.151  52.543  23.125  0.00  0.00     0.093 C 
ATOM     19  H19 682 d   1      15.474  51.492  23.147  0.00  0.00     0.088 H 
BRANCH  18  20
ATOM     20  N17 682 d   1      15.530  53.137  21.829  0.00  0.00    -0.330 N 
ATOM     21  C23 682 d   1      15.139  52.717  20.605  0.00  0.00     0.314 C 
ATOM     22  N24 682 d   1      15.700  53.529  19.436  0.00  0.00    -0.352 N 
ATOM     23  O25 682 d   1      14.389  51.756  20.419  0.00  0.00    -0.248 OA
ATOM     24  H27 682 d   1      15.460  53.285  18.497  0.00  0.00     0.160 HD
ATOM     25  H28 682 d   1      16.307  54.304  19.611  0.00  0.00     0.160 HD
ATOM     26  H18 682 d   1      16.138  53.931  21.859  0.00  0.00     0.165 HD
ENDBRANCH  18  20
BRANCH  18  27
ATOM     27  C20 682 d   1      15.833  53.293  24.301  0.00  0.00    -0.033 C 
ATOM     28  H20 682 d   1      15.330  52.996  25.233  0.00  0.00     0.042 H 
BRANCH  27  29
ATOM     29  C21 682 d   1      17.318  52.910  24.391  0.00  0.00    -0.071 C 
ATOM     30  H21 682 d   1      17.786  53.449  25.228  0.00  0.00     0.028 H 
ATOM     31  H22 682 d   1      17.824  53.180  23.452  0.00  0.00     0.028 H 
ATOM     32  H23 682 d   1      17.408  51.826  24.557  0.00  0.00     0.028 H 
ENDBRANCH  27  29
BRANCH  27  33
ATOM     33  C22 682 d   1      15.741  54.832  24.161  0.00  0.00    -0.071 C 
ATOM     34  H24 682 d   1      14.685  55.132  24.095  0.00  0.00     0.028 H 
ATOM     35  H25 682 d   1      16.270  55.150  23.250  0.00  0.00     0.028 H 
ATOM     36  H26 682 d   1      16.203  55.308  25.038  0.00  0.00     0.028 H 
ENDBRANCH  27  33
ENDBRANCH  18  27
ENDBRANCH  15  18
ENDBRANCH   1  14
BRANCH   1  37
ATOM     37  C6  682 d   1      11.206  50.144  23.149  0.00  0.00    -0.042 C 
ATOM     38  H5  682 d   1      10.145  49.909  23.316  0.00  0.00     0.036 H 
ATOM     39  H6  682 d   1      11.827  49.309  23.506  0.00  0.00     0.036 H 
BRANCH  37  40
ATOM     40  C7  682 d   1      11.430  50.294  21.639  0.00  0.00    -0.048 C 
ATOM     41  H7  682 d   1      12.483  50.553  21.454  0.00  0.00     0.035 H 
ATOM     42  H8  682 d   1      10.782  51.096  21.256  0.00  0.00     0.035 H 
BRANCH  40  43
ATOM     43  C8  682 d   1      11.100  48.997  20.916  0.00  0.00     0.009 C 
ATOM     44  H9  682 d   1      10.057  48.712  21.117  0.00  0.00     0.064 H 
ATOM     45  H10 682 d   1      11.771  48.196  21.259  0.00  0.00     0.064 H 
BRANCH  43  46
ATOM     46  N9  682 d   1      11.288  49.223  19.474  0.00  0.00    -0.227 N 
ATOM     47  C10 682 d   1      11.096  48.317  18.503  0.00  0.00     0.665 C 
ATOM     48  N11 682 d   1      10.710  47.067  18.804  0.00  0.00    -0.235 N 
ATOM     49  N12 682 d   1      11.288  48.677  17.227  0.00  0.00    -0.235 N 
ATOM     50  H12 682 d   1      10.565  46.378  18.052  0.00  0.00     0.174 HD
ATOM     51  H13 682 d   1      10.559  46.797  19.787  0.00  0.00     0.174 HD
ATOM     52  H14 682 d   1      11.584  49.638  17.002  0.00  0.00     0.174 HD
ATOM     53  H15 682 d   1      11.139  47.993  16.471  0.00  0.00     0.174 HD
ATOM     54  H11 682 d   1      11.595  50.162  19.184  0.00  0.00     0.177 HD
ENDBRANCH  43  46
ENDBRANCH  40  43
ENDBRANCH  37  40
ENDBRANCH   1  37
TORSDOF 13
