REMARK  19 active torsions:
REMARK  status: ('A' for Active; 'I' for Inactive)
REMARK    1  A    between atoms: C3_3  and  O8_8 
REMARK    2  A    between atoms: O8_8  and  C10_10 
REMARK       I    between atoms: C10_10  and  N11_11 
REMARK    3  A    between atoms: N11_11  and  C13_13 
REMARK    4  A    between atoms: C13_13  and  C14_14 
REMARK    5  A    between atoms: C13_13  and  C15_15 
REMARK    6  A    between atoms: C14_14  and  C16_16 
REMARK    7  A    between atoms: C15_15  and  C17_17 
REMARK    8  A    between atoms: C15_15  and  O18_18 
REMARK    9  A    between atoms: C17_17  and  N21_21 
REMARK   10  A    between atoms: N21_21  and  S24_24 
REMARK   11  A    between atoms: N21_21  and  C25_25 
REMARK   12  A    between atoms: S24_24  and  C27_27 
REMARK   13  A    between atoms: C25_25  and  C30_30 
REMARK   14  A    between atoms: C26_26  and  O31_31 
REMARK   15  A    between atoms: C30_30  and  C34_34 
REMARK   16  A    between atoms: C30_30  and  C35_35 
REMARK   17  A    between atoms: O31_31  and  C36_36 
REMARK   18  A    between atoms: C36_36  and  C39_39 
REMARK   19  A    between atoms: C46_46  and  C48_48 
ROOT
ATOM      1  C13 385 d   1      14.563  14.558   0.301  0.00  0.00     0.044 C 
ATOM      2  H11 385 d   1      14.967  13.535   0.302  0.00  0.00     0.077 H 
ENDROOT
BRANCH   1   3
ATOM      3  N11 385 d   1      15.273  15.328  -0.726  0.00  0.00    -0.329 N 
ATOM      4  C10 385 d   1      16.136  14.953  -1.671  0.00  0.00     0.361 C 
ATOM      5  O12 385 d   1      16.463  13.788  -1.789  0.00  0.00    -0.238 OA
ATOM      6  H10 385 d   1      15.075  16.308  -0.716  0.00  0.00     0.165 HD
BRANCH   4   7
ATOM      7  O8  385 d   1      16.651  15.891  -2.502  0.00  0.00    -0.296 OA
BRANCH   7   8
ATOM      8  C3  385 d   1      17.858  15.745  -3.283  0.00  0.00     0.078 C 
ATOM      9  C1  385 d   1      19.112  16.455  -2.668  0.00  0.00     0.023 C 
ATOM     10  C2  385 d   1      19.116  17.832  -3.321  0.00  0.00     0.137 C 
ATOM     11  C4  385 d   1      19.173  16.754  -1.138  0.00  0.00    -0.035 C 
ATOM     12  H1  385 d   1      20.006  15.875  -2.941  0.00  0.00     0.051 H 
ATOM     13  O5  385 d   1      18.113  17.838  -4.343  0.00  0.00    -0.358 OA
ATOM     14  O6  385 d   1      18.829  18.825  -2.317  0.00  0.00    -0.361 OA
ATOM     15  H2  385 d   1      20.101  18.035  -3.767  0.00  0.00     0.129 H 
ATOM     16  C7  385 d   1      17.705  16.476  -4.613  0.00  0.00     0.048 C 
ATOM     17  H6  385 d   1      16.659  16.446  -4.952  0.00  0.00     0.078 H 
ATOM     18  H7  385 d   1      18.352  16.024  -5.379  0.00  0.00     0.078 H 
ATOM     19  C9  385 d   1      18.542  18.180  -1.065  0.00  0.00     0.023 C 
ATOM     20  H8  385 d   1      18.987  18.749  -0.235  0.00  0.00     0.074 H 
ATOM     21  H9  385 d   1      17.454  18.106  -0.918  0.00  0.00     0.074 H 
ATOM     22  H4  385 d   1      20.210  16.756  -0.771  0.00  0.00     0.037 H 
ATOM     23  H5  385 d   1      18.582  16.025  -0.564  0.00  0.00     0.037 H 
ATOM     24  H3  385 d   1      18.058  14.674  -3.434  0.00  0.00     0.088 H 
ENDBRANCH   7   8
ENDBRANCH   4   7
ENDBRANCH   1   3
BRANCH   1  25
ATOM     25  C14 385 d   1      14.904  15.185   1.695  0.00  0.00    -0.020 C 
ATOM     26  H12 385 d   1      14.534  14.488   2.462  0.00  0.00     0.043 H 
ATOM     27  H13 385 d   1      14.353  16.134   1.766  0.00  0.00     0.043 H 
BRANCH  25  28
ATOM     28  C16 385 d   1      16.319  15.478   2.019  0.00  0.00    -0.056 A 
ATOM     29  C19 385 d   1      16.765  16.821   2.171  0.00  0.00    -0.074 A 
ATOM     30  C22 385 d   1      18.143  17.097   2.459  0.00  0.00    -0.050 A 
ATOM     31  H18 385 d   1      16.061  17.639   2.069  0.00  0.00     0.084 H 
ATOM     32  C26 385 d   1      19.054  16.018   2.590  0.00  0.00     0.069 A 
ATOM     33  H20 385 d   1      18.484  18.119   2.575  0.00  0.00     0.087 H 
ATOM     34  C23 385 d   1      18.608  14.673   2.445  0.00  0.00    -0.050 A 
ATOM     35  C20 385 d   1      17.254  14.401   2.162  0.00  0.00    -0.074 A 
ATOM     36  H21 385 d   1      19.312  13.856   2.553  0.00  0.00     0.087 H 
ATOM     37  H19 385 d   1      16.919  13.376   2.052  0.00  0.00     0.084 H 
BRANCH  32  38
ATOM     38  O31 385 d   1      20.347  16.280   2.836  0.00  0.00    -0.345 OA
BRANCH  38  39
ATOM     39  C36 385 d   1      21.231  16.973   2.008  0.00  0.00     0.066 C 
ATOM     40  H33 385 d   1      21.083  18.053   2.154  0.00  0.00     0.084 H 
ATOM     41  H34 385 d   1      21.017  16.712   0.961  0.00  0.00     0.084 H 
BRANCH  39  42
ATOM     42  C39 385 d   1      22.679  16.629   2.314  0.00  0.00     0.066 A 
ATOM     43  N42 385 d   1      23.519  17.466   2.965  0.00  0.00    -0.248 NA
ATOM     44  C46 385 d   1      24.709  16.985   3.117  0.00  0.00     0.071 A 
ATOM     45  S47 385 d   1      24.866  15.396   2.437  0.00  0.00    -0.085 SA
ATOM     46  C43 385 d   1      23.224  15.430   1.936  0.00  0.00    -0.017 A 
ATOM     47  H36 385 d   1      22.703  14.633   1.407  0.00  0.00     0.098 H 
BRANCH  44  48
ATOM     48  C48 385 d   1      25.838  17.715   3.807  0.00  0.00    -0.029 C 
ATOM     49  H39 385 d   1      25.484  18.699   4.148  0.00  0.00     0.036 H 
ATOM     50  H40 385 d   1      26.672  17.849   3.103  0.00  0.00     0.036 H 
ATOM     51  H41 385 d   1      26.179  17.128   4.673  0.00  0.00     0.036 H 
ENDBRANCH  44  48
ENDBRANCH  39  42
ENDBRANCH  38  39
ENDBRANCH  32  38
ENDBRANCH  25  28
ENDBRANCH   1  25
BRANCH   1  52
ATOM     52  C15 385 d   1      13.050  14.433  -0.053  0.00  0.00     0.071 C 
ATOM     53  H14 385 d   1      12.978  14.185  -1.122  0.00  0.00     0.088 H 
BRANCH  52  54
ATOM     54  C17 385 d   1      12.278  13.350   0.724  0.00  0.00     0.031 C 
ATOM     55  H15 385 d   1      11.211  13.407   0.462  0.00  0.00     0.069 H 
ATOM     56  H16 385 d   1      12.400  13.522   1.804  0.00  0.00     0.069 H 
BRANCH  54  57
ATOM     57  N21 385 d   1      12.779  12.037   0.392  0.00  0.00    -0.304 N 
BRANCH  57  58
ATOM     58  S24 385 d   1      13.607  11.174   1.629  0.00  0.00     0.261 S 
ATOM     59  O28 385 d   1      14.482  12.019   2.399  0.00  0.00    -0.200 OA
ATOM     60  O29 385 d   1      14.394  10.100   1.075  0.00  0.00    -0.200 OA
BRANCH  58  61
ATOM     61  C27 385 d   1      12.400  10.483   2.667  0.00  0.00     0.082 A 
ATOM     62  C32 385 d   1      11.829   9.212   2.343  0.00  0.00    -0.025 A 
ATOM     63  C37 385 d   1      10.830   8.651   3.165  0.00  0.00     0.106 A 
ATOM     64  H25 385 d   1      12.166   8.678   1.462  0.00  0.00     0.090 H 
ATOM     65  C40 385 d   1      10.383   9.351   4.320  0.00  0.00     0.105 A 
ATOM     66  O41 385 d   1      10.154   7.485   3.058  0.00  0.00    -0.323 OA
ATOM     67  C38 385 d   1      10.949  10.620   4.656  0.00  0.00    -0.046 A 
ATOM     68  O44 385 d   1       9.426   8.618   4.932  0.00  0.00    -0.323 OA
ATOM     69  C33 385 d   1      11.954  11.186   3.830  0.00  0.00    -0.058 A 
ATOM     70  H35 385 d   1      10.611  11.149   5.540  0.00  0.00     0.087 H 
ATOM     71  H26 385 d   1      12.383  12.150   4.080  0.00  0.00     0.086 H 
ATOM     72  C45 385 d   1       9.251   7.420   4.158  0.00  0.00     0.115 A 
ATOM     73  H37 385 d   1       9.475   6.538   4.776  0.00  0.00     0.118 H 
ATOM     74  H38 385 d   1       8.216   7.358   3.791  0.00  0.00     0.118 H 
ENDBRANCH  58  61
ENDBRANCH  57  58
BRANCH  57  75
ATOM     75  C25 385 d   1      11.963  11.237  -0.519  0.00  0.00     0.008 C 
ATOM     76  H22 385 d   1      10.909  11.405  -0.254  0.00  0.00     0.066 H 
ATOM     77  H23 385 d   1      12.219  10.180  -0.352  0.00  0.00     0.066 H 
BRANCH  75  78
ATOM     78  C30 385 d   1      12.115  11.521  -2.032  0.00  0.00    -0.045 C 
ATOM     79  H24 385 d   1      11.981  12.605  -2.159  0.00  0.00     0.041 H 
BRANCH  78  80
ATOM     80  C34 385 d   1      11.002  10.842  -2.849  0.00  0.00    -0.072 C 
ATOM     81  H27 385 d   1      11.143  11.066  -3.917  0.00  0.00     0.028 H 
ATOM     82  H28 385 d   1      10.023  11.221  -2.521  0.00  0.00     0.028 H 
ATOM     83  H29 385 d   1      11.045   9.754  -2.694  0.00  0.00     0.028 H 
ENDBRANCH  78  80
BRANCH  78  84
ATOM     84  C35 385 d   1      13.526  11.192  -2.577  0.00  0.00    -0.072 C 
ATOM     85  H30 385 d   1      14.284  11.699  -1.962  0.00  0.00     0.028 H 
ATOM     86  H31 385 d   1      13.607  11.539  -3.618  0.00  0.00     0.028 H 
ATOM     87  H32 385 d   1      13.690  10.105  -2.539  0.00  0.00     0.028 H 
ENDBRANCH  78  84
ENDBRANCH  75  78
ENDBRANCH  57  75
ENDBRANCH  54  57
ENDBRANCH  52  54
BRANCH  52  88
ATOM     88  O18 385 d   1      12.442  15.683   0.164  0.00  0.00    -0.392 OA
ATOM     89  H17 385 d   1      12.458  15.885   1.092  0.00  0.00     0.210 HD
ENDBRANCH  52  88
ENDBRANCH   1  52
TORSDOF 19
