REMARK  19 active torsions:
REMARK  status: ('A' for Active; 'I' for Inactive)
REMARK    1  A    between atoms: C3_3  and  O8_8 
REMARK    2  A    between atoms: O8_8  and  C10_10 
REMARK       I    between atoms: C10_10  and  N11_11 
REMARK    3  A    between atoms: N11_11  and  C13_13 
REMARK    4  A    between atoms: C13_13  and  C14_14 
REMARK    5  A    between atoms: C13_13  and  C15_15 
REMARK    6  A    between atoms: C14_14  and  C16_16 
REMARK    7  A    between atoms: C15_15  and  C17_17 
REMARK    8  A    between atoms: C15_15  and  O18_18 
REMARK    9  A    between atoms: C17_17  and  N21_21 
REMARK   10  A    between atoms: N21_21  and  S24_24 
REMARK   11  A    between atoms: N21_21  and  C25_25 
REMARK   12  A    between atoms: S24_24  and  C27_27 
REMARK   13  A    between atoms: C25_25  and  C30_30 
REMARK   14  A    between atoms: C26_26  and  O31_31 
REMARK   15  A    between atoms: C30_30  and  C34_34 
REMARK   16  A    between atoms: C30_30  and  C35_35 
REMARK   17  A    between atoms: O31_31  and  C36_36 
REMARK   18  A    between atoms: C36_36  and  C39_39 
REMARK   19  A    between atoms: C46_46  and  C48_48 
ROOT
ATOM      1  C13 385 d   1     -20.897  38.038   0.534  0.00  0.00     0.044 C 
ATOM      2  H11 385 d   1     -21.758  38.645   0.218  0.00  0.00     0.077 H 
ENDROOT
BRANCH   1   3
ATOM      3  N11 385 d   1     -20.844  38.053   1.997  0.00  0.00    -0.329 N 
ATOM      4  C10 385 d   1     -21.607  38.659   2.934  0.00  0.00     0.361 C 
ATOM      5  O12 385 d   1     -22.551  39.359   2.620  0.00  0.00    -0.238 OA
ATOM      6  H10 385 d   1     -20.097  37.508   2.378  0.00  0.00     0.165 HD
BRANCH   4   7
ATOM      7  O8  385 d   1     -21.295  38.464   4.251  0.00  0.00    -0.296 OA
BRANCH   7   8
ATOM      8  C3  385 d   1     -21.777  39.196   5.352  0.00  0.00     0.078 C 
ATOM      9  C1  385 d   1     -20.784  40.290   5.880  0.00  0.00     0.023 C 
ATOM     10  C2  385 d   1     -20.151  39.672   7.109  0.00  0.00     0.137 C 
ATOM     11  C4  385 d   1     -19.552  40.706   5.021  0.00  0.00    -0.035 C 
ATOM     12  H1  385 d   1     -21.362  41.193   6.126  0.00  0.00     0.051 H 
ATOM     13  O5  385 d   1     -21.011  38.620   7.585  0.00  0.00    -0.358 OA
ATOM     14  O6  385 d   1     -18.847  39.158   6.723  0.00  0.00    -0.361 OA
ATOM     15  H2  385 d   1     -20.030  40.431   7.896  0.00  0.00     0.129 H 
ATOM     16  C7  385 d   1     -21.974  38.255   6.550  0.00  0.00     0.048 C 
ATOM     17  H6  385 d   1     -21.806  37.214   6.237  0.00  0.00     0.078 H 
ATOM     18  H7  385 d   1     -22.997  38.360   6.941  0.00  0.00     0.078 H 
ATOM     19  C9  385 d   1     -18.514  39.593   5.380  0.00  0.00     0.023 C 
ATOM     20  H8  385 d   1     -17.492  39.999   5.352  0.00  0.00     0.074 H 
ATOM     21  H9  385 d   1     -18.594  38.753   4.675  0.00  0.00     0.074 H 
ATOM     22  H4  385 d   1     -19.184  41.703   5.306  0.00  0.00     0.037 H 
ATOM     23  H5  385 d   1     -19.792  40.697   3.947  0.00  0.00     0.037 H 
ATOM     24  H3  385 d   1     -22.730  39.667   5.070  0.00  0.00     0.088 H 
ENDBRANCH   7   8
ENDBRANCH   4   7
ENDBRANCH   1   3
BRANCH   1  25
ATOM     25  C14 385 d   1     -19.603  38.757  -0.032  0.00  0.00    -0.020 C 
ATOM     26  H12 385 d   1     -19.824  39.032  -1.074  0.00  0.00     0.043 H 
ATOM     27  H13 385 d   1     -18.793  38.013  -0.013  0.00  0.00     0.043 H 
BRANCH  25  28
ATOM     28  C16 385 d   1     -19.078  39.975   0.629  0.00  0.00    -0.056 A 
ATOM     29  C19 385 d   1     -17.879  39.929   1.411  0.00  0.00    -0.074 A 
ATOM     30  C22 385 d   1     -17.396  41.119   2.070  0.00  0.00    -0.050 A 
ATOM     31  H18 385 d   1     -17.333  38.998   1.508  0.00  0.00     0.084 H 
ATOM     32  C26 385 d   1     -18.130  42.341   1.942  0.00  0.00     0.069 A 
ATOM     33  H20 385 d   1     -16.485  41.087   2.657  0.00  0.00     0.087 H 
ATOM     34  C23 385 d   1     -19.327  42.389   1.155  0.00  0.00    -0.050 A 
ATOM     35  C20 385 d   1     -19.796  41.214   0.508  0.00  0.00    -0.074 A 
ATOM     36  H21 385 d   1     -19.873  43.320   1.054  0.00  0.00     0.087 H 
ATOM     37  H19 385 d   1     -20.704  41.253  -0.083  0.00  0.00     0.084 H 
BRANCH  32  38
ATOM     38  O31 385 d   1     -17.693  43.448   2.572  0.00  0.00    -0.345 OA
BRANCH  38  39
ATOM     39  C36 385 d   1     -17.752  43.733   3.956  0.00  0.00     0.066 C 
ATOM     40  H33 385 d   1     -16.799  43.439   4.419  0.00  0.00     0.084 H 
ATOM     41  H34 385 d   1     -18.571  43.151   4.403  0.00  0.00     0.084 H 
BRANCH  39  42
ATOM     42  C39 385 d   1     -17.998  45.230   4.233  0.00  0.00     0.066 A 
ATOM     43  N42 385 d   1     -17.732  45.807   5.437  0.00  0.00    -0.248 NA
ATOM     44  C46 385 d   1     -18.001  47.083   5.478  0.00  0.00     0.071 A 
ATOM     45  S47 385 d   1     -18.631  47.682   3.959  0.00  0.00    -0.085 SA
ATOM     46  C43 385 d   1     -18.505  46.092   3.279  0.00  0.00    -0.017 A 
ATOM     47  H36 385 d   1     -18.781  45.816   2.262  0.00  0.00     0.098 H 
BRANCH  44  48
ATOM     48  C48 385 d   1     -17.791  47.956   6.701  0.00  0.00    -0.029 C 
ATOM     49  H39 385 d   1     -17.387  47.346   7.522  0.00  0.00     0.036 H 
ATOM     50  H40 385 d   1     -18.752  48.394   7.008  0.00  0.00     0.036 H 
ATOM     51  H41 385 d   1     -17.081  48.761   6.460  0.00  0.00     0.036 H 
ENDBRANCH  44  48
ENDBRANCH  39  42
ENDBRANCH  38  39
ENDBRANCH  32  38
ENDBRANCH  25  28
ENDBRANCH   1  25
BRANCH   1  52
ATOM     52  C15 385 d   1     -21.175  36.569   0.026  0.00  0.00     0.071 C 
ATOM     53  H14 385 d   1     -21.994  36.158   0.634  0.00  0.00     0.088 H 
BRANCH  52  54
ATOM     54  C17 385 d   1     -21.583  36.457  -1.436  0.00  0.00     0.031 C 
ATOM     55  H15 385 d   1     -21.698  35.395  -1.699  0.00  0.00     0.069 H 
ATOM     56  H16 385 d   1     -20.801  36.908  -2.065  0.00  0.00     0.069 H 
BRANCH  54  57
ATOM     57  N21 385 d   1     -22.824  37.137  -1.667  0.00  0.00    -0.304 N 
BRANCH  57  58
ATOM     58  S24 385 d   1     -22.818  38.626  -2.604  0.00  0.00     0.261 S 
ATOM     59  O28 385 d   1     -21.660  39.429  -2.331  0.00  0.00    -0.200 OA
ATOM     60  O29 385 d   1     -23.940  39.476  -2.283  0.00  0.00    -0.200 OA
BRANCH  58  61
ATOM     61  C27 385 d   1     -22.872  38.247  -4.270  0.00  0.00     0.082 A 
ATOM     62  C32 385 d   1     -24.107  37.951  -4.876  0.00  0.00    -0.025 A 
ATOM     63  C37 385 d   1     -24.162  37.628  -6.242  0.00  0.00     0.106 A 
ATOM     64  H25 385 d   1     -25.017  37.972  -4.288  0.00  0.00     0.090 H 
ATOM     65  C40 385 d   1     -22.968  37.582  -7.018  0.00  0.00     0.105 A 
ATOM     66  O41 385 d   1     -25.215  37.312  -7.020  0.00  0.00    -0.323 OA
ATOM     67  C38 385 d   1     -21.724  37.888  -6.413  0.00  0.00    -0.046 A 
ATOM     68  O44 385 d   1     -23.272  37.252  -8.299  0.00  0.00    -0.323 OA
ATOM     69  C33 385 d   1     -21.676  38.212  -5.032  0.00  0.00    -0.058 A 
ATOM     70  H35 385 d   1     -20.814  37.875  -7.002  0.00  0.00     0.087 H 
ATOM     71  H26 385 d   1     -20.726  38.433  -4.560  0.00  0.00     0.086 H 
ATOM     72  C45 385 d   1     -24.700  37.064  -8.347  0.00  0.00     0.115 A 
ATOM     73  H37 385 d   1     -25.148  37.770  -9.062  0.00  0.00     0.118 H 
ATOM     74  H38 385 d   1     -24.933  36.034  -8.654  0.00  0.00     0.118 H 
ENDBRANCH  58  61
ENDBRANCH  57  58
BRANCH  57  75
ATOM     75  C25 385 d   1     -23.985  36.269  -1.769  0.00  0.00     0.008 C 
ATOM     76  H22 385 d   1     -23.618  35.244  -1.925  0.00  0.00     0.066 H 
ATOM     77  H23 385 d   1     -24.561  36.590  -2.649  0.00  0.00     0.066 H 
BRANCH  75  78
ATOM     78  C30 385 d   1     -24.953  36.237  -0.569  0.00  0.00    -0.045 C 
ATOM     79  H24 385 d   1     -24.785  35.273  -0.067  0.00  0.00     0.041 H 
BRANCH  78  80
ATOM     80  C34 385 d   1     -26.415  36.224  -1.062  0.00  0.00    -0.072 C 
ATOM     81  H27 385 d   1     -27.094  36.201  -0.197  0.00  0.00     0.028 H 
ATOM     82  H28 385 d   1     -26.584  35.333  -1.684  0.00  0.00     0.028 H 
ATOM     83  H29 385 d   1     -26.610  37.129  -1.657  0.00  0.00     0.028 H 
ENDBRANCH  78  80
BRANCH  78  84
ATOM     84  C35 385 d   1     -24.688  37.326   0.516  0.00  0.00    -0.072 C 
ATOM     85  H30 385 d   1     -23.633  37.286   0.826  0.00  0.00     0.028 H 
ATOM     86  H31 385 d   1     -25.334  37.141   1.387  0.00  0.00     0.028 H 
ATOM     87  H32 385 d   1     -24.910  38.320   0.100  0.00  0.00     0.028 H 
ENDBRANCH  78  84
ENDBRANCH  75  78
ENDBRANCH  57  75
ENDBRANCH  54  57
ENDBRANCH  52  54
BRANCH  52  88
ATOM     88  O18 385 d   1     -20.030  35.790   0.222  0.00  0.00    -0.392 OA
ATOM     89  H17 385 d   1     -20.223  34.886   0.005  0.00  0.00     0.210 HD
ENDBRANCH  52  88
ENDBRANCH   1  52
TORSDOF 19
