REMARK  11 active torsions:
REMARK  status: ('A' for Active; 'I' for Inactive)
REMARK    1  A    between atoms: C2_2  and  C6_6 
REMARK    2  A    between atoms: C4_4  and  C7_7 
REMARK    3  A    between atoms: C6_6  and  N28_28 
REMARK    4  A    between atoms: C7_7  and  N8_8 
REMARK       I    between atoms: N8_8  and  C9_9 
REMARK    5  A    between atoms: C9_9  and  C11_11 
REMARK       I    between atoms: N15_15  and  C16_16 
REMARK    6  A    between atoms: C16_16  and  C18_18 
REMARK    7  A    between atoms: C18_18  and  N19_19 
REMARK    8  A    between atoms: C18_18  and  C21_21 
REMARK    9  A    between atoms: N19_19  and  C20_20 
REMARK   10  A    between atoms: C20_20  and  C30_30 
REMARK   11  A    between atoms: C21_21  and  C22_22 
ROOT
ATOM      1  C11 34P d   1      17.828  21.556  21.103  0.00  0.00     0.108 C 
ATOM      2  C12 34P d   1      18.797  21.554  19.959  0.00  0.00    -0.075 C 
ATOM      3  C13 34P d   1      19.662  20.540  20.089  0.00  0.00    -0.087 C 
ATOM      4  C14 34P d   1      19.364  19.696  21.288  0.00  0.00     0.014 C 
ATOM      5  N15 34P d   1      18.124  20.271  21.786  0.00  0.00    -0.330 N 
ATOM      6  C16 34P d   1      17.254  19.698  22.674  0.00  0.00     0.252 C 
ATOM      7  O17 34P d   1      16.284  20.297  23.132  0.00  0.00    -0.271 OA
ATOM      8  H5  34P d   1      18.051  22.384  21.791  0.00  0.00     0.094 H 
ATOM      9  H6  34P d   1      18.797  22.273  19.141  0.00  0.00     0.080 H 
ATOM     10  H7  34P d   1      20.486  20.352  19.402  0.00  0.00     0.079 H 
ATOM     11  H8  34P d   1      20.166  19.774  22.037  0.00  0.00     0.070 H 
ATOM     12  H9  34P d   1      19.227  18.642  21.006  0.00  0.00     0.070 H 
ENDROOT
BRANCH   6  13
ATOM     13  C18 34P d   1      17.492  18.239  23.150  0.00  0.00     0.179 C 
ATOM     14  H10 34P d   1      18.124  17.697  22.431  0.00  0.00     0.099 H 
BRANCH  13  15
ATOM     15  N19 34P d   1      16.238  17.486  23.444  0.00  0.00    -0.053 N 
ATOM     16  H11 34P d   1      15.693  18.080  24.049  0.00  0.00     0.278 HD
ATOM     17  H12 34P d   1      16.522  16.662  23.950  0.00  0.00     0.278 HD
BRANCH  15  18
ATOM     18  C20 34P d   1      15.313  17.019  22.392  0.00  0.00     0.161 C 
ATOM     19  H13 34P d   1      15.860  16.308  21.754  0.00  0.00     0.092 H 
ATOM     20  H14 34P d   1      15.014  17.893  21.794  0.00  0.00     0.092 H 
BRANCH  18  21
ATOM     21  C30 34P d   1      14.043  16.329  22.877  0.00  0.00     0.199 C 
ATOM     22  O31 34P d   1      13.221  15.933  22.081  0.00  0.00    -0.647 OA
ATOM     23  O32 34P d   1      13.871  16.216  24.089  0.00  0.00    -0.647 OA
ENDBRANCH  18  21
ENDBRANCH  15  18
ENDBRANCH  13  15
BRANCH  13  24
ATOM     24  C21 34P d   1      18.135  18.354  24.557  0.00  0.00    -0.026 C 
ATOM     25  H15 34P d   1      18.258  17.334  24.951  0.00  0.00     0.037 H 
ATOM     26  H16 34P d   1      17.437  18.913  25.197  0.00  0.00     0.037 H 
BRANCH  24  27
ATOM     27  C22 34P d   1      19.501  19.052  24.639  0.00  0.00    -0.052 C 
ATOM     28  C23 34P d   1      19.843  19.389  26.099  0.00  0.00    -0.062 C 
ATOM     29  C24 34P d   1      21.216  20.111  26.221  0.00  0.00    -0.065 C 
ATOM     30  H18 34P d   1      19.879  18.456  26.680  0.00  0.00     0.033 H 
ATOM     31  H19 34P d   1      19.059  20.045  26.506  0.00  0.00     0.033 H 
ATOM     32  C25 34P d   1      22.367  19.301  25.602  0.00  0.00    -0.065 C 
ATOM     33  H20 34P d   1      21.434  20.275  27.287  0.00  0.00     0.033 H 
ATOM     34  H21 34P d   1      21.151  21.081  25.706  0.00  0.00     0.033 H 
ATOM     35  C26 34P d   1      22.043  18.867  24.162  0.00  0.00    -0.065 C 
ATOM     36  H22 34P d   1      22.542  18.404  26.214  0.00  0.00     0.033 H 
ATOM     37  H23 34P d   1      23.275  19.921  25.592  0.00  0.00     0.033 H 
ATOM     38  C27 34P d   1      20.647  18.191  24.046  0.00  0.00    -0.062 C 
ATOM     39  H24 34P d   1      22.810  18.153  23.827  0.00  0.00     0.033 H 
ATOM     40  H25 34P d   1      22.060  19.755  23.513  0.00  0.00     0.033 H 
ATOM     41  H26 34P d   1      20.434  18.009  22.982  0.00  0.00     0.033 H 
ATOM     42  H27 34P d   1      20.677  17.231  24.583  0.00  0.00     0.033 H 
ATOM     43  H17 34P d   1      19.439  19.988  24.065  0.00  0.00     0.040 H 
ENDBRANCH  24  27
ENDBRANCH  13  24
ENDBRANCH   6  13
BRANCH   1  44
ATOM     44  C9  34P d   1      16.392  21.760  20.582  0.00  0.00     0.244 C 
ATOM     45  N8  34P d   1      15.820  22.940  20.845  0.00  0.00    -0.353 N 
ATOM     46  H4  34P d   1      16.351  23.666  21.283  0.00  0.00     0.162 HD
ATOM     47  O10 34P d   1      15.802  20.857  20.027  0.00  0.00    -0.271 OA
BRANCH  45  48
ATOM     48  C7  34P d   1      14.413  23.171  20.491  0.00  0.00     0.041 C 
ATOM     49  H2  34P d   1      14.196  24.248  20.540  0.00  0.00     0.074 H 
ATOM     50  H3  34P d   1      14.229  22.806  19.470  0.00  0.00     0.074 H 
BRANCH  48  51
ATOM     51  C4  34P d   1      13.518  22.436  21.454  0.00  0.00     0.093 A 
ATOM     52  N3  34P d   1      12.702  22.972  22.386  0.00  0.00    -0.240 NA
ATOM     53  C2  34P d   1      12.008  21.929  23.117  0.00  0.00     0.107 A 
ATOM     54  C1  34P d   1      12.372  20.694  22.757  0.00  0.00    -0.012 A 
ATOM     55  S5  34P d   1      13.502  20.688  21.460  0.00  0.00    -0.083 SA
ATOM     56  H1  34P d   1      11.994  19.790  23.233  0.00  0.00     0.098 H 
BRANCH  53  57
ATOM     57  C6  34P d   1      11.014  22.225  24.108  0.00  0.00     0.122 C 
ATOM     58  N29 34P d   1      10.854  23.481  24.480  0.00  0.00    -0.384 N 
ATOM     59  H30 34P d   1      11.449  24.218  24.076  0.00  0.00     0.157 HD
ATOM     60  H31 34P d   1      10.134  23.725  25.175  0.00  0.00     0.157 HD
BRANCH  57  61
ATOM     61  N28 34P d   1      10.271  21.257  24.604  0.00  0.00    -0.384 N 
ATOM     62  H28 34P d   1       9.557  21.469  25.316  0.00  0.00     0.157 HD
ATOM     63  H29 34P d   1      10.404  20.288  24.280  0.00  0.00     0.157 HD
ENDBRANCH  57  61
ENDBRANCH  53  57
ENDBRANCH  48  51
ENDBRANCH  45  48
ENDBRANCH   1  44
TORSDOF 11
