REMARK  11 active torsions:
REMARK  status: ('A' for Active; 'I' for Inactive)
REMARK    1  A    between atoms: C1_1  and  C6_6 
REMARK    2  A    between atoms: C4_4  and  C9_9 
REMARK    3  A    between atoms: C6_6  and  N7_7 
REMARK    4  A    between atoms: C9_9  and  N10_10 
REMARK       I    between atoms: N10_10  and  C11_11 
REMARK    5  A    between atoms: C11_11  and  C13_13 
REMARK       I    between atoms: N17_17  and  C18_18 
REMARK    6  A    between atoms: C18_18  and  C20_20 
REMARK    7  A    between atoms: C20_20  and  N21_21 
REMARK    8  A    between atoms: C20_20  and  C24_24 
REMARK    9  A    between atoms: N21_21  and  C22_22 
REMARK   10  A    between atoms: C22_22  and  C23_23 
REMARK   11  A    between atoms: C24_24  and  C25_25 
ROOT
ATOM      1  C13 3SP d   1      18.049  21.509  21.005  0.00  0.00     0.091 C 
ATOM      2  C14 3SP d   1      19.090  21.624  19.854  0.00  0.00    -0.036 C 
ATOM      3  C15 3SP d   1      20.165  20.576  20.244  0.00  0.00    -0.048 C 
ATOM      4  C16 3SP d   1      19.335  19.479  20.915  0.00  0.00    -0.001 C 
ATOM      5  N17 3SP d   1      18.239  20.161  21.621  0.00  0.00    -0.337 N 
ATOM      6  C18 3SP d   1      17.508  19.648  22.662  0.00  0.00     0.251 C 
ATOM      7  O19 3SP d   1      16.617  20.308  23.168  0.00  0.00    -0.271 OA
ATOM      8  H10 3SP d   1      18.212  22.302  21.750  0.00  0.00     0.087 H 
ATOM      9  H11 3SP d   1      19.521  22.635  19.812  0.00  0.00     0.036 H 
ATOM     10  H12 3SP d   1      18.634  21.379  18.883  0.00  0.00     0.036 H 
ATOM     11  H13 3SP d   1      20.899  21.002  20.944  0.00  0.00     0.035 H 
ATOM     12  H14 3SP d   1      20.686  20.192  19.355  0.00  0.00     0.035 H 
ATOM     13  H15 3SP d   1      19.955  18.916  21.628  0.00  0.00     0.064 H 
ATOM     14  H16 3SP d   1      18.930  18.791  20.158  0.00  0.00     0.064 H 
ENDROOT
BRANCH   1  15
ATOM     15  C11 3SP d   1      16.642  21.602  20.450  0.00  0.00     0.240 C 
ATOM     16  N10 3SP d   1      15.855  22.688  20.750  0.00  0.00    -0.355 N 
ATOM     17  H9  3SP d   1      16.230  23.416  21.324  0.00  0.00     0.162 HD
ATOM     18  O12 3SP d   1      16.213  20.688  19.755  0.00  0.00    -0.271 OA
BRANCH  16  19
ATOM     19  C9  3SP d   1      14.528  22.806  20.270  0.00  0.00     0.025 C 
ATOM     20  H7  3SP d   1      14.326  23.857  20.017  0.00  0.00     0.072 H 
ATOM     21  H8  3SP d   1      14.411  22.183  19.371  0.00  0.00     0.072 H 
BRANCH  19  22
ATOM     22  C4  3SP d   1      13.654  22.401  21.205  0.00  0.00     0.001 A 
ATOM     23  C3  3SP d   1      13.293  21.060  21.433  0.00  0.00    -0.067 A 
ATOM     24  C2  3SP d   1      12.340  20.938  22.463  0.00  0.00    -0.062 A 
ATOM     25  H2  3SP d   1      13.702  20.216  20.879  0.00  0.00     0.085 H 
ATOM     26  C1  3SP d   1      11.987  22.183  23.007  0.00  0.00     0.048 A 
ATOM     27  H1  3SP d   1      11.925  19.988  22.798  0.00  0.00     0.085 H 
ATOM     28  S5  3SP d   1      12.824  23.451  22.252  0.00  0.00    -0.089 SA
BRANCH  26  29
ATOM     29  C6  3SP d   1      11.002  22.381  24.095  0.00  0.00     0.109 C 
ATOM     30  N8  3SP d   1      10.754  23.611  24.552  0.00  0.00    -0.385 N 
ATOM     31  H5  3SP d   1      11.252  24.419  24.152  0.00  0.00     0.157 HD
ATOM     32  H6  3SP d   1      10.065  23.752  25.305  0.00  0.00     0.157 HD
BRANCH  29  33
ATOM     33  N7  3SP d   1      10.354  21.335  24.617  0.00  0.00    -0.385 N 
ATOM     34  H3  3SP d   1       9.670  21.478  25.374  0.00  0.00     0.157 HD
ATOM     35  H4  3SP d   1      10.539  20.386  24.263  0.00  0.00     0.157 HD
ENDBRANCH  29  33
ENDBRANCH  26  29
ENDBRANCH  19  22
ENDBRANCH  16  19
ENDBRANCH   1  15
BRANCH   6  36
ATOM     36  C20 3SP d   1      17.787  18.250  23.191  0.00  0.00     0.179 C 
ATOM     37  H17 3SP d   1      18.531  17.761  22.545  0.00  0.00     0.099 H 
BRANCH  36  38
ATOM     38  N21 3SP d   1      16.538  17.477  23.168  0.00  0.00    -0.053 N 
ATOM     39  H18 3SP d   1      15.837  18.042  23.621  0.00  0.00     0.278 HD
ATOM     40  H19 3SP d   1      16.700  16.644  23.711  0.00  0.00     0.278 HD
BRANCH  38  41
ATOM     41  C22 3SP d   1      15.969  17.042  21.879  0.00  0.00     0.161 C 
ATOM     42  H20 3SP d   1      16.527  16.168  21.512  0.00  0.00     0.092 H 
ATOM     43  H21 3SP d   1      16.051  17.862  21.150  0.00  0.00     0.092 H 
BRANCH  41  44
ATOM     44  C23 3SP d   1      14.515  16.670  22.049  0.00  0.00     0.199 C 
ATOM     45  O31 3SP d   1      14.098  16.302  23.137  0.00  0.00    -0.647 OA
ATOM     46  O32 3SP d   1      13.753  16.733  21.090  0.00  0.00    -0.647 OA
ENDBRANCH  41  44
ENDBRANCH  38  41
ENDBRANCH  36  38
BRANCH  36  47
ATOM     47  C24 3SP d   1      18.336  18.310  24.638  0.00  0.00    -0.026 C 
ATOM     48  H22 3SP d   1      18.400  17.289  25.042  0.00  0.00     0.037 H 
ATOM     49  H23 3SP d   1      17.652  18.907  25.259  0.00  0.00     0.037 H 
BRANCH  47  50
ATOM     50  C25 3SP d   1      19.733  18.952  24.668  0.00  0.00    -0.052 C 
ATOM     51  C26 3SP d   1      20.056  19.431  26.094  0.00  0.00    -0.062 C 
ATOM     52  C27 3SP d   1      21.442  20.125  26.111  0.00  0.00    -0.065 C 
ATOM     53  H25 3SP d   1      20.071  18.567  26.775  0.00  0.00     0.033 H 
ATOM     54  H26 3SP d   1      19.286  20.144  26.423  0.00  0.00     0.033 H 
ATOM     55  C28 3SP d   1      22.543  19.153  25.619  0.00  0.00    -0.065 C 
ATOM     56  H27 3SP d   1      21.674  20.445  27.138  0.00  0.00     0.033 H 
ATOM     57  H28 3SP d   1      21.414  21.004  25.451  0.00  0.00     0.033 H 
ATOM     58  C29 3SP d   1      22.203  18.611  24.208  0.00  0.00    -0.065 C 
ATOM     59  H29 3SP d   1      22.620  18.310  26.321  0.00  0.00     0.033 H 
ATOM     60  H30 3SP d   1      23.504  19.686  25.579  0.00  0.00     0.033 H 
ATOM     61  C30 3SP d   1      20.807  17.933  24.212  0.00  0.00    -0.062 C 
ATOM     62  H31 3SP d   1      22.963  17.874  23.910  0.00  0.00     0.033 H 
ATOM     63  H32 3SP d   1      22.199  19.445  23.491  0.00  0.00     0.033 H 
ATOM     64  H33 3SP d   1      20.569  17.580  23.198  0.00  0.00     0.033 H 
ATOM     65  H34 3SP d   1      20.818  17.078  24.904  0.00  0.00     0.033 H 
ATOM     66  H24 3SP d   1      19.744  19.815  23.986  0.00  0.00     0.040 H 
ENDBRANCH  47  50
ENDBRANCH  36  47
ENDBRANCH   6  36
TORSDOF 11
