REMARK  5 active torsions:
REMARK  status: ('A' for Active; 'I' for Inactive)
REMARK    1  A    between atoms: O5_1  and  C5_2 
REMARK    2  A    between atoms: C5_2  and  C4_3 
REMARK    3  A    between atoms: C3_5  and  O3_6 
REMARK    4  A    between atoms: C2_7  and  O2_8 
REMARK    5  A    between atoms: C1_9  and  C9_10 
ROOT
ATOM      1  C4  IMH d   1     -25.079  10.375 -18.617  0.00  0.00     0.149 C 
ATOM      2  N4  IMH d   1     -26.554  10.470 -18.803  0.00  0.00    -0.055 N 
ATOM      3  C3  IMH d   1     -24.720   9.030 -19.268  0.00  0.00     0.092 C 
ATOM      4  C2  IMH d   1     -25.814   8.769 -20.365  0.00  0.00     0.094 C 
ATOM      5  C1  IMH d   1     -27.018   9.712 -19.986  0.00  0.00     0.158 C 
ATOM      6  H4  IMH d   1     -24.813  10.342 -17.550  0.00  0.00     0.091 H 
ATOM      7  H5  IMH d   1     -26.805  11.439 -18.920  0.00  0.00     0.278 HD
ATOM      8  H6  IMH d   1     -27.009  10.102 -17.983  0.00  0.00     0.278 HD
ATOM      9  H7  IMH d   1     -23.730   9.106 -19.741  0.00  0.00     0.090 H 
ATOM     10  H9  IMH d   1     -25.412   9.088 -21.338  0.00  0.00     0.090 H 
ATOM     11  H11 IMH d   1     -27.895   9.099 -19.731  0.00  0.00     0.096 H 
ENDROOT
BRANCH   5  12
ATOM     12  C9  IMH d   1     -27.444  10.774 -21.167  0.00  0.00     0.022 A 
ATOM     13  C8  IMH d   1     -27.176  12.099 -21.172  0.00  0.00    -0.012 A 
ATOM     14  N7  IMH d   1     -27.675  12.707 -22.356  0.00  0.00    -0.359 N 
ATOM     15  H12 IMH d   1     -26.650  12.628 -20.378  0.00  0.00     0.112 H 
ATOM     16  C5  IMH d   1     -28.255  11.648 -23.045  0.00  0.00     0.130 A 
ATOM     17  H13 IMH d   1     -27.620  13.697 -22.637  0.00  0.00     0.165 HD
ATOM     18  C6  IMH d   1     -28.910  11.740 -24.351  0.00  0.00     0.275 A 
ATOM     19  C4  IMH d   1     -28.155  10.473 -22.380  0.00  0.00     0.100 A 
ATOM     20  O6  IMH d   1     -29.042  12.741 -25.022  0.00  0.00    -0.266 OA
ATOM     21  N1  IMH d   1     -29.396  10.459 -24.755  0.00  0.00    -0.316 N 
ATOM     22  C2  IMH d   1     -29.271   9.240 -24.011  0.00  0.00     0.067 A 
ATOM     23  H14 IMH d   1     -29.866  10.408 -25.636  0.00  0.00     0.170 HD
ATOM     24  N3  IMH d   1     -28.643   9.258 -22.824  0.00  0.00    -0.241 NA
ATOM     25  H15 IMH d   1     -29.680   8.310 -24.404  0.00  0.00     0.143 H 
ENDBRANCH   5  12
BRANCH   4  26
ATOM     26  O2  IMH d   1     -26.195   7.387 -20.503  0.00  0.00    -0.390 OA
ATOM     27  H10 IMH d   1     -25.433   6.872 -20.741  0.00  0.00     0.210 HD
ENDBRANCH   4  26
BRANCH   1  28
ATOM     28  C5  IMH d   1     -24.445  11.669 -19.249  0.00  0.00     0.046 C 
ATOM     29  H2  IMH d   1     -23.391  11.700 -18.937  0.00  0.00     0.077 H 
ATOM     30  H3  IMH d   1     -24.501  11.557 -20.342  0.00  0.00     0.077 H 
BRANCH  28  31
ATOM     31  O5  IMH d   1     -25.019  12.938 -18.924  0.00  0.00    -0.399 OA
ATOM     32  H1  IMH d   1     -24.969  13.076 -17.985  0.00  0.00     0.209 HD
ENDBRANCH  28  31
ENDBRANCH   1  28
BRANCH   3  33
ATOM     33  O3  IMH d   1     -24.690   7.941 -18.308  0.00  0.00    -0.391 OA
ATOM     34  H8  IMH d   1     -24.465   7.133 -18.754  0.00  0.00     0.210 HD
ENDBRANCH   3  33
TORSDOF 5
