REMARK  11 active torsions:
REMARK  status: ('A' for Active; 'I' for Inactive)
REMARK    1  A    between atoms: O3B_8  and  PG_1 
REMARK    2  A    between atoms: PB_5  and  O3B_8 
REMARK    3  A    between atoms: O3A_12  and  PB_5 
REMARK    4  A    between atoms: PA_9  and  O3A_12 
REMARK    5  A    between atoms: PA_9  and  O5_13 
REMARK    6  A    between atoms: O5_13  and  C5_14 
REMARK    7  A    between atoms: C5_14  and  C4_15 
REMARK    8  A    between atoms: C3_17  and  O3_18 
REMARK    9  A    between atoms: C2_19  and  O2_20 
REMARK   10  A    between atoms: C1_21  and  N9_22 
REMARK   11  A    between atoms: C6_26  and  N6_27 
ROOT
ATOM      1  C4  ATP d   1      11.356  40.897 -37.835  0.00  0.00     0.089 C 
ATOM      2  O4  ATP d   1      12.409  41.559 -37.148  0.00  0.00    -0.353 OA
ATOM      3  C3  ATP d   1      11.036  41.836 -38.975  0.00  0.00     0.091 C 
ATOM      4  C2  ATP d   1      12.370  42.383 -39.409  0.00  0.00     0.105 C 
ATOM      5  C1  ATP d   1      13.188  42.230 -38.138  0.00  0.00     0.139 C 
ATOM      6  H3  ATP d   1      10.473  40.799 -37.187  0.00  0.00     0.090 H 
ATOM      7  H4  ATP d   1      10.562  41.298 -39.809  0.00  0.00     0.091 H 
ATOM      8  H6  ATP d   1      12.791  41.763 -40.214  0.00  0.00     0.093 H 
ATOM      9  H8  ATP d   1      13.430  43.224 -37.733  0.00  0.00     0.122 H 
ENDROOT
BRANCH   1  10
ATOM     10  C5  ATP d   1      11.811  39.496 -38.232  0.00  0.00     0.058 C 
ATOM     11  H1  ATP d   1      12.787  39.308 -37.762  0.00  0.00     0.079 H 
ATOM     12  H2  ATP d   1      11.074  38.776 -37.847  0.00  0.00     0.079 H 
BRANCH  10  13
ATOM     13  O5  ATP d   1      11.948  39.281 -39.644  0.00  0.00    -0.287 OA
BRANCH  13  14
ATOM     14  PA  ATP d   1      11.150  37.972 -40.131  0.00  0.00     0.417 P 
ATOM     15  O1A ATP d   1      11.544  36.839 -39.246  0.00  0.00    -0.624 OA
ATOM     16  O2A ATP d   1      11.320  37.744 -41.643  0.00  0.00    -0.624 OA
BRANCH  14  17
ATOM     17  O3A ATP d   1       9.675  38.583 -39.740  0.00  0.00    -0.180 OA
BRANCH  17  18
ATOM     18  PB  ATP d   1       8.548  38.273 -40.849  0.00  0.00     0.428 P 
ATOM     19  O1B ATP d   1       8.812  39.046 -42.110  0.00  0.00    -0.624 OA
ATOM     20  O2B ATP d   1       8.697  36.749 -40.997  0.00  0.00    -0.624 OA
BRANCH  18  21
ATOM     21  O3B ATP d   1       7.141  38.686 -40.169  0.00  0.00    -0.173 OA
BRANCH  21  22
ATOM     22  PG  ATP d   1       6.793  38.171 -38.674  0.00  0.00     0.431 P 
ATOM     23  O1G ATP d   1       5.337  37.870 -38.672  0.00  0.00    -0.616 OA
ATOM     24  O2G ATP d   1       7.092  39.277 -37.620  0.00  0.00    -0.616 OA
ATOM     25  O3G ATP d   1       7.625  36.915 -38.358  0.00  0.00    -0.616 OA
ENDBRANCH  21  22
ENDBRANCH  18  21
ENDBRANCH  17  18
ENDBRANCH  14  17
ENDBRANCH  13  14
ENDBRANCH  10  13
ENDBRANCH   1  10
BRANCH   3  26
ATOM     26  O3  ATP d   1      10.140  42.832 -38.487  0.00  0.00    -0.390 OA
ATOM     27  H5  ATP d   1       9.925  43.434 -39.189  0.00  0.00     0.210 HD
ENDBRANCH   3  26
BRANCH   5  28
ATOM     28  N9  ATP d   1      14.448  41.606 -38.583  0.00  0.00    -0.294 N 
ATOM     29  C8  ATP d   1      14.748  40.692 -39.579  0.00  0.00     0.071 A 
ATOM     30  N7  ATP d   1      16.098  40.530 -39.623  0.00  0.00    -0.236 NA
ATOM     31  H9  ATP d   1      14.025  40.188 -40.219  0.00  0.00     0.144 H 
ATOM     32  C5  ATP d   1      16.657  41.347 -38.683  0.00  0.00     0.149 A 
ATOM     33  C6  ATP d   1      17.956  41.583 -38.288  0.00  0.00     0.155 A 
ATOM     34  C4  ATP d   1      15.629  42.029 -38.038  0.00  0.00     0.167 A 
ATOM     35  N1  ATP d   1      18.191  42.493 -37.275  0.00  0.00    -0.222 NA
ATOM     36  C2  ATP d   1      17.148  43.150 -36.663  0.00  0.00     0.091 A 
ATOM     37  N3  ATP d   1      15.853  42.918 -37.041  0.00  0.00    -0.222 NA
ATOM     38  H12 ATP d   1      17.355  43.861 -35.871  0.00  0.00     0.146 H 
BRANCH  33  39
ATOM     39  N6  ATP d   1      18.972  41.081 -39.001  0.00  0.00    -0.382 N 
ATOM     40  H10 ATP d   1      19.944  41.256 -38.707  0.00  0.00     0.157 HD
ATOM     41  H11 ATP d   1      18.782  40.519 -39.843  0.00  0.00     0.157 HD
ENDBRANCH  33  39
ENDBRANCH   5  28
BRANCH   4  42
ATOM     42  O2  ATP d   1      12.318  43.713 -39.864  0.00  0.00    -0.388 OA
ATOM     43  H7  ATP d   1      13.189  43.993 -40.120  0.00  0.00     0.210 HD
ENDBRANCH   4  42
TORSDOF 11
