REMARK  20 active torsions:
REMARK  status: ('A' for Active; 'I' for Inactive)
REMARK    1  A    between atoms: C2_40  and  C1_39 
REMARK    2  A    between atoms: N1_67  and  C2_40 
REMARK    3  A    between atoms: C4_42  and  C3_41 
REMARK    4  A    between atoms: N1_67  and  C4_42 
REMARK    5  A    between atoms: C5_43  and  N1_67 
REMARK    6  A    between atoms: C6_44  and  C5_43 
REMARK    7  A    between atoms: C7_45  and  C6_44 
REMARK    8  A    between atoms: C8_46  and  C7_45 
REMARK    9  A    between atoms: N2_68  and  C8_46 
REMARK   10  A    between atoms: C9_47  and  N2_68 
REMARK   11  A    between atoms: C16_54  and  C14_52 
REMARK   12  A    between atoms: C15_53  and  N6_72 
REMARK   13  A    between atoms: O1_74  and  C18_56 
REMARK   14  A    between atoms: C20_58  and  O2_75 
REMARK   15  A    between atoms: O1_74  and  C22_60 
REMARK   16  A    between atoms: O2_75  and  C23_61 
REMARK       I    between atoms: N6_72  and  C24_62 
REMARK       I    between atoms: C24_62  and  N7_73 
REMARK   17  A    between atoms: N7_73  and  C25_63 
REMARK   18  A    between atoms: C25_63  and  C28_66 
REMARK   19  A    between atoms: C25_63  and  C27_65 
REMARK   20  A    between atoms: C25_63  and  C26_64 
ROOT
ATOM      1  H19 PD1 d   1       5.058   1.450  20.942  0.00  0.00     0.117 H 
ATOM      2  H20 PD1 d   1       4.791   2.724  18.808  0.00  0.00     0.086 H 
ATOM      3  C9  PD1 d   1       7.131   3.072  22.905  0.00  0.00     0.724 A 
ATOM      4  C10 PD1 d   1       5.740   2.215  21.295  0.00  0.00     0.035 A 
ATOM      5  C11 PD1 d   1       6.024   3.318  20.486  0.00  0.00     0.032 A 
ATOM      6  C12 PD1 d   1       6.900   4.324  20.976  0.00  0.00     0.182 A 
ATOM      7  C13 PD1 d   1       5.477   3.467  19.198  0.00  0.00    -0.053 A 
ATOM      8  C14 PD1 d   1       5.821   4.568  18.433  0.00  0.00     0.021 A 
ATOM      9  C15 PD1 d   1       6.683   5.499  18.979  0.00  0.00     0.145 A 
ATOM     10  N3  PD1 d   1       6.323   2.094  22.542  0.00  0.00    -0.074 NA
ATOM     11  N4  PD1 d   1       7.429   4.145  22.180  0.00  0.00    -0.042 NA
ATOM     12  N5  PD1 d   1       7.190   5.355  20.203  0.00  0.00    -0.209 NA
ENDROOT
BRANCH   3  13
ATOM     13  N2  PD1 d   1       7.751   2.959  24.182  0.00  0.00    -0.222 N 
ATOM     14  H40 PD1 d   1       7.291   2.318  24.843  0.00  0.00     0.177 HD
BRANCH  13  15
ATOM     15  C8  PD1 d   1       8.950   3.627  24.684  0.00  0.00     0.009 C 
ATOM     16  H17 PD1 d   1       9.740   3.561  23.922  0.00  0.00     0.064 H 
ATOM     17  H18 PD1 d   1       8.714   4.684  24.877  0.00  0.00     0.064 H 
BRANCH  15  18
ATOM     18  C7  PD1 d   1       9.454   2.991  25.973  0.00  0.00    -0.048 C 
ATOM     19  H15 PD1 d   1       8.602   2.820  26.648  0.00  0.00     0.035 H 
ATOM     20  H16 PD1 d   1       9.934   2.030  25.737  0.00  0.00     0.035 H 
BRANCH  18  21
ATOM     21  C6  PD1 d   1      10.453   3.887  26.656  0.00  0.00    -0.041 C 
ATOM     22  H13 PD1 d   1      11.336   3.998  26.009  0.00  0.00     0.035 H 
ATOM     23  H14 PD1 d   1       9.994   4.873  26.823  0.00  0.00     0.035 H 
BRANCH  21  24
ATOM     24  C5  PD1 d   1      10.888   3.313  27.990  0.00  0.00     0.084 C 
ATOM     25  H11 PD1 d   1      10.007   2.877  28.483  0.00  0.00     0.076 H 
ATOM     26  H12 PD1 d   1      11.631   2.524  27.802  0.00  0.00     0.076 H 
BRANCH  24  27
ATOM     27  N1  PD1 d   1      11.499   4.326  28.921  0.00  0.00    -0.072 N 
ATOM     28  H39 PD1 d   1      10.945   4.153  29.745  0.00  0.00     0.279 HD
BRANCH  27  29
ATOM     29  C2  PD1 d   1      11.162   5.779  28.691  0.00  0.00     0.080 C 
ATOM     30  H4  PD1 d   1      11.852   6.410  29.270  0.00  0.00     0.075 H 
ATOM     31  H5  PD1 d   1      11.263   6.012  27.621  0.00  0.00     0.075 H 
BRANCH  29  32
ATOM     32  C1  PD1 d   1       9.730   6.054  29.136  0.00  0.00    -0.053 C 
ATOM     33  H1  PD1 d   1       9.490   7.114  28.966  0.00  0.00     0.029 H 
ATOM     34  H2  PD1 d   1       9.628   5.822  30.206  0.00  0.00     0.029 H 
ATOM     35  H3  PD1 d   1       9.039   5.424  28.557  0.00  0.00     0.029 H 
ENDBRANCH  29  32
ENDBRANCH  27  29
BRANCH  27  36
ATOM     36  C4  PD1 d   1      12.867   4.016  29.465  0.00  0.00     0.080 C 
ATOM     37  H9  PD1 d   1      13.632   4.396  28.772  0.00  0.00     0.075 H 
ATOM     38  H10 PD1 d   1      12.980   2.927  29.575  0.00  0.00     0.075 H 
BRANCH  36  39
ATOM     39  C3  PD1 d   1      13.039   4.691  30.838  0.00  0.00    -0.053 C 
ATOM     40  H6  PD1 d   1      14.039   4.464  31.235  0.00  0.00     0.029 H 
ATOM     41  H7  PD1 d   1      12.274   4.311  31.532  0.00  0.00     0.029 H 
ATOM     42  H8  PD1 d   1      12.927   5.780  30.728  0.00  0.00     0.029 H 
ENDBRANCH  36  39
ENDBRANCH  27  36
ENDBRANCH  24  27
ENDBRANCH  21  24
ENDBRANCH  18  21
ENDBRANCH  15  18
ENDBRANCH  13  15
ENDBRANCH   3  13
BRANCH   9  43
ATOM     43  N6  PD1 d   1       7.070   6.652  18.232  0.00  0.00    -0.292 N 
ATOM     44  C24 PD1 d   1       7.912   7.643  18.498  0.00  0.00     0.322 C 
ATOM     45  N7  PD1 d   1       8.360   7.764  19.750  0.00  0.00    -0.335 N 
ATOM     46  O3  PD1 d   1       8.225   8.449  17.621  0.00  0.00    -0.247 OA
ATOM     47  H42 PD1 d   1       8.069   7.073  20.412  0.00  0.00     0.165 HD
ATOM     48  H41 PD1 d   1       6.623   6.727  17.341  0.00  0.00     0.172 HD
BRANCH  45  49
ATOM     49  C25 PD1 d   1       9.237   8.821  20.228  0.00  0.00     0.023 C 
BRANCH  49  50
ATOM     50  C28 PD1 d   1       9.434   8.644  21.706  0.00  0.00    -0.054 C 
ATOM     51  H36 PD1 d   1      10.096   9.436  22.085  0.00  0.00     0.030 H 
ATOM     52  H37 PD1 d   1       9.889   7.662  21.900  0.00  0.00     0.030 H 
ATOM     53  H38 PD1 d   1       8.461   8.704  22.215  0.00  0.00     0.030 H 
ENDBRANCH  49  50
BRANCH  49  54
ATOM     54  C27 PD1 d   1       8.628  10.193  19.949  0.00  0.00    -0.054 C 
ATOM     55  H33 PD1 d   1       9.306  10.977  20.318  0.00  0.00     0.030 H 
ATOM     56  H34 PD1 d   1       7.659  10.275  20.462  0.00  0.00     0.030 H 
ATOM     57  H35 PD1 d   1       8.481  10.315  18.866  0.00  0.00     0.030 H 
ENDBRANCH  49  54
BRANCH  49  58
ATOM     58  C26 PD1 d   1      10.568   8.719  19.551  0.00  0.00    -0.054 C 
ATOM     59  H30 PD1 d   1      11.227   9.520  19.916  0.00  0.00     0.030 H 
ATOM     60  H31 PD1 d   1      10.435   8.820  18.464  0.00  0.00     0.030 H 
ATOM     61  H32 PD1 d   1      11.020   7.742  19.776  0.00  0.00     0.030 H 
ENDBRANCH  49  58
ENDBRANCH  45  49
ENDBRANCH   9  43
BRANCH   8  62
ATOM     62  C16 PD1 d   1       5.298   4.673  17.153  0.00  0.00    -0.017 A 
ATOM     63  C21 PD1 d   1       4.247   5.534  16.856  0.00  0.00    -0.040 A 
ATOM     64  H23 PD1 d   1       3.811   6.155  17.630  0.00  0.00     0.089 H 
ATOM     65  C20 PD1 d   1       3.762   5.589  15.552  0.00  0.00     0.071 A 
ATOM     66  C19 PD1 d   1       4.288   4.807  14.541  0.00  0.00    -0.019 A 
ATOM     67  H22 PD1 d   1       3.894   4.860  13.532  0.00  0.00     0.092 H 
ATOM     68  C18 PD1 d   1       5.320   3.965  14.851  0.00  0.00     0.071 A 
ATOM     69  C17 PD1 d   1       5.827   3.879  16.133  0.00  0.00    -0.040 A 
ATOM     70  H21 PD1 d   1       6.638   3.193  16.348  0.00  0.00     0.089 H 
BRANCH  65  71
ATOM     71  O2  PD1 d   1       2.689   6.430  15.261  0.00  0.00    -0.356 OA
BRANCH  71  72
ATOM     72  C23 PD1 d   1       1.762   6.211  14.160  0.00  0.00     0.010 C 
ATOM     73  H27 PD1 d   1       1.010   7.014  14.148  0.00  0.00     0.066 H 
ATOM     74  H28 PD1 d   1       1.260   5.241  14.291  0.00  0.00     0.066 H 
ATOM     75  H29 PD1 d   1       2.315   6.213  13.209  0.00  0.00     0.066 H 
ENDBRANCH  71  72
ENDBRANCH  65  71
BRANCH  68  76
ATOM     76  O1  PD1 d   1       5.857   3.151  13.858  0.00  0.00    -0.356 OA
BRANCH  76  77
ATOM     77  C22 PD1 d   1       5.081   2.536  12.802  0.00  0.00     0.010 C 
ATOM     78  H24 PD1 d   1       5.746   1.946  12.154  0.00  0.00     0.066 H 
ATOM     79  H25 PD1 d   1       4.588   3.318  12.206  0.00  0.00     0.066 H 
ATOM     80  H26 PD1 d   1       4.319   1.876  13.243  0.00  0.00     0.066 H 
ENDBRANCH  76  77
ENDBRANCH  68  76
ENDBRANCH   8  62
TORSDOF 20
