REMARK  3 active torsions:
REMARK  status: ('A' for Active; 'I' for Inactive)
REMARK    1  A    between atoms: C5_5  and  S_7 
REMARK    2  A    between atoms: S_7  and  N_10 
REMARK    3  A    between atoms: N_10  and  C11_11 
ROOT
ATOM      1  N   A37 d   1      50.983  -3.629  24.019  0.00  0.00    -0.243 N 
ATOM      2  H4  A37 d   1      51.875  -4.061  24.154  0.00  0.00     0.182 HD
ENDROOT
BRANCH   1   3
ATOM      3  S   A37 d   1      50.325  -3.629  22.438  0.00  0.00     0.267 S 
ATOM      4  O   A37 d   1      49.465  -2.407  22.277  0.00  0.00    -0.200 OA
ATOM      5  O9  A37 d   1      51.523  -3.753  21.488  0.00  0.00    -0.200 OA
BRANCH   3   6
ATOM      6  C5  A37 d   1      49.278  -5.042  22.232  0.00  0.00     0.103 A 
ATOM      7  C4  A37 d   1      47.873  -4.812  21.983  0.00  0.00    -0.038 A 
ATOM      8  C3  A37 d   1      46.975  -5.946  21.817  0.00  0.00     0.035 A 
ATOM      9  H3  A37 d   1      47.490  -3.800  21.920  0.00  0.00     0.088 H 
ATOM     10  C2  A37 d   1      47.454  -7.269  21.896  0.00  0.00    -0.060 A 
ATOM     11 CL2  A37 d   1      45.298  -5.693  21.518  0.00  0.00    -0.084 Cl
ATOM     12  C   A37 d   1      48.866  -7.477  22.140  0.00  0.00    -0.059 A 
ATOM     13  H2  A37 d   1      46.782  -8.111  21.777  0.00  0.00     0.086 H 
ATOM     14  C6  A37 d   1      49.767  -6.357  22.308  0.00  0.00     0.057 A 
ATOM     15  H1  A37 d   1      49.254  -8.487  22.198  0.00  0.00     0.086 H 
ATOM     16 CL3  A37 d   1      51.463  -6.681  22.605  0.00  0.00    -0.083 Cl
ENDBRANCH   3   6
ENDBRANCH   1   3
BRANCH   1  17
ATOM     17  C11 A37 d   1      50.304  -3.019  25.226  0.00  0.00     0.262 A 
ATOM     18  N12 A37 d   1      49.004  -2.549  25.276  0.00  0.00    -0.205 NA
ATOM     19  C13 A37 d   1      48.761  -2.070  26.593  0.00  0.00     0.096 A 
ATOM     20  C14 A37 d   1      47.631  -1.491  27.252  0.00  0.00    -0.031 A 
ATOM     21  C19 A37 d   1      50.022  -2.288  27.342  0.00  0.00     0.108 A 
ATOM     22  C15 A37 d   1      47.749  -1.116  28.640  0.00  0.00     0.036 A 
ATOM     23  H5  A37 d   1      46.701  -1.337  26.717  0.00  0.00     0.089 H 
ATOM     24 CL1  A37 d   1      46.391  -0.415  29.458  0.00  0.00    -0.084 Cl
ATOM     25  C17 A37 d   1      48.972  -1.315  29.365  0.00  0.00    -0.059 A 
ATOM     26  C18 A37 d   1      50.114  -1.906  28.709  0.00  0.00    -0.046 A 
ATOM     27  H6  A37 d   1      49.038  -1.021  30.406  0.00  0.00     0.086 H 
ATOM     28  H7  A37 d   1      51.038  -2.058  29.256  0.00  0.00     0.087 H 
ATOM     29  O20 A37 d   1      50.940  -2.870  26.461  0.00  0.00    -0.275 OA
ENDBRANCH   1  17
TORSDOF 3
