REMARK  8 active torsions:
REMARK  status: ('A' for Active; 'I' for Inactive)
REMARK    1  A    between atoms: S_7  and  C4_5 
REMARK    2  A    between atoms: N_10  and  S_7 
REMARK    3  A    between atoms: C6_11  and  N_10 
REMARK    4  A    between atoms: C9_15  and  O4_22 
REMARK    5  A    between atoms: C17_28  and  C11_17 
REMARK    6  A    between atoms: O4_22  and  C13_23 
REMARK    7  A    between atoms: C15_25  and  O5_30 
REMARK    8  A    between atoms: O5_30  and  C19_31 
ROOT
ATOM      1  C6  A74 d   1       1.605  39.721  38.577  0.00  0.00     0.262 A 
ATOM      2  N1  A74 d   1       2.429  38.610  38.417  0.00  0.00    -0.205 NA
ATOM      3  C7  A74 d   1       3.666  39.014  38.907  0.00  0.00     0.098 A 
ATOM      4  C8  A74 d   1       4.846  38.300  38.987  0.00  0.00    -0.020 A 
ATOM      5  C9  A74 d   1       6.015  38.924  39.542  0.00  0.00     0.071 A 
ATOM      6  C10 A74 d   1       5.925  40.280  39.992  0.00  0.00    -0.037 A 
ATOM      7  C11 A74 d   1       4.719  41.020  39.917  0.00  0.00     0.015 A 
ATOM      8  C12 A74 d   1       3.526  40.343  39.333  0.00  0.00     0.119 A 
ATOM      9  O3  A74 d   1       2.272  40.783  39.138  0.00  0.00    -0.274 OA
ATOM     10  H5  A74 d   1       4.889  37.276  38.633  0.00  0.00     0.091 H 
ATOM     11  H6  A74 d   1       6.808  40.756  40.403  0.00  0.00     0.089 H 
ENDROOT
BRANCH   1  12
ATOM     12  N   A74 d   1       0.166  39.866  38.230  0.00  0.00    -0.243 N 
ATOM     13  H4  A74 d   1      -0.265  40.750  38.411  0.00  0.00     0.182 HD
BRANCH  12  14
ATOM     14  S   A74 d   1      -0.750  38.715  37.587  0.00  0.00     0.267 S 
ATOM     15  O1  A74 d   1      -0.308  37.478  38.179  0.00  0.00    -0.200 OA
ATOM     16  O2  A74 d   1      -2.128  39.103  37.816  0.00  0.00    -0.200 OA
BRANCH  14  17
ATOM     17  C4  A74 d   1      -0.535  38.656  35.805  0.00  0.00     0.103 A 
ATOM     18  C3  A74 d   1       0.046  37.466  35.265  0.00  0.00    -0.038 A 
ATOM     19  C2  A74 d   1       0.245  37.348  33.866  0.00  0.00     0.035 A 
ATOM     20  H3  A74 d   1       0.334  36.655  35.924  0.00  0.00     0.088 H 
ATOM     21  C1  A74 d   1      -0.127  38.398  32.986  0.00  0.00    -0.060 A 
ATOM     22 CL2  A74 d   1       0.952  35.901  33.215  0.00  0.00    -0.084 Cl
ATOM     23  C   A74 d   1      -0.708  39.592  33.507  0.00  0.00    -0.059 A 
ATOM     24  H2  A74 d   1       0.030  38.292  31.919  0.00  0.00     0.086 H 
ATOM     25  C5  A74 d   1      -0.914  39.727  34.913  0.00  0.00     0.057 A 
ATOM     26  H1  A74 d   1      -0.992  40.395  32.837  0.00  0.00     0.086 H 
ATOM     27 CL1  A74 d   1      -1.639  41.217  35.473  0.00  0.00    -0.083 Cl
ENDBRANCH  14  17
ENDBRANCH  12  14
ENDBRANCH   1  12
BRANCH   7  28
ATOM     28  C17 A74 d   1       4.661  42.464  40.421  0.00  0.00    -0.005 A 
ATOM     29  C16 A74 d   1       5.794  43.127  40.965  0.00  0.00     0.016 A 
ATOM     30  N2  A74 d   1       5.745  44.417  41.425  0.00  0.00    -0.236 NA
ATOM     31  H11 A74 d   1       6.735  42.591  41.018  0.00  0.00     0.116 H 
ATOM     32  C15 A74 d   1       4.579  45.126  41.381  0.00  0.00     0.163 A 
ATOM     33  C14 A74 d   1       3.412  44.556  40.866  0.00  0.00    -0.031 A 
ATOM     34  C18 A74 d   1       3.467  43.225  40.389  0.00  0.00    -0.067 A 
ATOM     35  H10 A74 d   1       2.487  45.120  40.833  0.00  0.00     0.090 H 
ATOM     36  H12 A74 d   1       2.567  42.774  39.987  0.00  0.00     0.085 H 
BRANCH  32  37
ATOM     37  O5  A74 d   1       4.501  46.431  41.841  0.00  0.00    -0.339 OA
BRANCH  37  38
ATOM     38  C19 A74 d   1       5.561  47.270  41.377  0.00  0.00     0.012 C 
ATOM     39  H13 A74 d   1       5.430  48.284  41.782  0.00  0.00     0.067 H 
ATOM     40  H14 A74 d   1       5.543  47.309  40.278  0.00  0.00     0.067 H 
ATOM     41  H15 A74 d   1       6.526  46.862  41.714  0.00  0.00     0.067 H 
ENDBRANCH  37  38
ENDBRANCH  32  37
ENDBRANCH   7  28
BRANCH   5  42
ATOM     42  O4  A74 d   1       7.218  38.161  39.627  0.00  0.00    -0.356 OA
BRANCH  42  43
ATOM     43  C13 A74 d   1       7.252  36.828  39.106  0.00  0.00     0.010 C 
ATOM     44  H7  A74 d   1       8.254  36.400  39.259  0.00  0.00     0.066 H 
ATOM     45  H8  A74 d   1       7.023  36.849  38.030  0.00  0.00     0.066 H 
ATOM     46  H9  A74 d   1       6.506  36.211  39.628  0.00  0.00     0.066 H 
ENDBRANCH  42  43
ENDBRANCH   5  42
TORSDOF 8
