REMARK  7 active torsions:
REMARK  status: ('A' for Active; 'I' for Inactive)
REMARK    1  A    between atoms: S_7  and  C4_5 
REMARK    2  A    between atoms: N_10  and  S_7 
REMARK    3  A    between atoms: C6_11  and  N_10 
REMARK    4  A    between atoms: C9_15  and  O4_22 
REMARK    5  A    between atoms: C17_28  and  C11_17 
REMARK    6  A    between atoms: O4_22  and  C13_23 
REMARK    7  A    between atoms: C19_26  and  N2_30 
ROOT
ATOM      1  C6  870 d   1      51.182  -3.136  25.675  0.00  0.00     0.262 A 
ATOM      2  N1  870 d   1      49.894  -2.730  25.971  0.00  0.00    -0.205 NA
ATOM      3  C7  870 d   1      49.907  -2.439  27.298  0.00  0.00     0.098 A 
ATOM      4  C8  870 d   1      48.850  -1.978  28.047  0.00  0.00    -0.020 A 
ATOM      5  C9  870 d   1      49.025  -1.708  29.395  0.00  0.00     0.071 A 
ATOM      6  C10 870 d   1      50.306  -1.910  29.999  0.00  0.00    -0.037 A 
ATOM      7  C11 870 d   1      51.408  -2.385  29.242  0.00  0.00     0.013 A 
ATOM      8  C12 870 d   1      51.185  -2.673  27.786  0.00  0.00     0.119 A 
ATOM      9  O3  870 d   1      51.982  -3.107  26.799  0.00  0.00    -0.274 OA
ATOM     10  H5  870 d   1      47.882  -1.826  27.584  0.00  0.00     0.091 H 
ATOM     11  H6  870 d   1      50.437  -1.696  31.054  0.00  0.00     0.089 H 
ENDROOT
BRANCH   1  12
ATOM     12  N   870 d   1      51.701  -3.539  24.335  0.00  0.00    -0.243 N 
ATOM     13  H4  870 d   1      52.654  -3.837  24.270  0.00  0.00     0.182 HD
BRANCH  12  14
ATOM     14  S   870 d   1      50.806  -3.523  22.968  0.00  0.00     0.267 S 
ATOM     15  O1  870 d   1      49.939  -2.367  23.047  0.00  0.00    -0.200 OA
ATOM     16  O2  870 d   1      51.718  -3.561  21.849  0.00  0.00    -0.200 OA
BRANCH  14  17
ATOM     17  C4  870 d   1      49.813  -4.977  22.911  0.00  0.00     0.103 A 
ATOM     18  C3  870 d   1      48.412  -4.791  22.992  0.00  0.00    -0.038 A 
ATOM     19  C2  870 d   1      47.555  -5.864  22.966  0.00  0.00     0.035 A 
ATOM     20  H3  870 d   1      48.010  -3.788  23.076  0.00  0.00     0.088 H 
ATOM     21  C1  870 d   1      48.042  -7.184  22.855  0.00  0.00    -0.060 A 
ATOM     22 CL2  870 d   1      45.871  -5.585  23.072  0.00  0.00    -0.084 Cl
ATOM     23  C   870 d   1      49.439  -7.419  22.765  0.00  0.00    -0.059 A 
ATOM     24  H2  870 d   1      47.350  -8.018  22.838  0.00  0.00     0.086 H 
ATOM     25  C5  870 d   1      50.338  -6.312  22.794  0.00  0.00     0.057 A 
ATOM     26  H1  870 d   1      49.819  -8.430  22.675  0.00  0.00     0.086 H 
ATOM     27 CL1  870 d   1      52.049  -6.645  22.678  0.00  0.00    -0.083 Cl
ENDBRANCH  14  17
ENDBRANCH  12  14
ENDBRANCH   1  12
BRANCH   7  28
ATOM     28  C17 870 d   1      52.799  -2.563  29.935  0.00  0.00    -0.021 A 
ATOM     29  C16 870 d   1      53.011  -2.229  31.316  0.00  0.00    -0.047 A 
ATOM     30  C19 870 d   1      54.294  -2.383  31.921  0.00  0.00     0.026 A 
ATOM     31  H12 870 d   1      52.184  -1.854  31.907  0.00  0.00     0.088 H 
ATOM     32  C15 870 d   1      55.375  -2.877  31.168  0.00  0.00    -0.058 A 
ATOM     33  C14 870 d   1      55.192  -3.213  29.812  0.00  0.00    -0.080 A 
ATOM     34  H11 870 d   1      56.348  -2.999  31.631  0.00  0.00     0.086 H 
ATOM     35  C18 870 d   1      53.923  -3.051  29.215  0.00  0.00    -0.072 A 
ATOM     36  H10 870 d   1      56.023  -3.595  29.229  0.00  0.00     0.083 H 
ATOM     37  H13 870 d   1      53.801  -3.308  28.169  0.00  0.00     0.084 H 
BRANCH  30  38
ATOM     38  N2  870 d   1      54.471  -2.059  33.224  0.00  0.00    -0.399 N 
ATOM     39  H14 870 d   1      55.397  -2.170  33.661  0.00  0.00     0.156 HD
ATOM     40  H15 870 d   1      53.680  -1.702  33.778  0.00  0.00     0.156 HD
ENDBRANCH  30  38
ENDBRANCH   7  28
BRANCH   5  41
ATOM     41  O4  870 d   1      47.885  -1.223  30.057  0.00  0.00    -0.356 OA
BRANCH  41  42
ATOM     42  C13 870 d   1      48.042  -0.798  31.397  0.00  0.00     0.010 C 
ATOM     43  H7  870 d   1      47.075  -0.446  31.786  0.00  0.00     0.066 H 
ATOM     44  H8  870 d   1      48.774   0.022  31.438  0.00  0.00     0.066 H 
ATOM     45  H9  870 d   1      48.399  -1.639  32.009  0.00  0.00     0.066 H 
ENDBRANCH  41  42
ENDBRANCH   5  41
TORSDOF 7
