REMARK  12 active torsions:
REMARK  status: ('A' for Active; 'I' for Inactive)
REMARK    1  A    between atoms: C1_1  and  C2_2 
REMARK    2  A    between atoms: C2_2  and  C3_3 
REMARK    3  A    between atoms: C3_3  and  C4_4 
REMARK    4  A    between atoms: C4_4  and  C5_5 
REMARK    5  A    between atoms: C5_5  and  C6_6 
REMARK    6  A    between atoms: C6_6  and  C7_7 
REMARK    7  A    between atoms: C7_7  and  C8_8 
REMARK    8  A    between atoms: C8_8  and  S1_9 
REMARK    9  A    between atoms: S1_9  and  C9_10 
REMARK   10  A    between atoms: C9_10  and  C10_11 
REMARK   11  A    between atoms: C10_11  and  O1_12 
REMARK   12  A    between atoms: C10_11  and  C11_13 
ROOT
ATOM      1  C6  TFC d   1      34.567  49.371  71.688  0.00  0.00    -0.064 C 
ATOM      2  H12 TFC d   1      34.839  48.564  72.385  0.00  0.00     0.033 H 
ATOM      3  H13 TFC d   1      35.476  49.765  71.210  0.00  0.00     0.033 H 
ENDROOT
BRANCH   1   4
ATOM      4  C5  TFC d   1      33.909  50.498  72.484  0.00  0.00    -0.065 C 
ATOM      5  H10 TFC d   1      33.837  51.396  71.853  0.00  0.00     0.033 H 
ATOM      6  H11 TFC d   1      32.901  50.185  72.793  0.00  0.00     0.033 H 
BRANCH   4   7
ATOM      7  C4  TFC d   1      34.744  50.819  73.729  0.00  0.00    -0.065 C 
ATOM      8  H8  TFC d   1      35.783  51.014  73.426  0.00  0.00     0.033 H 
ATOM      9  H9  TFC d   1      34.331  51.713  74.219  0.00  0.00     0.033 H 
BRANCH   7  10
ATOM     10  C3  TFC d   1      34.720  49.651  74.715  0.00  0.00    -0.065 C 
ATOM     11  H6  TFC d   1      33.677  49.445  74.997  0.00  0.00     0.033 H 
ATOM     12  H7  TFC d   1      35.150  48.764  74.227  0.00  0.00     0.033 H 
BRANCH  10  13
ATOM     13  C2  TFC d   1      35.522  49.957  75.979  0.00  0.00    -0.069 C 
ATOM     14  H4  TFC d   1      36.584  50.070  75.715  0.00  0.00     0.032 H 
ATOM     15  H5  TFC d   1      35.153  50.893  76.424  0.00  0.00     0.032 H 
BRANCH  13  16
ATOM     16  C1  TFC d   1      35.374  48.822  76.999  0.00  0.00    -0.077 C 
ATOM     17  H1  TFC d   1      35.958  49.061  77.900  0.00  0.00     0.027 H 
ATOM     18  H2  TFC d   1      35.745  47.884  76.560  0.00  0.00     0.027 H 
ATOM     19  H3  TFC d   1      34.314  48.707  77.269  0.00  0.00     0.027 H 
ENDBRANCH  13  16
ENDBRANCH  10  13
ENDBRANCH   7  10
ENDBRANCH   4   7
ENDBRANCH   1   4
BRANCH   1  20
ATOM     20  C7  TFC d   1      33.660  48.789  70.601  0.00  0.00    -0.057 C 
ATOM     21  H14 TFC d   1      32.724  48.453  71.072  0.00  0.00     0.034 H 
ATOM     22  H15 TFC d   1      34.171  47.928  70.146  0.00  0.00     0.034 H 
BRANCH  20  23
ATOM     23  C8  TFC d   1      33.313  49.787  69.493  0.00  0.00    -0.023 C 
ATOM     24  H16 TFC d   1      34.231  50.298  69.166  0.00  0.00     0.049 H 
ATOM     25  H17 TFC d   1      32.600  50.528  69.884  0.00  0.00     0.049 H 
BRANCH  23  26
ATOM     26  S1  TFC d   1      32.563  48.928  68.064  0.00  0.00    -0.166 SA
BRANCH  26  27
ATOM     27  C9  TFC d   1      31.606  50.285  67.300  0.00  0.00     0.009 C 
ATOM     28  H18 TFC d   1      32.204  50.718  66.485  0.00  0.00     0.053 H 
ATOM     29  H19 TFC d   1      31.417  51.053  68.065  0.00  0.00     0.053 H 
BRANCH  27  30
ATOM     30  C10 TFC d   1      30.261  49.828  66.727  0.00  0.00     0.137 C 
ATOM     31  H20 TFC d   1      29.856  50.658  66.130  0.00  0.00     0.098 H 
BRANCH  30  32
ATOM     32  O1  TFC d   1      30.497  48.714  65.859  0.00  0.00    -0.386 OA
ATOM     33  H21 TFC d   1      31.078  48.979  65.156  0.00  0.00     0.210 HD
ENDBRANCH  30  32
BRANCH  30  34
ATOM     34  C11 TFC d   1      29.199  49.458  67.770  0.00  0.00     0.413 C 
ATOM     35  F1  TFC d   1      28.062  49.160  67.150  0.00  0.00    -0.168 F 
ATOM     36  F2  TFC d   1      28.949  50.484  68.578  0.00  0.00    -0.168 F 
ATOM     37  F3  TFC d   1      29.568  48.415  68.508  0.00  0.00    -0.168 F 
ENDBRANCH  30  34
ENDBRANCH  27  30
ENDBRANCH  26  27
ENDBRANCH  23  26
ENDBRANCH  20  23
ENDBRANCH   1  20
TORSDOF 12
