REMARK  12 active torsions:
REMARK  status: ('A' for Active; 'I' for Inactive)
REMARK    1  A    between atoms: C65_2  and  O66_3 
REMARK    2  A    between atoms: C65_2  and  C58_5 
REMARK    3  A    between atoms: O66_3  and  C67_4 
REMARK    4  A    between atoms: C55_10  and  C11_11 
REMARK    5  A    between atoms: C11_11  and  N12_12 
REMARK    6  A    between atoms: C11_11  and  C13_21 
REMARK    7  A    between atoms: C11_11  and  C37_35 
REMARK    8  A    between atoms: C13_21  and  C2_22 
REMARK    9  A    between atoms: C5_25  and  C28_26 
REMARK   10  A    between atoms: C28_26  and  P31_28 
REMARK   11  A    between atoms: C37_35  and  C38_36 
REMARK   12  A    between atoms: C41_37  and  C43_38 
ROOT
ATOM      1  C11 073 d   1      21.769  28.576  18.135  0.00  0.00     0.086 C 
ENDROOT
BRANCH   1   2
ATOM      2  C55 073 d   1      22.892  28.929  19.083  0.00  0.00    -0.028 A 
ATOM      3  C56 073 d   1      23.698  27.906  19.605  0.00  0.00    -0.073 A 
ATOM      4  C57 073 d   1      24.726  28.215  20.502  0.00  0.00    -0.067 A 
ATOM      5  H5  073 d   1      23.524  26.877  19.313  0.00  0.00     0.084 H 
ATOM      6  C58 073 d   1      24.948  29.546  20.881  0.00  0.00     0.039 A 
ATOM      7  H4  073 d   1      25.351  27.425  20.904  0.00  0.00     0.085 H 
ATOM      8  C59 073 d   1      24.142  30.562  20.359  0.00  0.00    -0.067 A 
ATOM      9  C60 073 d   1      23.118  30.260  19.461  0.00  0.00    -0.073 A 
ATOM     10  H6  073 d   1      24.314  31.591  20.654  0.00  0.00     0.085 H 
ATOM     11  H7  073 d   1      22.499  31.052  19.056  0.00  0.00     0.084 H 
BRANCH   6  12
ATOM     12  C65 073 d   1      26.038  29.901  21.876  0.00  0.00     0.292 C 
ATOM     13  O71 073 d   1      26.830  29.064  22.287  0.00  0.00    -0.259 OA
BRANCH  12  14
ATOM     14  O66 073 d   1      26.115  31.257  22.414  0.00  0.00    -0.323 OA
BRANCH  14  15
ATOM     15  C67 073 d   1      27.054  31.625  23.438  0.00  0.00     0.013 C 
ATOM     16  H1  073 d   1      26.930  32.690  23.684  0.00  0.00     0.067 H 
ATOM     17  H2  073 d   1      28.078  31.449  23.077  0.00  0.00     0.067 H 
ATOM     18  H3  073 d   1      26.873  31.018  24.337  0.00  0.00     0.067 H 
ENDBRANCH  14  15
ENDBRANCH  12  14
ENDBRANCH   6  12
ENDBRANCH   1   2
BRANCH   1  19
ATOM     19  N12 073 d   1      20.915  27.518  18.797  0.00  0.00    -0.257 N 
ATOM     20  N23 073 d   1      20.367  26.475  18.047  0.00  0.00     0.007 NA
ATOM     21  N22 073 d   1      19.639  25.733  18.976  0.00  0.00    -0.158 NA
ATOM     22  C18 073 d   1      19.735  26.315  20.198  0.00  0.00     0.102 A 
ATOM     23  C17 073 d   1      19.188  25.938  21.426  0.00  0.00    -0.052 A 
ATOM     24  C19 073 d   1      20.538  27.458  20.102  0.00  0.00     0.080 A 
ATOM     25  C16 073 d   1      19.430  26.701  22.572  0.00  0.00    -0.081 A 
ATOM     26  H8  073 d   1      18.572  25.048  21.491  0.00  0.00     0.087 H 
ATOM     27  C21 073 d   1      20.235  27.840  22.490  0.00  0.00    -0.081 A 
ATOM     28  H11 073 d   1      18.995  26.410  23.521  0.00  0.00     0.083 H 
ATOM     29  C20 073 d   1      20.787  28.219  21.257  0.00  0.00    -0.053 A 
ATOM     30  H10 073 d   1      20.433  28.430  23.378  0.00  0.00     0.083 H 
ATOM     31  H9  073 d   1      21.409  29.104  21.195  0.00  0.00     0.087 H 
ENDBRANCH   1  19
BRANCH   1  32
ATOM     32  C13 073 d   1      22.413  28.004  16.848  0.00  0.00    -0.012 C 
ATOM     33  H12 073 d   1      21.606  27.576  16.235  0.00  0.00     0.044 H 
ATOM     34  H13 073 d   1      23.107  27.206  17.151  0.00  0.00     0.044 H 
BRANCH  32  35
ATOM     35  C2  073 d   1      23.185  28.974  15.974  0.00  0.00    -0.055 A 
ATOM     36  C3  073 d   1      22.521  29.722  14.998  0.00  0.00    -0.076 A 
ATOM     37  C4  073 d   1      23.229  30.584  14.172  0.00  0.00    -0.070 A 
ATOM     38  H14 073 d   1      21.447  29.628  14.885  0.00  0.00     0.084 H 
ATOM     39  C5  073 d   1      24.618  30.712  14.289  0.00  0.00     0.027 A 
ATOM     40  H15 073 d   1      22.699  31.166  13.426  0.00  0.00     0.084 H 
ATOM     41  C6  073 d   1      25.281  29.965  15.260  0.00  0.00    -0.070 A 
ATOM     42  C1  073 d   1      24.576  29.083  16.088  0.00  0.00    -0.076 A 
ATOM     43  H16 073 d   1      26.354  30.068  15.376  0.00  0.00     0.084 H 
ATOM     44  H17 073 d   1      25.108  28.484  16.818  0.00  0.00     0.084 H 
BRANCH  39  45
ATOM     45  C28 073 d   1      25.362  31.666  13.391  0.00  0.00     0.380 C 
ATOM     46  F30 073 d   1      24.577  32.721  13.220  0.00  0.00    -0.185 F 
ATOM     47  F29 073 d   1      26.454  32.109  14.000  0.00  0.00    -0.185 F 
BRANCH  45  48
ATOM     48  P31 073 d   1      25.849  30.977  11.726  0.00  0.00     0.339 P 
ATOM     49  O34 073 d   1      26.870  29.905  11.924  0.00  0.00    -0.635 OA
ATOM     50  O33 073 d   1      24.569  30.454  11.144  0.00  0.00    -0.635 OA
ATOM     51  O32 073 d   1      26.400  32.229  11.107  0.00  0.00    -0.635 OA
ENDBRANCH  45  48
ENDBRANCH  39  45
ENDBRANCH  32  35
ENDBRANCH   1  32
BRANCH   1  52
ATOM     52  C37 073 d   1      20.856  29.790  17.874  0.00  0.00    -0.020 C 
ATOM     53  H18 073 d   1      21.445  30.559  17.352  0.00  0.00     0.043 H 
ATOM     54  H19 073 d   1      20.517  30.183  18.844  0.00  0.00     0.043 H 
BRANCH  52  55
ATOM     55  C38 073 d   1      19.622  29.473  17.027  0.00  0.00    -0.100 C 
ATOM     56  C41 073 d   1      19.176  30.306  16.072  0.00  0.00    -0.077 C 
ATOM     57  H21 073 d   1      19.724  31.230  15.891  0.00  0.00     0.084 H 
ATOM     58  H20 073 d   1      19.087  28.541  17.204  0.00  0.00     0.076 H 
BRANCH  56  59
ATOM     59  C43 073 d   1      17.962  30.023  15.246  0.00  0.00    -0.036 A 
ATOM     60  C49 073 d   1      17.415  31.045  14.476  0.00  0.00    -0.073 A 
ATOM     61  C48 073 d   1      16.282  30.816  13.689  0.00  0.00    -0.082 A 
ATOM     62  H22 073 d   1      17.872  32.028  14.486  0.00  0.00     0.084 H 
ATOM     63  C47 073 d   1      15.675  29.562  13.684  0.00  0.00    -0.083 A 
ATOM     64  H23 073 d   1      15.875  31.616  13.081  0.00  0.00     0.083 H 
ATOM     65  C46 073 d   1      16.217  28.524  14.455  0.00  0.00    -0.082 A 
ATOM     66  H24 073 d   1      14.787  29.390  13.086  0.00  0.00     0.083 H 
ATOM     67  C45 073 d   1      17.351  28.761  15.240  0.00  0.00    -0.073 A 
ATOM     68  H25 073 d   1      15.759  27.541  14.443  0.00  0.00     0.083 H 
ATOM     69  H26 073 d   1      17.760  27.963  15.848  0.00  0.00     0.084 H 
ENDBRANCH  56  59
ENDBRANCH  52  55
ENDBRANCH   1  52
TORSDOF 12
