REMARK  12 active torsions:
REMARK  status: ('A' for Active; 'I' for Inactive)
REMARK    1  A    between atoms: C65_2  and  O66_3 
REMARK    2  A    between atoms: C65_2  and  C58_5 
REMARK    3  A    between atoms: O66_3  and  C67_4 
REMARK    4  A    between atoms: C55_10  and  C11_11 
REMARK    5  A    between atoms: C11_11  and  N12_12 
REMARK    6  A    between atoms: C11_11  and  C13_21 
REMARK    7  A    between atoms: C11_11  and  C37_35 
REMARK    8  A    between atoms: C13_21  and  C2_22 
REMARK    9  A    between atoms: C5_25  and  C28_26 
REMARK   10  A    between atoms: C28_26  and  P31_28 
REMARK   11  A    between atoms: C37_35  and  C38_36 
REMARK   12  A    between atoms: C41_37  and  C43_38 
ROOT
ATOM      1  C11 073 d   1      37.543  44.787  52.975  0.00  0.00     0.086 C 
ENDROOT
BRANCH   1   2
ATOM      2  C55 073 d   1      37.070  46.154  53.655  0.00  0.00    -0.028 A 
ATOM      3  C56 073 d   1      38.113  47.045  54.078  0.00  0.00    -0.073 A 
ATOM      4  C57 073 d   1      37.823  48.282  54.680  0.00  0.00    -0.067 A 
ATOM      5  H5  073 d   1      39.148  46.758  53.930  0.00  0.00     0.084 H 
ATOM      6  C58 073 d   1      36.475  48.679  54.884  0.00  0.00     0.039 A 
ATOM      7  H4  073 d   1      38.631  48.935  54.989  0.00  0.00     0.085 H 
ATOM      8  C59 073 d   1      35.422  47.816  54.477  0.00  0.00    -0.067 A 
ATOM      9  C60 073 d   1      35.719  46.582  53.877  0.00  0.00    -0.073 A 
ATOM     10  H6  073 d   1      34.390  48.110  54.630  0.00  0.00     0.085 H 
ATOM     11  H7  073 d   1      34.905  45.934  53.573  0.00  0.00     0.084 H 
BRANCH   6  12
ATOM     12  C65 073 d   1      36.197  49.980  55.517  0.00  0.00     0.292 C 
ATOM     13  O71 073 d   1      35.203  50.602  55.282  0.00  0.00    -0.259 OA
BRANCH  12  14
ATOM     14  O66 073 d   1      37.131  50.410  56.359  0.00  0.00    -0.323 OA
BRANCH  14  15
ATOM     15  C67 073 d   1      36.844  50.406  57.773  0.00  0.00     0.013 C 
ATOM     16  H1  073 d   1      37.715  50.789  58.325  0.00  0.00     0.067 H 
ATOM     17  H2  073 d   1      36.626  49.379  58.100  0.00  0.00     0.067 H 
ATOM     18  H3  073 d   1      35.973  51.047  57.972  0.00  0.00     0.067 H 
ENDBRANCH  14  15
ENDBRANCH  12  14
ENDBRANCH   6  12
ENDBRANCH   1   2
BRANCH   1  19
ATOM     19  N12 073 d   1      38.451  44.151  53.478  0.00  0.00    -0.257 N 
ATOM     20  N23 073 d   1      39.518  43.699  52.749  0.00  0.00     0.007 NA
ATOM     21  N22 073 d   1      40.224  43.071  53.693  0.00  0.00    -0.158 NA
ATOM     22  C18 073 d   1      39.750  43.052  54.964  0.00  0.00     0.102 A 
ATOM     23  C17 073 d   1      40.217  42.507  56.132  0.00  0.00    -0.052 A 
ATOM     24  C19 073 d   1      38.512  43.789  54.892  0.00  0.00     0.080 A 
ATOM     25  C16 073 d   1      39.476  42.666  57.319  0.00  0.00    -0.081 A 
ATOM     26  H8  073 d   1      41.151  41.957  56.142  0.00  0.00     0.087 H 
ATOM     27  C21 073 d   1      38.248  43.388  57.302  0.00  0.00    -0.081 A 
ATOM     28  H11 073 d   1      39.840  42.239  58.246  0.00  0.00     0.083 H 
ATOM     29  C20 073 d   1      37.779  43.943  56.088  0.00  0.00    -0.053 A 
ATOM     30  H10 073 d   1      37.676  43.511  58.214  0.00  0.00     0.083 H 
ATOM     31  H9  073 d   1      36.845  44.493  56.076  0.00  0.00     0.087 H 
ENDBRANCH   1  19
BRANCH   1  32
ATOM     32  C13 073 d   1      37.904  45.337  51.509  0.00  0.00    -0.012 C 
ATOM     33  H12 073 d   1      38.192  44.448  50.929  0.00  0.00     0.044 H 
ATOM     34  H13 073 d   1      38.783  45.983  51.650  0.00  0.00     0.044 H 
BRANCH  32  35
ATOM     35  C2  073 d   1      36.967  46.126  50.598  0.00  0.00    -0.055 A 
ATOM     36  C3  073 d   1      36.164  45.442  49.666  0.00  0.00    -0.076 A 
ATOM     37  C4  073 d   1      35.265  46.126  48.836  0.00  0.00    -0.070 A 
ATOM     38  H14 073 d   1      36.242  44.364  49.589  0.00  0.00     0.084 H 
ATOM     39  C5  073 d   1      35.132  47.543  48.906  0.00  0.00     0.027 A 
ATOM     40  H15 073 d   1      34.661  45.568  48.130  0.00  0.00     0.084 H 
ATOM     41  C6  073 d   1      35.947  48.248  49.834  0.00  0.00    -0.070 A 
ATOM     42  C1  073 d   1      36.849  47.544  50.666  0.00  0.00    -0.076 A 
ATOM     43  H16 073 d   1      35.877  49.328  49.904  0.00  0.00     0.084 H 
ATOM     44  H17 073 d   1      37.463  48.095  51.370  0.00  0.00     0.084 H 
BRANCH  39  45
ATOM     45  C28 073 d   1      34.132  48.259  48.037  0.00  0.00     0.380 C 
ATOM     46  F30 073 d   1      33.098  47.429  47.941  0.00  0.00    -0.185 F 
ATOM     47  F29 073 d   1      33.743  49.400  48.640  0.00  0.00    -0.185 F 
BRANCH  45  48
ATOM     48  P31 073 d   1      34.665  48.738  46.333  0.00  0.00     0.339 P 
ATOM     49  O34 073 d   1      35.820  49.749  46.446  0.00  0.00    -0.635 OA
ATOM     50  O33 073 d   1      35.070  47.495  45.664  0.00  0.00    -0.635 OA
ATOM     51  O32 073 d   1      33.470  49.413  45.619  0.00  0.00    -0.635 OA
ENDBRANCH  45  48
ENDBRANCH  39  45
ENDBRANCH  32  35
ENDBRANCH   1  32
BRANCH   1  52
ATOM     52  C37 073 d   1      36.277  43.906  52.792  0.00  0.00    -0.020 C 
ATOM     53  H18 073 d   1      35.520  44.497  52.256  0.00  0.00     0.043 H 
ATOM     54  H19 073 d   1      35.895  43.639  53.788  0.00  0.00     0.043 H 
BRANCH  52  55
ATOM     55  C38 073 d   1      36.520  42.623  52.014  0.00  0.00    -0.100 C 
ATOM     56  C41 073 d   1      35.576  42.026  51.259  0.00  0.00    -0.077 C 
ATOM     57  H21 073 d   1      34.596  42.498  51.211  0.00  0.00     0.084 H 
ATOM     58  H20 073 d   1      37.506  42.163  52.069  0.00  0.00     0.076 H 
BRANCH  56  59
ATOM     59  C43 073 d   1      35.773  40.776  50.491  0.00  0.00    -0.036 A 
ATOM     60  C49 073 d   1      35.043  40.534  49.307  0.00  0.00    -0.073 A 
ATOM     61  C48 073 d   1      35.237  39.336  48.583  0.00  0.00    -0.082 A 
ATOM     62  H22 073 d   1      34.331  41.270  48.952  0.00  0.00     0.084 H 
ATOM     63  C47 073 d   1      36.160  38.364  49.031  0.00  0.00    -0.083 A 
ATOM     64  H23 073 d   1      34.672  39.161  47.675  0.00  0.00     0.083 H 
ATOM     65  C46 073 d   1      36.902  38.586  50.217  0.00  0.00    -0.082 A 
ATOM     66  H24 073 d   1      36.300  37.449  48.467  0.00  0.00     0.083 H 
ATOM     67  C45 073 d   1      36.711  39.794  50.952  0.00  0.00    -0.073 A 
ATOM     68  H25 073 d   1      37.611  37.843  50.564  0.00  0.00     0.083 H 
ATOM     69  H26 073 d   1      37.276  39.970  51.860  0.00  0.00     0.084 H 
ENDBRANCH  56  59
ENDBRANCH  52  55
ENDBRANCH   1  52
TORSDOF 12
