REMARK  8 active torsions:
REMARK  status: ('A' for Active; 'I' for Inactive)
REMARK    1  A    between atoms: C4_4  and  C14_10 
REMARK    2  A    between atoms: C17_13  and  C24_16 
REMARK    3  A    between atoms: C24_16  and  C25_17 
REMARK    4  A    between atoms: C24_16  and  C28_20 
REMARK    5  A    between atoms: C25_17  and  C26_18 
REMARK    6  A    between atoms: C25_17  and  N30_21 
REMARK       I    between atoms: C26_18  and  N27_19 
REMARK       I    between atoms: C28_20  and  N34_24 
REMARK    7  A    between atoms: N34_24  and  C35_25 
REMARK    8  A    between atoms: N34_24  and  C39_26 
ROOT
ATOM      1  C24 S14 d   1      39.318  51.486  36.572  0.00  0.00     0.085 C 
ATOM      2  H9  S14 d   1      39.028  52.495  36.901  0.00  0.00     0.066 H 
ENDROOT
BRANCH   1   3
ATOM      3  C17 S14 d   1      40.778  51.471  36.063  0.00  0.00    -0.043 A 
ATOM      4  C16 S14 d   1      41.282  52.658  35.482  0.00  0.00    -0.075 A 
ATOM      5  C15 S14 d   1      42.598  52.738  35.028  0.00  0.00    -0.072 A 
ATOM      6  H6  S14 d   1      40.633  53.521  35.388  0.00  0.00     0.084 H 
ATOM      7  C14 S14 d   1      43.482  51.633  35.137  0.00  0.00    -0.025 A 
ATOM      8  H5  S14 d   1      42.952  53.661  34.584  0.00  0.00     0.084 H 
ATOM      9  C19 S14 d   1      43.004  50.411  35.708  0.00  0.00    -0.072 A 
ATOM     10  C18 S14 d   1      41.662  50.336  36.166  0.00  0.00    -0.075 A 
ATOM     11  H8  S14 d   1      43.660  49.552  35.790  0.00  0.00     0.084 H 
ATOM     12  H7  S14 d   1      41.297  49.412  36.599  0.00  0.00     0.084 H 
BRANCH   7  13
ATOM     13  C4  S14 d   1      44.874  51.804  34.672  0.00  0.00    -0.008 A 
ATOM     14  C3  S14 d   1      45.199  52.472  33.370  0.00  0.00    -0.067 A 
ATOM     15  C2  S14 d   1      46.492  52.656  32.959  0.00  0.00    -0.036 A 
ATOM     16  H2  S14 d   1      44.386  52.820  32.735  0.00  0.00     0.085 H 
ATOM     17  C1  S14 d   1      47.575  52.153  33.822  0.00  0.00     0.151 A 
ATOM     18  H1  S14 d   1      46.714  53.160  32.020  0.00  0.00     0.089 H 
ATOM     19  N6  S14 d   1      47.284  51.554  35.012  0.00  0.00    -0.225 N 
ATOM     20  N9  S14 d   1      48.902  52.215  33.667  0.00  0.00    -0.221 NA
ATOM     21  C5  S14 d   1      45.894  51.348  35.453  0.00  0.00     0.017 A 
ATOM     22  N7  S14 d   1      48.329  51.205  35.590  0.00  0.00    -0.160 NA
ATOM     23  H3  S14 d   1      45.684  50.838  36.392  0.00  0.00     0.116 H 
ATOM     24  C8  S14 d   1      49.329  51.606  34.791  0.00  0.00     0.108 A 
ATOM     25  H4  S14 d   1      50.381  51.455  35.027  0.00  0.00     0.149 H 
ENDBRANCH   7  13
ENDBRANCH   1   3
BRANCH   1  26
ATOM     26  C25 S14 d   1      38.346  50.990  35.442  0.00  0.00     0.191 C 
ATOM     27  H10 S14 d   1      38.607  49.957  35.169  0.00  0.00     0.101 H 
BRANCH  26  28
ATOM     28  C26 S14 d   1      36.897  51.030  36.024  0.00  0.00     0.251 C 
ATOM     29  N27 S14 d   1      36.122  49.968  35.796  0.00  0.00    -0.348 N 
ATOM     30  C43 S14 d   1      36.569  48.548  35.469  0.00  0.00     0.026 C 
ATOM     31  C46 S14 d   1      34.686  50.013  35.968  0.00  0.00     0.000 C 
ATOM     32  C44 S14 d   1      35.362  47.686  35.516  0.00  0.00     0.096 C 
ATOM     33  H20 S14 d   1      37.306  48.205  36.210  0.00  0.00     0.068 H 
ATOM     34  H21 S14 d   1      37.016  48.516  34.465  0.00  0.00     0.068 H 
ATOM     35  C45 S14 d   1      34.187  48.637  35.525  0.00  0.00    -0.020 C 
ATOM     36  F53 S14 d   1      35.367  47.021  36.724  0.00  0.00    -0.248 F 
ATOM     37  H22 S14 d   1      35.321  46.986  34.668  0.00  0.00     0.094 H 
ATOM     38  H23 S14 d   1      33.421  48.275  36.227  0.00  0.00     0.039 H 
ATOM     39  H24 S14 d   1      33.756  48.705  34.515  0.00  0.00     0.039 H 
ATOM     40  H25 S14 d   1      34.247  50.803  35.341  0.00  0.00     0.064 H 
ATOM     41  H26 S14 d   1      34.429  50.196  37.022  0.00  0.00     0.064 H 
ATOM     42  O32 S14 d   1      36.510  51.996  36.663  0.00  0.00    -0.271 OA
ENDBRANCH  26  28
BRANCH  26  43
ATOM     43  N30 S14 d   1      38.422  51.823  34.248  0.00  0.00    -0.065 N 
ATOM     44  H11 S14 d   1      37.785  51.470  33.551  0.00  0.00     0.275 HD
ATOM     45  H12 S14 d   1      39.362  51.804  33.884  0.00  0.00     0.275 HD
ATOM     46  H13 S14 d   1      38.172  52.771  34.483  0.00  0.00     0.275 HD
ENDBRANCH  26  43
ENDBRANCH   1  26
BRANCH   1  47
ATOM     47  C28 S14 d   1      39.294  50.453  37.798  0.00  0.00     0.230 C 
ATOM     48  O33 S14 d   1      38.665  49.386  37.800  0.00  0.00    -0.273 OA
ATOM     49  N34 S14 d   1      39.903  50.955  38.983  0.00  0.00    -0.360 N 
BRANCH  49  50
ATOM     50  C35 S14 d   1      39.898  50.039  40.150  0.00  0.00    -0.017 C 
ATOM     51  H14 S14 d   1      40.391  50.529  41.003  0.00  0.00     0.056 H 
ATOM     52  H15 S14 d   1      40.439  49.116  39.894  0.00  0.00     0.056 H 
ATOM     53  H16 S14 d   1      38.860  49.793  40.419  0.00  0.00     0.056 H 
ENDBRANCH  49  50
BRANCH  49  54
ATOM     54  C39 S14 d   1      40.509  52.283  39.186  0.00  0.00    -0.017 C 
ATOM     55  H17 S14 d   1      40.449  52.860  38.251  0.00  0.00     0.056 H 
ATOM     56  H18 S14 d   1      41.563  52.164  39.477  0.00  0.00     0.056 H 
ATOM     57  H19 S14 d   1      39.967  52.816  39.981  0.00  0.00     0.056 H 
ENDBRANCH  49  54
ENDBRANCH   1  47
TORSDOF 8
