REMARK  4 active torsions:
REMARK  status: ('A' for Active; 'I' for Inactive)
REMARK    1  A    between atoms: C3_3  and  C10_7 
REMARK       I    between atoms: N12_9  and  C8_18 
REMARK    2  A    between atoms: C13_10  and  C17_12 
REMARK       I    between atoms: C8_18  and  N1_19 
REMARK    3  A    between atoms: N1_19  and  C35_20 
REMARK    4  A    between atoms: N1_19  and  C26_25 
ROOT
ATOM      1  C10 N2T d   1      19.731  14.607 108.140  0.00  0.00    -0.028 C 
ATOM      2  C11 N2T d   1      18.519  15.494 108.176  0.00  0.00     0.025 C 
ATOM      3  N12 N2T d   1      17.786  15.050 109.394  0.00  0.00    -0.318 N 
ATOM      4  C13 N2T d   1      18.443  13.943 110.054  0.00  0.00     0.059 C 
ATOM      5  C14 N2T d   1      19.528  13.516 109.110  0.00  0.00    -0.068 C 
ATOM      6  C8  N2T d   1      16.538  15.520 109.626  0.00  0.00     0.321 C 
ATOM      7  N1  N2T d   1      16.481  16.890 109.704  0.00  0.00    -0.334 N 
ATOM      8  O2  N2T d   1      15.581  14.758 109.729  0.00  0.00    -0.247 OA
ATOM      9  H4  N2T d   1      17.903  15.352 107.275  0.00  0.00     0.071 H 
ATOM     10  H5  N2T d   1      18.810  16.552 108.258  0.00  0.00     0.071 H 
ATOM     11  H6  N2T d   1      17.709  13.181 109.754  0.00  0.00     0.087 H 
ATOM     12  H7  N2T d   1      20.068  12.571 109.137  0.00  0.00     0.081 H 
ENDROOT
BRANCH   4  13
ATOM     13  C17 N2T d   1      18.355  13.546 111.486  0.00  0.00    -0.032 A 
ATOM     14  C19 N2T d   1      17.459  12.473 111.906  0.00  0.00    -0.075 A 
ATOM     15  C20 N2T d   1      17.430  12.046 113.292  0.00  0.00    -0.082 A 
ATOM     16  H8  N2T d   1      16.813  11.993 111.180  0.00  0.00     0.084 H 
ATOM     17  C21 N2T d   1      18.315  12.724 114.238  0.00  0.00    -0.083 A 
ATOM     18  H9  N2T d   1      16.772  11.248 113.617  0.00  0.00     0.083 H 
ATOM     19  C22 N2T d   1      19.230  13.790 113.846  0.00  0.00    -0.082 A 
ATOM     20  H10 N2T d   1      18.290  12.421 115.278  0.00  0.00     0.083 H 
ATOM     21  C23 N2T d   1      19.225  14.215 112.445  0.00  0.00    -0.075 A 
ATOM     22  H11 N2T d   1      19.892  14.253 114.569  0.00  0.00     0.083 H 
ATOM     23  H12 N2T d   1      19.867  15.026 112.121  0.00  0.00     0.084 H 
ENDBRANCH   4  13
BRANCH   1  24
ATOM     24  C3  N2T d   1      20.906  14.922 107.292  0.00  0.00     0.013 A 
ATOM     25  C2  N2T d   1      20.905  16.134 106.499  0.00  0.00    -0.032 A 
ATOM     26  C1  N2T d   1      22.027  16.349 105.645  0.00  0.00     0.117 A 
ATOM     27  H1  N2T d   1      20.089  16.845 106.552  0.00  0.00     0.089 H 
ATOM     28  C6  N2T d   1      23.120  15.448 105.506  0.00  0.00    -0.043 A 
ATOM     29  F41 N2T d   1      22.056  17.431 104.933  0.00  0.00    -0.206 F 
ATOM     30  C5  N2T d   1      23.153  14.268 106.312  0.00  0.00    -0.042 A 
ATOM     31  H3  N2T d   1      23.916  15.654 104.799  0.00  0.00     0.088 H 
ATOM     32  C4  N2T d   1      22.027  14.056 107.195  0.00  0.00     0.127 A 
ATOM     33  H2  N2T d   1      23.979  13.568 106.264  0.00  0.00     0.088 H 
ATOM     34  F40 N2T d   1      21.950  12.998 107.980  0.00  0.00    -0.205 F 
ENDBRANCH   1  24
BRANCH   7  35
ATOM     35  C35 N2T d   1      15.355  17.730 109.403  0.00  0.00     0.019 C 
ATOM     36  C15 N2T d   1      14.103  17.376 110.207  0.00  0.00    -0.023 C 
ATOM     37  C9  N2T d   1      12.920  18.298 109.904  0.00  0.00     0.083 C 
ATOM     38  H14 N2T d   1      14.341  17.451 111.278  0.00  0.00     0.038 H 
ATOM     39  H15 N2T d   1      13.813  16.342 109.967  0.00  0.00     0.038 H 
ATOM     40  N2  N2T d   1      12.639  18.258 108.436  0.00  0.00    -0.075 N 
ATOM     41  H21 N2T d   1      13.167  19.327 110.205  0.00  0.00     0.075 H 
ATOM     42  H22 N2T d   1      12.034  17.956 110.459  0.00  0.00     0.075 H 
ATOM     43  C16 N2T d   1      13.796  18.617 107.594  0.00  0.00     0.083 C 
ATOM     44  H25 N2T d   1      11.891  18.904 108.239  0.00  0.00     0.277 HD
ATOM     45  H26 N2T d   1      12.349  17.323 108.194  0.00  0.00     0.277 HD
ATOM     46  C12 N2T d   1      14.952  17.668 107.938  0.00  0.00    -0.023 C 
ATOM     47  H23 N2T d   1      13.531  18.511 106.532  0.00  0.00     0.075 H 
ATOM     48  H24 N2T d   1      14.095  19.656 107.795  0.00  0.00     0.075 H 
ATOM     49  H19 N2T d   1      14.643  16.639 107.703  0.00  0.00     0.038 H 
ATOM     50  H20 N2T d   1      15.823  17.939 107.323  0.00  0.00     0.038 H 
ATOM     51  H13 N2T d   1      15.645  18.763 109.645  0.00  0.00     0.073 H 
ENDBRANCH   7  35
BRANCH   7  52
ATOM     52  C26 N2T d   1      17.649  17.670 110.107  0.00  0.00    -0.014 C 
ATOM     53  H16 N2T d   1      18.485  16.990 110.328  0.00  0.00     0.056 H 
ATOM     54  H17 N2T d   1      17.406  18.256 111.005  0.00  0.00     0.056 H 
ATOM     55  H18 N2T d   1      17.935  18.351 109.291  0.00  0.00     0.056 H 
ENDBRANCH   7  52
TORSDOF 4
