REMARK  5 active torsions:
REMARK  status: ('A' for Active; 'I' for Inactive)
REMARK    1  A    between atoms: C3_3  and  C10_7 
REMARK       I    between atoms: N12_9  and  C8_18 
REMARK    2  A    between atoms: C13_10  and  C17_12 
REMARK    3  A    between atoms: C8_18  and  C7_19 
REMARK    4  A    between atoms: C7_19  and  C35_20 
REMARK    5  A    between atoms: C7_19  and  N1_25 
ROOT
ATOM      1  C10 N4T d   1      19.513  14.822 107.857  0.00  0.00    -0.028 C 
ATOM      2  C11 N4T d   1      18.441  15.897 108.165  0.00  0.00     0.023 C 
ATOM      3  N12 N4T d   1      17.376  15.141 108.826  0.00  0.00    -0.334 N 
ATOM      4  C13 N4T d   1      17.907  13.844 109.264  0.00  0.00     0.058 C 
ATOM      5  C14 N4T d   1      18.977  13.668 108.370  0.00  0.00    -0.068 C 
ATOM      6  C8  N4T d   1      16.121  15.485 109.235  0.00  0.00     0.252 C 
ATOM      7  O2  N4T d   1      15.257  14.710 109.643  0.00  0.00    -0.271 OA
ATOM      8  H4  N4T d   1      18.075  16.363 107.239  0.00  0.00     0.071 H 
ATOM      9  H5  N4T d   1      18.844  16.674 108.832  0.00  0.00     0.071 H 
ATOM     10  H6  N4T d   1      17.166  13.122 108.890  0.00  0.00     0.087 H 
ATOM     11  H7  N4T d   1      19.355  12.682 108.103  0.00  0.00     0.081 H 
ENDROOT
BRANCH   4  12
ATOM     12  C17 N4T d   1      17.888  13.467 110.704  0.00  0.00    -0.032 A 
ATOM     13  C19 N4T d   1      16.985  12.478 111.275  0.00  0.00    -0.075 A 
ATOM     14  C20 N4T d   1      17.027  12.227 112.681  0.00  0.00    -0.082 A 
ATOM     15  H8  N4T d   1      16.290  11.939 110.642  0.00  0.00     0.084 H 
ATOM     16  C21 N4T d   1      17.977  12.935 113.474  0.00  0.00    -0.083 A 
ATOM     17  H9  N4T d   1      16.350  11.513 113.136  0.00  0.00     0.083 H 
ATOM     18  C22 N4T d   1      18.829  13.934 112.934  0.00  0.00    -0.082 A 
ATOM     19  H10 N4T d   1      18.052  12.701 114.530  0.00  0.00     0.083 H 
ATOM     20  C23 N4T d   1      18.782  14.204 111.569  0.00  0.00    -0.075 A 
ATOM     21  H11 N4T d   1      19.509  14.481 113.578  0.00  0.00     0.083 H 
ATOM     22  H12 N4T d   1      19.421  14.973 111.151  0.00  0.00     0.084 H 
ENDBRANCH   4  12
BRANCH   6  23
ATOM     23  C7  N4T d   1      15.587  16.906 109.145  0.00  0.00     0.179 C 
ATOM     24  H13 N4T d   1      16.236  17.301 108.349  0.00  0.00     0.099 H 
BRANCH  23  25
ATOM     25  C35 N4T d   1      15.979  17.751 110.130  0.00  0.00    -0.018 A 
ATOM     26  C15 N4T d   1      15.778  19.194 109.975  0.00  0.00    -0.059 A 
ATOM     27  C12 N4T d   1      17.130  18.646 110.142  0.00  0.00    -0.059 A 
ATOM     28  H15 N4T d   1      15.315  19.776 110.786  0.00  0.00     0.033 H 
ATOM     29  H16 N4T d   1      15.466  19.606 109.004  0.00  0.00     0.033 H 
ATOM     30  H20 N4T d   1      17.833  18.649 109.296  0.00  0.00     0.033 H 
ATOM     31  H21 N4T d   1      17.682  18.820 111.078  0.00  0.00     0.033 H 
ATOM     32  H14 N4T d   1      15.717  17.273 111.085  0.00  0.00     0.043 H 
ENDBRANCH  23  25
BRANCH  23  33
ATOM     33  N1  N4T d   1      14.321  16.989 108.437  0.00  0.00    -0.066 N 
ATOM     34  H17 N4T d   1      14.269  16.249 107.754  0.00  0.00     0.275 HD
ATOM     35  H18 N4T d   1      14.254  17.881 107.972  0.00  0.00     0.275 HD
ATOM     36  H19 N4T d   1      13.562  16.894 109.094  0.00  0.00     0.275 HD
ENDBRANCH  23  33
ENDBRANCH   6  23
BRANCH   1  37
ATOM     37  C3  N4T d   1      20.762  15.056 107.110  0.00  0.00     0.013 A 
ATOM     38  C2  N4T d   1      20.793  16.155 106.231  0.00  0.00    -0.032 A 
ATOM     39  C1  N4T d   1      21.982  16.379 105.539  0.00  0.00     0.117 A 
ATOM     40  H1  N4T d   1      19.931  16.798 106.098  0.00  0.00     0.089 H 
ATOM     41  C6  N4T d   1      23.129  15.556 105.631  0.00  0.00    -0.043 A 
ATOM     42  F41 N4T d   1      22.009  17.508 104.836  0.00  0.00    -0.206 F 
ATOM     43  C5  N4T d   1      23.120  14.470 106.499  0.00  0.00    -0.042 A 
ATOM     44  H3  N4T d   1      24.006  15.770 105.031  0.00  0.00     0.088 H 
ATOM     45  C4  N4T d   1      21.930  14.242 107.216  0.00  0.00     0.127 A 
ATOM     46  H2  N4T d   1      23.987  13.830 106.618  0.00  0.00     0.088 H 
ATOM     47  F40 N4T d   1      21.901  13.162 108.026  0.00  0.00    -0.205 F 
ENDBRANCH   1  37
TORSDOF 5
