REMARK  4 active torsions:
REMARK  status: ('A' for Active; 'I' for Inactive)
REMARK    1  A    between atoms: C3_3  and  C10_7 
REMARK       I    between atoms: N12_9  and  C29_18 
REMARK    2  A    between atoms: C13_10  and  C17_12 
REMARK       I    between atoms: C29_18  and  N30_19 
REMARK    3  A    between atoms: N30_19  and  C31_20 
REMARK    4  A    between atoms: N30_19  and  C35_21 
ROOT
ATOM      1  C10 N5T d   1      19.357  14.923 108.040  0.00  0.00    -0.008 C 
ATOM      2  C11 N5T d   1      18.573  16.143 108.448  0.00  0.00     0.007 C 
ATOM      3  N12 N5T d   1      17.517  15.637 109.324  0.00  0.00    -0.325 N 
ATOM      4  C13 N5T d   1      17.859  14.286 109.757  0.00  0.00     0.042 C 
ATOM      5  C14 N5T d   1      18.819  13.749 108.729  0.00  0.00    -0.033 C 
ATOM      6  C29 N5T d   1      16.550  16.572 109.543  0.00  0.00     0.320 C 
ATOM      7  N30 N5T d   1      15.311  16.170 109.549  0.00  0.00    -0.343 N 
ATOM      8  O39 N5T d   1      16.785  17.776 109.706  0.00  0.00    -0.247 OA
ATOM      9  H4  N5T d   1      18.718  14.724 107.167  0.00  0.00     0.050 H 
ATOM     10  H5  N5T d   1      18.140  16.637 107.566  0.00  0.00     0.065 H 
ATOM     11  H6  N5T d   1      19.216  16.854 108.988  0.00  0.00     0.065 H 
ATOM     12  H7  N5T d   1      16.942  13.779 109.421  0.00  0.00     0.080 H 
ATOM     13  H8  N5T d   1      19.628  13.186 109.217  0.00  0.00     0.037 H 
ATOM     14  H9  N5T d   1      18.294  13.094 108.018  0.00  0.00     0.037 H 
ENDROOT
BRANCH   1  15
ATOM     15  C3  N5T d   1      20.523  15.076 107.118  0.00  0.00    -0.011 A 
ATOM     16  C2  N5T d   1      20.538  16.212 106.272  0.00  0.00    -0.036 A 
ATOM     17  C1  N5T d   1      21.682  16.343 105.450  0.00  0.00     0.117 A 
ATOM     18  H1  N5T d   1      19.728  16.932 106.255  0.00  0.00     0.089 H 
ATOM     19  C6  N5T d   1      22.778  15.426 105.367  0.00  0.00    -0.043 A 
ATOM     20  F41 N5T d   1      21.720  17.412 104.721  0.00  0.00    -0.206 F 
ATOM     21  C5  N5T d   1      22.803  14.297 106.208  0.00  0.00    -0.042 A 
ATOM     22  H3  N5T d   1      23.583  15.600 104.662  0.00  0.00     0.088 H 
ATOM     23  C4  N5T d   1      21.660  14.178 107.075  0.00  0.00     0.123 A 
ATOM     24  H2  N5T d   1      23.614  13.578 106.203  0.00  0.00     0.088 H 
ATOM     25  F40 N5T d   1      21.692  13.190 107.951  0.00  0.00    -0.206 F 
ENDBRANCH   1  15
BRANCH   4  26
ATOM     26  C17 N5T d   1      17.808  13.751 111.136  0.00  0.00    -0.035 A 
ATOM     27  C19 N5T d   1      16.839  12.717 111.502  0.00  0.00    -0.075 A 
ATOM     28  C20 N5T d   1      16.829  12.225 112.875  0.00  0.00    -0.082 A 
ATOM     29  H10 N5T d   1      16.144  12.325 110.768  0.00  0.00     0.084 H 
ATOM     30  C21 N5T d   1      17.762  12.797 113.834  0.00  0.00    -0.083 A 
ATOM     31  H11 N5T d   1      16.138  11.446 113.176  0.00  0.00     0.083 H 
ATOM     32  C22 N5T d   1      18.725  13.808 113.471  0.00  0.00    -0.082 A 
ATOM     33  H12 N5T d   1      17.732  12.450 114.861  0.00  0.00     0.083 H 
ATOM     34  C23 N5T d   1      18.765  14.273 112.099  0.00  0.00    -0.075 A 
ATOM     35  H13 N5T d   1      19.406  14.212 114.211  0.00  0.00     0.083 H 
ATOM     36  H14 N5T d   1      19.503  15.005 111.792  0.00  0.00     0.084 H 
ENDBRANCH   4  26
BRANCH   7  37
ATOM     37  C31 N5T d   1      14.488  17.400 109.514  0.00  0.00    -0.015 C 
ATOM     38  H15 N5T d   1      13.422  17.128 109.517  0.00  0.00     0.056 H 
ATOM     39  H16 N5T d   1      14.718  17.970 108.602  0.00  0.00     0.056 H 
ATOM     40  H17 N5T d   1      14.712  18.016 110.397  0.00  0.00     0.056 H 
ENDBRANCH   7  37
BRANCH   7  41
ATOM     41  C35 N5T d   1      14.841  14.788 109.453  0.00  0.00    -0.015 C 
ATOM     42  H18 N5T d   1      15.700  14.104 109.511  0.00  0.00     0.056 H 
ATOM     43  H19 N5T d   1      14.321  14.643 108.494  0.00  0.00     0.056 H 
ATOM     44  H20 N5T d   1      14.148  14.578 110.281  0.00  0.00     0.056 H 
ENDBRANCH   7  41
TORSDOF 4
