REMARK  5 active torsions:
REMARK  status: ('A' for Active; 'I' for Inactive)
REMARK    1  A    between atoms: C1_1  and  C7_7 
REMARK    2  A    between atoms: C7_7  and  N1_8 
REMARK    3  A    between atoms: C8_12  and  C5'_13 
REMARK    4  A    between atoms: C4'_14  and  O4'_15 
REMARK    5  A    between atoms: C3'_16  and  C1''_19 
ROOT
ATOM      1  C1  6NH d   1      12.714   8.912  47.516  0.00  0.00     0.009 A 
ATOM      2  C2  6NH d   1      12.467   7.545  47.233  0.00  0.00    -0.067 A 
ATOM      3  C3  6NH d   1      11.619   6.828  48.077  0.00  0.00    -0.052 A 
ATOM      4  C4  6NH d   1      11.066   7.515  49.153  0.00  0.00     0.086 A 
ATOM      5  C5  6NH d   1      11.295   8.841  49.425  0.00  0.00     0.063 A 
ATOM      6  C6  6NH d   1      12.136   9.593  48.598  0.00  0.00    -0.041 A 
ATOM      7  N3  6NH d   1      10.278   6.986  50.059  0.00  0.00    -0.227 NA
ATOM      8  N4  6NH d   1      10.650   9.214  50.538  0.00  0.00    -0.337 N 
ATOM      9  C8  6NH d   1      10.059   8.047  50.857  0.00  0.00     0.162 A 
ATOM     10  H1  6NH d   1      12.928   7.066  46.377  0.00  0.00     0.085 H 
ATOM     11  H2  6NH d   1      11.400   5.781  47.902  0.00  0.00     0.087 H 
ATOM     12  H3  6NH d   1      12.330  10.643  48.783  0.00  0.00     0.088 H 
ATOM     13  H8  6NH d   1      10.616  10.128  51.012  0.00  0.00     0.167 HD
ENDROOT
BRANCH   9  14
ATOM     14  C5' 6NH d   1       9.298   7.866  52.040  0.00  0.00     0.158 A 
ATOM     15  C4' 6NH d   1       8.810   6.626  52.432  0.00  0.00     0.129 A 
ATOM     16  C3' 6NH d   1       8.190   6.873  53.667  0.00  0.00     0.096 A 
ATOM     17  N2' 6NH d   1       8.244   8.167  54.010  0.00  0.00    -0.274 N 
ATOM     18  N1' 6NH d   1       8.958   8.805  52.924  0.00  0.00    -0.168 NA
ATOM     19  H10 6NH d   1       7.862   8.610  54.858  0.00  0.00     0.189 HD
BRANCH  15  20
ATOM     20  O4' 6NH d   1       8.950   5.475  51.681  0.00  0.00    -0.356 OA
ATOM     21  H9  6NH d   1       9.873   5.292  51.553  0.00  0.00     0.218 HD
ENDBRANCH  15  20
BRANCH  16  22
ATOM     22  C1' 6NH d   1       7.483   5.866  54.364  0.00  0.00    -0.005 A 
ATOM     23  C2' 6NH d   1       6.772   4.893  53.654  0.00  0.00    -0.071 A 
ATOM     24  C3' 6NH d   1       6.067   3.920  54.356  0.00  0.00    -0.082 A 
ATOM     25  H11 6NH d   1       6.770   4.897  52.570  0.00  0.00     0.084 H 
ATOM     26  C4' 6NH d   1       6.073   3.911  55.742  0.00  0.00    -0.083 A 
ATOM     27  H12 6NH d   1       5.509   3.164  53.815  0.00  0.00     0.083 H 
ATOM     28  C5' 6NH d   1       6.785   4.885  56.447  0.00  0.00    -0.082 A 
ATOM     29  H13 6NH d   1       5.524   3.147  56.280  0.00  0.00     0.083 H 
ATOM     30  C6' 6NH d   1       7.505   5.881  55.758  0.00  0.00    -0.071 A 
ATOM     31  H14 6NH d   1       6.783   4.874  57.531  0.00  0.00     0.083 H 
ATOM     32  H15 6NH d   1       8.061   6.639  56.297  0.00  0.00     0.084 H 
ENDBRANCH  16  22
ENDBRANCH   9  14
BRANCH   1  33
ATOM     33  C7  6NH d   1      13.607   9.599  46.682  0.00  0.00     0.102 C 
ATOM     34  N2  6NH d   1      14.356   8.966  45.747  0.00  0.00    -0.385 N 
ATOM     35  H6  6NH d   1      14.252   7.951  45.605  0.00  0.00     0.157 HD
ATOM     36  H7  6NH d   1      15.029   9.500  45.178  0.00  0.00     0.157 HD
BRANCH  33  37
ATOM     37  N1  6NH d   1      13.767  10.904  46.837  0.00  0.00    -0.385 N 
ATOM     38  H4  6NH d   1      14.421  11.418  46.230  0.00  0.00     0.157 HD
ATOM     39  H5  6NH d   1      13.238  11.405  47.565  0.00  0.00     0.157 HD
ENDBRANCH  33  37
ENDBRANCH   1  33
TORSDOF 5
