REMARK WARNING: 32 MAX_TORS EXCEEDED!!!
REMARK  70 active torsions:
REMARK  status: ('A' for Active; 'I' for Inactive)
REMARK    1  A    between atoms: N_1  and  CA_2 
REMARK    2  A    between atoms: CA_2  and  C_3 
REMARK    3  A    between atoms: CA_2  and  CB_5 
REMARK       I    between atoms: C_3  and  N_6 
REMARK    4  A    between atoms: N_6  and  CA_7 
REMARK    5  A    between atoms: CA_7  and  C_8 
REMARK    6  A    between atoms: CA_7  and  CB_10 
REMARK       I    between atoms: C_8  and  N_17 
REMARK    7  A    between atoms: CB_10  and  CG_11 
REMARK    8  A    between atoms: N_17  and  CA_18 
REMARK    9  A    between atoms: CA_18  and  C_19 
REMARK   10  A    between atoms: CA_18  and  CB_21 
REMARK       I    between atoms: C_19  and  N_28 
REMARK   11  A    between atoms: CB_21  and  CG_22 
REMARK   12  A    between atoms: N_28  and  CA_29 
REMARK   13  A    between atoms: CA_29  and  C_30 
REMARK   14  A    between atoms: CA_29  and  CB_32 
REMARK       I    between atoms: C_30  and  N_33 
REMARK   15  A    between atoms: N_33  and  CA_34 
REMARK   16  A    between atoms: CA_34  and  C_35 
REMARK   17  A    between atoms: CA_34  and  CB_37 
REMARK       I    between atoms: C_35  and  N_42 
REMARK   18  A    between atoms: CB_37  and  CG_38 
REMARK   19  A    between atoms: CG_38  and  CD_39 
REMARK       I    between atoms: CD_39  and  NE2_41 
REMARK   20  A    between atoms: N_42  and  CA_43 
REMARK   21  A    between atoms: CA_43  and  C_44 
REMARK   22  A    between atoms: CA_43  and  CB_46 
REMARK       I    between atoms: C_44  and  N_50 
REMARK   23  A    between atoms: CB_46  and  CG_47 
REMARK   24  A    between atoms: CG_47  and  CD1_48 
REMARK   25  A    between atoms: CG_47  and  CD2_49 
REMARK   26  A    between atoms: N_50  and  CA_51 
REMARK   27  A    between atoms: CA_51  and  C_52 
REMARK   28  A    between atoms: CA_51  and  CB_54 
REMARK       I    between atoms: C_52  and  N_59 
REMARK   29  A    between atoms: CB_54  and  CG_55 
REMARK   30  A    between atoms: CG_55  and  CD_56 
REMARK       I    between atoms: CD_56  and  NE2_58 
REMARK   31  A    between atoms: N_59  and  CA_60 
REMARK   32  A    between atoms: CA_60  and  C_61 
REMARK   33  A    between atoms: CA_60  and  CB_63 
REMARK       I    between atoms: C_61  and  N_67 
REMARK   34  A    between atoms: CB_63  and  CG_64 
REMARK   35  A    between atoms: CG_64  and  CD1_65 
REMARK   36  A    between atoms: CG_64  and  CD2_66 
REMARK   37  A    between atoms: N_67  and  CA_68 
REMARK   38  A    between atoms: CA_68  and  C_69 
REMARK   39  A    between atoms: CA_68  and  CB_71 
REMARK       I    between atoms: C_69  and  N_75 
REMARK   40  A    between atoms: CB_71  and  CG_72 
REMARK   41  A    between atoms: N_75  and  CA_76 
REMARK   42  A    between atoms: CA_76  and  C_77 
REMARK   43  A    between atoms: CA_76  and  CB_79 
REMARK       I    between atoms: C_77  and  N_80 
REMARK   44  A    between atoms: N_80  and  CA_81 
REMARK   45  A    between atoms: CA_81  and  C_82 
REMARK   46  A    between atoms: CA_81  and  CB_84 
REMARK       I    between atoms: C_82  and  N_89 
REMARK   47  A    between atoms: CB_84  and  CG_85 
REMARK   48  A    between atoms: CG_85  and  CD_86 
REMARK   49  A    between atoms: N_89  and  CA_90 
REMARK   50  A    between atoms: CA_90  and  C_91 
REMARK   51  A    between atoms: CA_90  and  CB_93 
REMARK       I    between atoms: C_91  and  N_96 
REMARK   52  A    between atoms: CB_93  and  OG1_94 
REMARK   53  A    between atoms: CB_93  and  CG2_95 
REMARK   54  A    between atoms: N_96  and  CA_97 
REMARK   55  A    between atoms: CA_97  and  C_98 
REMARK       I    between atoms: C_98  and  N_100 
REMARK   56  A    between atoms: N_100  and  CA_101 
REMARK   57  A    between atoms: CA_101  and  C_102 
REMARK   58  A    between atoms: CA_101  and  CB_104 
REMARK       I    between atoms: C_102  and  N_109 
REMARK   59  A    between atoms: CB_104  and  CG_105 
REMARK   60  A    between atoms: CG_105  and  CD_106 
REMARK   61  A    between atoms: N_109  and  CA_110 
REMARK   62  A    between atoms: CA_110  and  C_111 
REMARK   63  A    between atoms: CA_110  and  CB_113 
REMARK       I    between atoms: C_111  and  N_120 
REMARK   64  A    between atoms: CB_113  and  CG_114 
REMARK   65  A    between atoms: N_120  and  CA_121 
REMARK   66  A    between atoms: CA_121  and  C_122 
REMARK   67  A    between atoms: CA_121  and  CB_124 
REMARK   68  A    between atoms: CB_124  and  CG_125 
REMARK   69  A    between atoms: CG_125  and  CD1_126 
REMARK   70  A    between atoms: CG_125  and  CD2_127 
ROOT
ATOM      1  CA  LEU d   1       1.668   4.997  -0.840  0.00  0.00     0.089 C 
ATOM      2  H59 LEU d   1       1.903   4.772   0.211  0.00  0.00     0.087 H 
ENDROOT
BRANCH   1   3
ATOM      3  N   LEU d   1       0.218   5.028  -1.006  0.00  0.00    -0.346 N 
ATOM      4  C   GLN d   1      -0.632   5.564  -0.133  0.00  0.00     0.241 C 
ATOM      5  O   GLN d   1      -0.289   6.104   0.924  0.00  0.00    -0.271 OA
ATOM      6  H58 LEU d   1      -0.164   4.617  -1.834  0.00  0.00     0.163 HD
BRANCH   4   7
ATOM      7  CA  GLN d   1      -2.105   5.479  -0.510  0.00  0.00     0.090 C 
ATOM      8  H51 GLN d   1      -2.243   4.667  -1.240  0.00  0.00     0.087 H 
BRANCH   7   9
ATOM      9  N   GLN d   1      -2.901   5.186   0.679  0.00  0.00    -0.346 N 
ATOM     10  C   LEU d   1      -3.588   4.049   0.818  0.00  0.00     0.241 C 
ATOM     11  O   LEU d   1      -3.612   3.149  -0.029  0.00  0.00    -0.271 OA
ATOM     12  H50 GLN d   1      -2.933   5.861   1.416  0.00  0.00     0.163 HD
BRANCH  10  13
ATOM     13  CA  LEU d   1      -4.339   3.903   2.140  0.00  0.00     0.089 C 
ATOM     14  H40 LEU d   1      -4.663   4.898   2.479  0.00  0.00     0.087 H 
BRANCH  13  15
ATOM     15  N   LEU d   1      -5.525   3.051   1.999  0.00  0.00    -0.346 N 
ATOM     16  C   GLN d   1      -6.579   3.445   1.288  0.00  0.00     0.241 C 
ATOM     17  O   GLN d   1      -6.672   4.568   0.761  0.00  0.00    -0.271 OA
ATOM     18  H39 LEU d   1      -5.542   2.157   2.446  0.00  0.00     0.163 HD
BRANCH  16  19
ATOM     19  CA  GLN d   1      -7.713   2.421   1.148  0.00  0.00     0.090 C 
ATOM     20  H32 GLN d   1      -7.712   1.769   2.034  0.00  0.00     0.087 H 
BRANCH  19  21
ATOM     21  N   GLN d   1      -9.005   3.096   1.059  0.00  0.00    -0.346 N 
ATOM     22  C   ALA d   1      -9.447   3.912   2.004  0.00  0.00     0.240 C 
ATOM     23  O   ALA d   1      -8.876   4.073   3.082  0.00  0.00    -0.271 OA
ATOM     24  H31 GLN d   1      -9.577   2.936   0.255  0.00  0.00     0.163 HD
BRANCH  22  25
ATOM     25  CA  ALA d   1     -10.722   4.673   1.662  0.00  0.00     0.086 C 
ATOM     26  H27 ALA d   1     -11.323   4.045   0.988  0.00  0.00     0.086 H 
BRANCH  25  27
ATOM     27  N   ALA d   1     -11.518   4.968   2.832  0.00  0.00    -0.346 N 
ATOM     28  C   PHE d   1     -12.055   4.019   3.587  0.00  0.00     0.241 C 
ATOM     29  O   PHE d   1     -11.873   2.819   3.385  0.00  0.00    -0.271 OA
ATOM     30  H26 ALA d   1     -11.670   5.924   3.082  0.00  0.00     0.163 HD
BRANCH  28  31
ATOM     31  CA  PHE d   1     -12.903   4.518   4.759  0.00  0.00     0.093 C 
ATOM     32  H18 PHE d   1     -12.213   5.004   5.464  0.00  0.00     0.088 H 
BRANCH  31  33
ATOM     33  N   PHE d   1     -13.885   5.538   4.347  0.00  0.00    -0.346 N 
ATOM     34  C   PHE d   1     -14.718   5.348   3.324  0.00  0.00     0.241 C 
ATOM     35  O   PHE d   1     -14.768   4.296   2.687  0.00  0.00    -0.271 OA
ATOM     36  H17 PHE d   1     -13.927   6.400   4.852  0.00  0.00     0.163 HD
BRANCH  34  37
ATOM     37  CA  PHE d   1     -15.661   6.497   2.967  0.00  0.00     0.093 C 
ATOM     38  H9  PHE d   1     -16.677   6.196   3.263  0.00  0.00     0.088 H 
BRANCH  37  39
ATOM     39  N   PHE d   1     -15.363   7.759   3.639  0.00  0.00    -0.346 N 
ATOM     40  C   ALA d   1     -16.116   8.219   4.639  0.00  0.00     0.248 C 
ATOM     41  O   ALA d   1     -17.042   7.579   5.141  0.00  0.00    -0.271 OA
ATOM     42  H8  PHE d   1     -14.572   8.293   3.341  0.00  0.00     0.163 HD
BRANCH  40  43
ATOM     43  CA  ALA d   1     -15.770   9.613   5.159  0.00  0.00     0.172 C 
ATOM     44  H4  ALA d   1     -15.768   9.573   6.258  0.00  0.00     0.098 H 
BRANCH  43  45
ATOM     45  N   ALA d   1     -14.410  10.069   4.718  0.00  0.00    -0.067 N 
ATOM     46  H1  ALA d   1     -14.229  10.990   5.085  0.00  0.00     0.275 HD
ATOM     47  H2  ALA d   1     -14.375  10.096   3.711  0.00  0.00     0.275 HD
ATOM     48  H3  ALA d   1     -13.713   9.428   5.062  0.00  0.00     0.275 HD
ENDBRANCH  43  45
BRANCH  43  49
ATOM     49  CB  ALA d   1     -16.848  10.604   4.719  0.00  0.00    -0.042 C 
ATOM     50  H5  ALA d   1     -17.833  10.247   5.054  0.00  0.00     0.030 H 
ATOM     51  H6  ALA d   1     -16.842  10.689   3.622  0.00  0.00     0.030 H 
ATOM     52  H7  ALA d   1     -16.644  11.589   5.164  0.00  0.00     0.030 H 
ENDBRANCH  43  49
ENDBRANCH  40  43
ENDBRANCH  37  39
BRANCH  37  53
ATOM     53  CB  PHE d   1     -15.639   6.717   1.453  0.00  0.00    -0.014 C 
ATOM     54  H10 PHE d   1     -15.706   5.737   0.959  0.00  0.00     0.043 H 
ATOM     55  H11 PHE d   1     -14.687   7.199   1.186  0.00  0.00     0.043 H 
BRANCH  53  56
ATOM     56  CG  PHE d   1     -16.764   7.579   0.952  0.00  0.00    -0.056 A 
ATOM     57  CD1 PHE d   1     -16.615   8.959   0.861  0.00  0.00    -0.077 A 
ATOM     58  CE1 PHE d   1     -17.655   9.757   0.391  0.00  0.00    -0.082 A 
ATOM     59  H12 PHE d   1     -15.679   9.418   1.159  0.00  0.00     0.084 H 
ATOM     60  CZ  PHE d   1     -18.861   9.185   0.019  0.00  0.00    -0.083 A 
ATOM     61  H14 PHE d   1     -17.520  10.830   0.316  0.00  0.00     0.083 H 
ATOM     62  CE2 PHE d   1     -19.027   7.811   0.109  0.00  0.00    -0.082 A 
ATOM     63  H16 PHE d   1     -19.671   9.809  -0.341  0.00  0.00     0.083 H 
ATOM     64  CD2 PHE d   1     -17.973   7.009   0.577  0.00  0.00    -0.077 A 
ATOM     65  H15 PHE d   1     -19.968   7.357  -0.181  0.00  0.00     0.083 H 
ATOM     66  H13 PHE d   1     -18.105   5.935   0.646  0.00  0.00     0.084 H 
ENDBRANCH  53  56
ENDBRANCH  37  53
ENDBRANCH  34  37
ENDBRANCH  31  33
BRANCH  31  67
ATOM     67  CB  PHE d   1     -13.584   3.370   5.518  0.00  0.00    -0.014 C 
ATOM     68  H19 PHE d   1     -12.812   2.660   5.849  0.00  0.00     0.043 H 
ATOM     69  H20 PHE d   1     -14.281   2.862   4.836  0.00  0.00     0.043 H 
BRANCH  67  70
ATOM     70  CG  PHE d   1     -14.347   3.843   6.719  0.00  0.00    -0.056 A 
ATOM     71  CD1 PHE d   1     -15.703   4.155   6.618  0.00  0.00    -0.077 A 
ATOM     72  CE1 PHE d   1     -16.417   4.634   7.742  0.00  0.00    -0.082 A 
ATOM     73  H21 PHE d   1     -16.214   4.029   5.670  0.00  0.00     0.084 H 
ATOM     74  CZ  PHE d   1     -15.750   4.798   8.955  0.00  0.00    -0.083 A 
ATOM     75  H23 PHE d   1     -17.472   4.871   7.661  0.00  0.00     0.083 H 
ATOM     76  CE2 PHE d   1     -14.407   4.496   9.068  0.00  0.00    -0.082 A 
ATOM     77  H25 PHE d   1     -16.291   5.167   9.819  0.00  0.00     0.083 H 
ATOM     78  CD2 PHE d   1     -13.698   4.020   7.956  0.00  0.00    -0.077 A 
ATOM     79  H24 PHE d   1     -13.901   4.627  10.017  0.00  0.00     0.083 H 
ATOM     80  H22 PHE d   1     -12.643   3.787   8.049  0.00  0.00     0.084 H 
ENDBRANCH  67  70
ENDBRANCH  31  67
ENDBRANCH  28  31
ENDBRANCH  25  27
BRANCH  25  81
ATOM     81  CB  ALA d   1     -10.376   5.980   0.934  0.00  0.00    -0.049 C 
ATOM     82  H28 ALA d   1      -9.770   5.755   0.044  0.00  0.00     0.030 H 
ATOM     83  H29 ALA d   1      -9.806   6.636   1.609  0.00  0.00     0.030 H 
ATOM     84  H30 ALA d   1     -11.304   6.486   0.628  0.00  0.00     0.030 H 
ENDBRANCH  25  81
ENDBRANCH  22  25
ENDBRANCH  19  21
BRANCH  19  85
ATOM     85  CB  GLN d   1      -7.501   1.558  -0.107  0.00  0.00    -0.030 C 
ATOM     86  H33 GLN d   1      -7.515   2.231  -0.977  0.00  0.00     0.037 H 
ATOM     87  H34 GLN d   1      -8.345   0.856  -0.172  0.00  0.00     0.037 H 
BRANCH  85  88
ATOM     88  CG  GLN d   1      -6.222   0.742  -0.181  0.00  0.00     0.011 C 
ATOM     89  H35 GLN d   1      -5.367   1.433  -0.228  0.00  0.00     0.047 H 
ATOM     90  H36 GLN d   1      -6.249   0.129  -1.094  0.00  0.00     0.047 H 
BRANCH  88  91
ATOM     91  CD  GLN d   1      -6.036  -0.181   1.020  0.00  0.00     0.215 C 
ATOM     92  OE1 GLN d   1      -5.720   0.275   2.122  0.00  0.00    -0.274 OA
ATOM     93  NE2 GLN d   1      -6.209  -1.488   0.804  0.00  0.00    -0.370 N 
ATOM     94  H37 GLN d   1      -6.099  -2.138   1.556  0.00  0.00     0.159 HD
ATOM     95  H38 GLN d   1      -6.448  -1.816  -0.110  0.00  0.00     0.159 HD
ENDBRANCH  88  91
ENDBRANCH  85  88
ENDBRANCH  19  85
ENDBRANCH  16  19
ENDBRANCH  13  15
BRANCH  13  96
ATOM     96  CB  LEU d   1      -3.377   3.313   3.164  0.00  0.00    -0.035 C 
ATOM     97  H41 LEU d   1      -2.567   4.043   3.312  0.00  0.00     0.037 H 
ATOM     98  H42 LEU d   1      -2.964   2.390   2.732  0.00  0.00     0.037 H 
BRANCH  96  99
ATOM     99  CG  LEU d   1      -3.931   2.963   4.539  0.00  0.00    -0.059 C 
ATOM    100  H43 LEU d   1      -4.906   2.468   4.417  0.00  0.00     0.038 H 
BRANCH  99 101
ATOM    101  CD1 LEU d   1      -2.971   1.998   5.234  0.00  0.00    -0.073 C 
ATOM    102  H44 LEU d   1      -3.365   1.741   6.228  0.00  0.00     0.028 H 
ATOM    103  H45 LEU d   1      -1.986   2.475   5.343  0.00  0.00     0.028 H 
ATOM    104  H46 LEU d   1      -2.871   1.083   4.632  0.00  0.00     0.028 H 
ENDBRANCH  99 101
BRANCH  99 105
ATOM    105  CD2 LEU d   1      -4.125   4.214   5.356  0.00  0.00    -0.073 C 
ATOM    106  H47 LEU d   1      -4.819   4.889   4.834  0.00  0.00     0.028 H 
ATOM    107  H48 LEU d   1      -3.156   4.717   5.492  0.00  0.00     0.028 H 
ATOM    108  H49 LEU d   1      -4.542   3.949   6.339  0.00  0.00     0.028 H 
ENDBRANCH  99 105
ENDBRANCH  96  99
ENDBRANCH  13  96
ENDBRANCH  10  13
ENDBRANCH   7   9
BRANCH   7 109
ATOM    109  CB  GLN d   1      -2.550   6.799  -1.147  0.00  0.00    -0.030 C 
ATOM    110  H52 GLN d   1      -1.757   7.136  -1.831  0.00  0.00     0.037 H 
ATOM    111  H53 GLN d   1      -2.683   7.540  -0.345  0.00  0.00     0.037 H 
BRANCH 109 112
ATOM    112  CG  GLN d   1      -3.855   6.710  -1.936  0.00  0.00     0.011 C 
ATOM    113  H54 GLN d   1      -4.237   7.729  -2.097  0.00  0.00     0.047 H 
ATOM    114  H55 GLN d   1      -4.583   6.134  -1.345  0.00  0.00     0.047 H 
BRANCH 112 115
ATOM    115  CD  GLN d   1      -3.688   6.037  -3.287  0.00  0.00     0.215 C 
ATOM    116  OE1 GLN d   1      -2.755   6.339  -4.039  0.00  0.00    -0.274 OA
ATOM    117  NE2 GLN d   1      -4.594   5.119  -3.603  0.00  0.00    -0.370 N 
ATOM    118  H56 GLN d   1      -4.537   4.641  -4.480  0.00  0.00     0.159 HD
ATOM    119  H57 GLN d   1      -5.333   4.906  -2.964  0.00  0.00     0.159 HD
ENDBRANCH 112 115
ENDBRANCH 109 112
ENDBRANCH   7 109
ENDBRANCH   4   7
ENDBRANCH   1   3
BRANCH   1 120
ATOM    120  C   LEU d   1       2.293   6.340  -1.203  0.00  0.00     0.241 C 
ATOM    121  O   LEU d   1       1.984   6.912  -2.247  0.00  0.00    -0.271 OA
ATOM    122  N   ASP d   1       3.166   6.844  -0.328  0.00  0.00    -0.346 N 
ATOM    123  H69 ASP d   1       3.279   6.401   0.561  0.00  0.00     0.163 HD
BRANCH 122 124
ATOM    124  CA  ASP d   1       3.960   8.028  -0.641  0.00  0.00     0.098 C 
ATOM    125  H70 ASP d   1       3.372   8.730  -1.250  0.00  0.00     0.088 H 
BRANCH 124 126
ATOM    126  C   ASP d   1       5.181   7.555  -1.415  0.00  0.00     0.241 C 
ATOM    127  O   ASP d   1       5.972   6.772  -0.887  0.00  0.00    -0.271 OA
ATOM    128  N   GLU d   1       5.340   8.025  -2.654  0.00  0.00    -0.346 N 
ATOM    129  H73 GLU d   1       4.721   8.734  -2.992  0.00  0.00     0.163 HD
BRANCH 128 130
ATOM    130  CA  GLU d   1       6.407   7.521  -3.533  0.00  0.00     0.086 C 
ATOM    131  H74 GLU d   1       6.344   6.423  -3.537  0.00  0.00     0.086 H 
BRANCH 130 132
ATOM    132  C   GLU d   1       7.796   7.904  -3.053  0.00  0.00     0.240 C 
ATOM    133  O   GLU d   1       8.783   7.265  -3.429  0.00  0.00    -0.271 OA
ATOM    134  N   GLU d   1       7.874   8.948  -2.235  0.00  0.00    -0.346 N 
ATOM    135  H78 GLU d   1       7.032   9.387  -1.921  0.00  0.00     0.163 HD
BRANCH 134 136
ATOM    136  CA  GLU d   1       9.165   9.471  -1.783  0.00  0.00     0.090 C 
ATOM    137  H79 GLU d   1       9.917   9.196  -2.537  0.00  0.00     0.087 H 
BRANCH 136 138
ATOM    138  C   GLU d   1       9.618   8.905  -0.437  0.00  0.00     0.241 C 
ATOM    139  O   GLU d   1      10.813   8.709  -0.209  0.00  0.00    -0.271 OA
ATOM    140  N   THR d   1       8.664   8.667   0.463  0.00  0.00    -0.344 N 
ATOM    141  H84 THR d   1       7.703   8.764   0.204  0.00  0.00     0.163 HD
BRANCH 140 142
ATOM    142  CA  THR d   1       9.012   8.265   1.827  0.00  0.00     0.113 C 
ATOM    143  H85 THR d   1      10.096   8.400   1.954  0.00  0.00     0.091 H 
BRANCH 142 144
ATOM    144  C   THR d   1       8.662   6.809   2.092  0.00  0.00     0.243 C 
ATOM    145  O   THR d   1       9.143   6.216   3.064  0.00  0.00    -0.271 OA
ATOM    146  N   GLY d   1       7.767   6.267   1.265  0.00  0.00    -0.350 N 
ATOM    147  H91 GLY d   1       7.419   6.804   0.496  0.00  0.00     0.163 HD
BRANCH 146 148
ATOM    148  CA  GLY d   1       7.289   4.908   1.463  0.00  0.00     0.069 C 
ATOM    149  H92 GLY d   1       8.142   4.282   1.766  0.00  0.00     0.078 H 
ATOM    150  H93 GLY d   1       6.886   4.541   0.508  0.00  0.00     0.078 H 
BRANCH 148 151
ATOM    151  C   GLY d   1       6.206   4.780   2.518  0.00  0.00     0.236 C 
ATOM    152  O   GLY d   1       5.691   3.682   2.757  0.00  0.00    -0.272 OA
ATOM    153  N   GLU d   1       5.830   5.888   3.159  0.00  0.00    -0.346 N 
ATOM    154  H94 GLU d   1       6.292   6.755   2.970  0.00  0.00     0.163 HD
BRANCH 153 155
ATOM    155  CA  GLU d   1       4.736   5.837   4.144  0.00  0.00     0.090 C 
ATOM    156  H95 GLU d   1       4.928   4.995   4.825  0.00  0.00     0.087 H 
BRANCH 155 157
ATOM    157  C   GLU d   1       3.385   5.617   3.474  0.00  0.00     0.241 C 
ATOM    158  O   GLU d   1       3.155   6.078   2.353  0.00  0.00    -0.271 OA
ATOM    159  N   PHE d   1       2.488   4.919   4.175  0.00  0.00    -0.346 N 
ATOM    160 0H10 PHE d   1       2.761   4.489   5.036  0.00  0.00     0.163 HD
BRANCH 159 161
ATOM    161  CA  PHE d   1       1.114   4.776   3.701  0.00  0.00     0.093 C 
ATOM    162 1H10 PHE d   1       1.061   5.098   2.651  0.00  0.00     0.088 H 
BRANCH 161 163
ATOM    163  C   PHE d   1       0.240   5.663   4.543  0.00  0.00     0.241 C 
ATOM    164  O   PHE d   1       0.388   5.699   5.771  0.00  0.00    -0.271 OA
ATOM    165  N   LEU d   1      -0.675   6.367   3.874  0.00  0.00    -0.345 N 
ATOM    166 9H10 LEU d   1      -0.750   6.233   2.886  0.00  0.00     0.163 HD
BRANCH 165 167
ATOM    167  CA  LEU d   1      -1.570   7.322   4.514  0.00  0.00     0.096 C 
ATOM    168 0H11 LEU d   1      -1.675   7.055   5.576  0.00  0.00     0.089 H 
BRANCH 167 169
ATOM    169  C   LEU d   1      -2.951   7.281   3.857  0.00  0.00     0.196 C 
ATOM    170  O   LEU d   1      -3.073   7.123   2.637  0.00  0.00    -0.646 OA
ATOM    171  OXT LEU d   1      -3.986   7.409   4.531  0.00  0.00    -0.646 OA
ENDBRANCH 167 169
BRANCH 167 172
ATOM    172  CB  LEU d   1      -0.974   8.733   4.412  0.00  0.00    -0.034 C 
ATOM    173 1H11 LEU d   1      -0.878   8.966   3.341  0.00  0.00     0.037 H 
ATOM    174 2H11 LEU d   1       0.025   8.695   4.870  0.00  0.00     0.037 H 
BRANCH 172 175
ATOM    175  CG  LEU d   1      -1.722   9.901   5.061  0.00  0.00    -0.059 C 
ATOM    176 3H11 LEU d   1      -2.800   9.758   4.896  0.00  0.00     0.038 H 
BRANCH 175 177
ATOM    177  CD1 LEU d   1      -1.472   9.961   6.555  0.00  0.00    -0.073 C 
ATOM    178 4H11 LEU d   1      -2.024  10.810   6.985  0.00  0.00     0.028 H 
ATOM    179 5H11 LEU d   1      -0.396  10.091   6.742  0.00  0.00     0.028 H 
ATOM    180 6H11 LEU d   1      -1.815   9.026   7.022  0.00  0.00     0.028 H 
ENDBRANCH 175 177
BRANCH 175 181
ATOM    181  CD2 LEU d   1      -1.301  11.202   4.413  0.00  0.00    -0.073 C 
ATOM    182 7H11 LEU d   1      -1.486  11.149   3.330  0.00  0.00     0.028 H 
ATOM    183 8H11 LEU d   1      -0.229  11.372   4.594  0.00  0.00     0.028 H 
ATOM    184 9H11 LEU d   1      -1.881  12.031   4.844  0.00  0.00     0.028 H 
ENDBRANCH 175 181
ENDBRANCH 172 175
ENDBRANCH 167 172
ENDBRANCH 165 167
ENDBRANCH 161 163
BRANCH 161 185
ATOM    185  CB  PHE d   1       0.619   3.319   3.796  0.00  0.00    -0.014 C 
ATOM    186 2H10 PHE d   1      -0.477   3.329   3.883  0.00  0.00     0.043 H 
ATOM    187 3H10 PHE d   1       1.054   2.862   4.697  0.00  0.00     0.043 H 
BRANCH 185 188
ATOM    188  CG  PHE d   1       0.994   2.474   2.606  0.00  0.00    -0.056 A 
ATOM    189  CD1 PHE d   1       2.142   1.691   2.628  0.00  0.00    -0.077 A 
ATOM    190  CE1 PHE d   1       2.498   0.905   1.522  0.00  0.00    -0.082 A 
ATOM    191 4H10 PHE d   1       2.770   1.688   3.511  0.00  0.00     0.084 H 
ATOM    192  CZ  PHE d   1       1.699   0.911   0.379  0.00  0.00    -0.083 A 
ATOM    193 6H10 PHE d   1       3.393   0.294   1.556  0.00  0.00     0.083 H 
ATOM    194  CE2 PHE d   1       0.548   1.692   0.347  0.00  0.00    -0.082 A 
ATOM    195 8H10 PHE d   1       1.973   0.310  -0.480  0.00  0.00     0.083 H 
ATOM    196  CD2 PHE d   1       0.203   2.471   1.456  0.00  0.00    -0.077 A 
ATOM    197 7H10 PHE d   1      -0.080   1.697  -0.536  0.00  0.00     0.083 H 
ATOM    198 5H10 PHE d   1      -0.692   3.082   1.422  0.00  0.00     0.084 H 
ENDBRANCH 185 188
ENDBRANCH 161 185
ENDBRANCH 159 161
ENDBRANCH 155 157
BRANCH 155 199
ATOM    199  CB  GLU d   1       4.683   7.128   4.966  0.00  0.00    -0.029 C 
ATOM    200  H96 GLU d   1       3.833   7.065   5.661  0.00  0.00     0.037 H 
ATOM    201  H97 GLU d   1       4.533   7.974   4.279  0.00  0.00     0.037 H 
BRANCH 199 202
ATOM    202  CG  GLU d   1       5.963   7.380   5.780  0.00  0.00     0.018 C 
ATOM    203  H98 GLU d   1       6.740   7.750   5.095  0.00  0.00     0.049 H 
ATOM    204  H99 GLU d   1       6.286   6.425   6.220  0.00  0.00     0.049 H 
BRANCH 202 205
ATOM    205  CD  GLU d   1       5.795   8.400   6.914  0.00  0.00     0.172 C 
ATOM    206  OE1 GLU d   1       4.640   8.743   7.256  0.00  0.00    -0.648 OA
ATOM    207  OE2 GLU d   1       6.815   8.864   7.476  0.00  0.00    -0.648 OA
ENDBRANCH 202 205
ENDBRANCH 199 202
ENDBRANCH 155 199
ENDBRANCH 153 155
ENDBRANCH 148 151
ENDBRANCH 146 148
ENDBRANCH 142 144
BRANCH 142 208
ATOM    208  CB  THR d   1       8.276   9.111   2.892  0.00  0.00     0.060 C 
ATOM    209  H86 THR d   1       8.671   8.854   3.886  0.00  0.00     0.086 H 
BRANCH 208 210
ATOM    210  OG1 THR d   1       6.878   8.820   2.856  0.00  0.00    -0.393 OA
ATOM    211  H87 THR d   1       6.430   9.342   3.511  0.00  0.00     0.210 HD
ENDBRANCH 208 210
BRANCH 208 212
ATOM    212  CG2 THR d   1       8.499  10.601   2.641  0.00  0.00    -0.050 C 
ATOM    213  H88 THR d   1       7.969  11.185   3.407  0.00  0.00     0.031 H 
ATOM    214  H89 THR d   1       8.114  10.867   1.645  0.00  0.00     0.031 H 
ATOM    215  H90 THR d   1       9.575  10.824   2.689  0.00  0.00     0.031 H 
ENDBRANCH 208 212
ENDBRANCH 142 208
ENDBRANCH 140 142
ENDBRANCH 136 138
BRANCH 136 216
ATOM    216  CB  GLU d   1       9.117  10.997  -1.675  0.00  0.00    -0.029 C 
ATOM    217  H80 GLU d   1      10.062  11.346  -1.233  0.00  0.00     0.037 H 
ATOM    218  H81 GLU d   1       8.280  11.275  -1.018  0.00  0.00     0.037 H 
BRANCH 216 219
ATOM    219  CG  GLU d   1       8.929  11.681  -3.006  0.00  0.00     0.018 C 
ATOM    220  H82 GLU d   1       7.974  11.346  -3.437  0.00  0.00     0.049 H 
ATOM    221  H83 GLU d   1       9.755  11.384  -3.669  0.00  0.00     0.049 H 
BRANCH 219 222
ATOM    222  CD  GLU d   1       8.909  13.198  -2.914  0.00  0.00     0.172 C 
ATOM    223  OE1 GLU d   1       9.552  13.756  -2.001  0.00  0.00    -0.648 OA
ATOM    224  OE2 GLU d   1       8.260  13.827  -3.773  0.00  0.00    -0.648 OA
ENDBRANCH 219 222
ENDBRANCH 216 219
ENDBRANCH 136 216
ENDBRANCH 134 136
ENDBRANCH 130 132
BRANCH 130 225
ATOM    225  CB  GLU d   1       6.201   8.017  -4.963  0.00  0.00    -0.049 C 
ATOM    226  H75 GLU d   1       7.007   7.631  -5.605  0.00  0.00     0.030 H 
ATOM    227  H76 GLU d   1       6.218   9.117  -4.976  0.00  0.00     0.030 H 
ATOM    228  H77 GLU d   1       5.231   7.660  -5.339  0.00  0.00     0.030 H 
ENDBRANCH 130 225
ENDBRANCH 128 130
ENDBRANCH 124 126
BRANCH 124 229
ATOM    229  CB  ASP d   1       4.405   8.714   0.652  0.00  0.00     0.043 C 
ATOM    230  H71 ASP d   1       5.109   8.053   1.179  0.00  0.00     0.052 H 
ATOM    231  H72 ASP d   1       3.521   8.885   1.284  0.00  0.00     0.052 H 
BRANCH 229 232
ATOM    232  CG  ASP d   1       5.079  10.032   0.398  0.00  0.00     0.175 C 
ATOM    233  OD1 ASP d   1       6.141  10.053  -0.259  0.00  0.00    -0.648 OA
ATOM    234  OD2 ASP d   1       4.546  11.064   0.859  0.00  0.00    -0.648 OA
ENDBRANCH 229 232
ENDBRANCH 124 229
ENDBRANCH 122 124
ENDBRANCH   1 120
BRANCH   1 235
ATOM    235  CB  LEU d   1       2.244   3.883  -1.737  0.00  0.00    -0.035 C 
ATOM    236  H60 LEU d   1       1.678   3.951  -2.678  0.00  0.00     0.037 H 
ATOM    237  H61 LEU d   1       1.992   2.943  -1.225  0.00  0.00     0.037 H 
BRANCH 235 238
ATOM    238  CG  LEU d   1       3.714   3.726  -2.163  0.00  0.00    -0.059 C 
ATOM    239  H62 LEU d   1       3.798   2.707  -2.569  0.00  0.00     0.038 H 
BRANCH 238 240
ATOM    240  CD1 LEU d   1       4.121   4.669  -3.318  0.00  0.00    -0.073 C 
ATOM    241  H63 LEU d   1       5.179   4.504  -3.570  0.00  0.00     0.028 H 
ATOM    242  H64 LEU d   1       3.977   5.714  -3.006  0.00  0.00     0.028 H 
ATOM    243  H65 LEU d   1       3.497   4.460  -4.199  0.00  0.00     0.028 H 
ENDBRANCH 238 240
BRANCH 238 244
ATOM    244  CD2 LEU d   1       4.679   3.781  -0.979  0.00  0.00    -0.073 C 
ATOM    245  H66 LEU d   1       4.336   3.091  -0.194  0.00  0.00     0.028 H 
ATOM    246  H67 LEU d   1       4.710   4.805  -0.579  0.00  0.00     0.028 H 
ATOM    247  H68 LEU d   1       5.685   3.486  -1.312  0.00  0.00     0.028 H 
ENDBRANCH 238 244
ENDBRANCH 235 238
ENDBRANCH   1 235
TORSDOF 70
