REMARK  12 active torsions:
REMARK  status: ('A' for Active; 'I' for Inactive)
REMARK    1  A    between atoms: O1_4  and  C1_3 
REMARK    2  A    between atoms: C2_9  and  O1_4 
REMARK    3  A    between atoms: O2_8  and  C8_7 
REMARK    4  A    between atoms: C3_10  and  O2_8 
REMARK    5  A    between atoms: C5_12  and  C9_15 
REMARK    6  A    between atoms: C9_15  and  C10_16 
REMARK    7  A    between atoms: C9_15  and  C18_31 
REMARK    8  A    between atoms: C14_20  and  C15_21 
REMARK    9  A    between atoms: C15_21  and  O3_22 
REMARK   10  A    between atoms: C15_21  and  C16_23 
REMARK   11  A    between atoms: C15_21  and  C17_27 
REMARK   12  A    between atoms: C18_31  and  C19_32 
ROOT
ATOM      1  C9  M98 d   1      21.364  -3.467  29.216  0.00  0.00     0.024 C 
ATOM      2  H10 M98 d   1      21.974  -2.653  28.798  0.00  0.00     0.058 H 
ENDROOT
BRANCH   1   3
ATOM      3  C5  M98 d   1      21.610  -3.434  30.718  0.00  0.00    -0.044 A 
ATOM      4  C4  M98 d   1      21.927  -4.587  31.447  0.00  0.00    -0.041 A 
ATOM      5  C3  M98 d   1      22.191  -4.492  32.830  0.00  0.00     0.103 A 
ATOM      6  H7  M98 d   1      21.969  -5.550  30.950  0.00  0.00     0.088 H 
ATOM      7  C2  M98 d   1      22.143  -3.278  33.474  0.00  0.00     0.108 A 
ATOM      8  C7  M98 d   1      21.826  -2.125  32.768  0.00  0.00    -0.047 A 
ATOM      9  C6  M98 d   1      21.560  -2.212  31.388  0.00  0.00    -0.073 A 
ATOM     10  H9  M98 d   1      21.784  -1.167  33.274  0.00  0.00     0.087 H 
ATOM     11  H8  M98 d   1      21.312  -1.312  30.836  0.00  0.00     0.084 H 
BRANCH   5  12
ATOM     12  O2  M98 d   1      22.465  -5.573  33.607  0.00  0.00    -0.343 OA
BRANCH  12  13
ATOM     13  C8  M98 d   1      22.708  -6.801  32.955  0.00  0.00     0.045 A 
ATOM     14  C12 M98 d   1      23.219  -8.230  33.170  0.00  0.00    -0.038 A 
ATOM     15  C13 M98 d   1      23.502  -7.505  31.841  0.00  0.00    -0.038 A 
ATOM     16  H2  M98 d   1      24.039  -8.420  33.878  0.00  0.00     0.036 H 
ATOM     17  H3  M98 d   1      22.509  -9.069  33.198  0.00  0.00     0.036 H 
ATOM     18  H4  M98 d   1      22.993  -7.825  30.920  0.00  0.00     0.036 H 
ATOM     19  H5  M98 d   1      24.523  -7.175  31.600  0.00  0.00     0.036 H 
ATOM     20  H6  M98 d   1      21.652  -6.904  32.666  0.00  0.00     0.084 H 
ENDBRANCH  12  13
ENDBRANCH   5  12
BRANCH   7  21
ATOM     21  O1  M98 d   1      22.407  -3.275  34.812  0.00  0.00    -0.287 OA
BRANCH  21  22
ATOM     22  C1  M98 d   1      22.718  -2.047  35.436  0.00  0.00     0.310 C 
ATOM     23  F1  M98 d   1      21.596  -1.316  35.550  0.00  0.00    -0.184 F 
ATOM     24  F2  M98 d   1      23.690  -1.391  34.767  0.00  0.00    -0.184 F 
ATOM     25  H1  M98 d   1      23.093  -2.259  36.448  0.00  0.00     0.195 H 
ENDBRANCH  21  22
ENDBRANCH   7  21
ENDBRANCH   1   3
BRANCH   1  26
ATOM     26  C10 M98 d   1      21.826  -4.730  28.537  0.00  0.00     0.084 A 
ATOM     27  N1  M98 d   1      22.894  -4.784  27.692  0.00  0.00    -0.256 NA
ATOM     28  C11 M98 d   1      23.158  -6.090  27.143  0.00  0.00     0.019 A 
ATOM     29  C14 M98 d   1      22.154  -6.948  27.615  0.00  0.00     0.054 A 
ATOM     30  H11 M98 d   1      23.983  -6.360  26.485  0.00  0.00     0.116 H 
ATOM     31  S1  M98 d   1      21.033  -6.194  28.599  0.00  0.00    -0.073 SA
BRANCH  29  32
ATOM     32  C15 M98 d   1      22.083  -8.415  27.242  0.00  0.00     0.289 C 
BRANCH  32  33
ATOM     33  O3  M98 d   1      20.940  -9.023  27.852  0.00  0.00    -0.369 OA
ATOM     34  H12 M98 d   1      20.905  -9.941  27.612  0.00  0.00     0.211 HD
ENDBRANCH  32  33
BRANCH  32  35
ATOM     35  C16 M98 d   1      23.355  -9.132  27.780  0.00  0.00     0.432 C 
ATOM     36  F5  M98 d   1      23.282 -10.449  27.506  0.00  0.00    -0.167 F 
ATOM     37  F6  M98 d   1      23.425  -8.954  29.116  0.00  0.00    -0.167 F 
ATOM     38  F7  M98 d   1      24.463  -8.618  27.202  0.00  0.00    -0.167 F 
ENDBRANCH  32  35
BRANCH  32  39
ATOM     39  C17 M98 d   1      21.995  -8.552  25.683  0.00  0.00     0.432 C 
ATOM     40  F8  M98 d   1      20.945  -7.843  25.221  0.00  0.00    -0.167 F 
ATOM     41  F9  M98 d   1      21.837  -9.849  25.346  0.00  0.00    -0.167 F 
ATOM     42  F10 M98 d   1      23.125  -8.082  25.114  0.00  0.00    -0.167 F 
ENDBRANCH  32  39
ENDBRANCH  29  32
ENDBRANCH   1  26
BRANCH   1  43
ATOM     43  C18 M98 d   1      19.913  -3.160  28.836  0.00  0.00    -0.030 C 
ATOM     44  H13 M98 d   1      19.625  -2.204  29.298  0.00  0.00     0.041 H 
ATOM     45  H14 M98 d   1      19.272  -3.964  29.226  0.00  0.00     0.041 H 
BRANCH  43  46
ATOM     46  C19 M98 d   1      19.699  -3.056  27.348  0.00  0.00    -0.057 A 
ATOM     47  C20 M98 d   1      20.338  -2.055  26.634  0.00  0.00    -0.027 A 
ATOM     48  C21 M98 d   1      20.209  -1.998  25.250  0.00  0.00    -0.082 A 
ATOM     49  H15 M98 d   1      21.413  -2.148  26.849  0.00  0.00     0.045 H 
ATOM     50  H16 M98 d   1      19.966  -1.097  27.027  0.00  0.00     0.045 H 
ATOM     51  C23 M98 d   1      19.446  -2.930  24.573  0.00  0.00     0.007 A 
ATOM     52  H17 M98 d   1      20.715  -1.210  24.694  0.00  0.00     0.079 H 
ATOM     53  N2  M98 d   1      18.806  -3.922  25.285  0.00  0.00    -0.211 N 
ATOM     54  H19 M98 d   1      19.351  -2.881  23.489  0.00  0.00     0.115 H 
ATOM     55  C22 M98 d   1      18.928  -3.991  26.675  0.00  0.00     0.013 A 
ATOM     56  O4  M98 d   1      18.066  -4.834  24.639  0.00  0.00    -0.082 OA
ATOM     57  H18 M98 d   1      18.418  -4.778  27.229  0.00  0.00     0.115 H 
ENDBRANCH  43  46
ENDBRANCH   1  43
TORSDOF 12
