REMARK  27 active torsions:
REMARK  status: ('A' for Active; 'I' for Inactive)
REMARK    1  A    between atoms: C1_1  and  O3_3 
REMARK       I    between atoms: N8_8  and  C1_1 
REMARK    2  A    between atoms: O3_3  and  C4_4 
REMARK    3  A    between atoms: C4_4  and  C5_5 
REMARK    4  A    between atoms: C4_4  and  C6_6 
REMARK    5  A    between atoms: C4_4  and  C7_7 
REMARK    6  A    between atoms: C9_9  and  N8_8 
REMARK    7  A    between atoms: C9_9  and  C10_10 
REMARK    8  A    between atoms: C14_14  and  C9_9 
REMARK    9  A    between atoms: C10_10  and  C11_11 
REMARK   10  A    between atoms: C10_10  and  C12_12 
REMARK   11  A    between atoms: C10_10  and  C13_13 
REMARK       I    between atoms: N16_16  and  C14_14 
REMARK   12  A    between atoms: C24_24  and  C18_18 
REMARK   13  A    between atoms: C21_21  and  C22_22 
REMARK   14  A    between atoms: C21_21  and  C23_23 
REMARK       I    between atoms: N26_26  and  C24_24 
REMARK   15  A    between atoms: C27_27  and  N26_26 
REMARK   16  A    between atoms: C27_27  and  C28_28 
REMARK   17  A    between atoms: C33_33  and  C27_27 
REMARK   18  A    between atoms: C28_28  and  C29_29 
REMARK   19  A    between atoms: C33_33  and  O32_32 
REMARK   20  A    between atoms: C39_39  and  C33_33 
REMARK   21  A    between atoms: N35_35  and  C36_36 
REMARK       I    between atoms: N35_35  and  C39_39 
REMARK   22  A    between atoms: C36_36  and  C37_37 
REMARK       I    between atoms: C37_37  and  N40_40 
REMARK   23  A    between atoms: N40_40  and  C41_41 
REMARK   24  A    between atoms: C41_41  and  C42_42 
REMARK   25  A    between atoms: C41_41  and  C48_48 
REMARK       I    between atoms: C48_48  and  N50_50 
REMARK   26  A    between atoms: N50_50  and  C51_51 
REMARK   27  A    between atoms: N50_50  and  C52_52 
ROOT
ATOM      1  C24 3BC d   1     197.319  -7.508  51.158  0.00  0.00     0.241 C 
ATOM      2  O25 3BC d   1     198.322  -7.837  50.527  0.00  0.00    -0.271 OA
ATOM      3  N26 3BC d   1     197.022  -6.247  51.450  0.00  0.00    -0.352 N 
ATOM      4  H32 3BC d   1     196.182  -6.047  51.955  0.00  0.00     0.163 HD
ENDROOT
BRANCH   1   5
ATOM      5  C18 3BC d   1     196.317  -8.550  51.635  0.00  0.00     0.096 C 
ATOM      6  N16 3BC d   1     195.718  -9.269  50.512  0.00  0.00    -0.336 N 
ATOM      7  C14 3BC d   1     195.058  -8.643  49.528  0.00  0.00     0.244 C 
ATOM      8  C17 3BC d   1     195.959 -10.718  50.609  0.00  0.00     0.003 C 
ATOM      9  O15 3BC d   1     194.898  -7.417  49.508  0.00  0.00    -0.271 OA
ATOM     10  C20 3BC d   1     196.791 -10.828  51.849  0.00  0.00    -0.025 A 
ATOM     11  H21 3BC d   1     196.506 -11.089  49.730  0.00  0.00     0.065 H 
ATOM     12  H22 3BC d   1     195.014 -11.272  50.714  0.00  0.00     0.065 H 
ATOM     13  C19 3BC d   1     196.781  -9.562  52.635  0.00  0.00    -0.013 A 
ATOM     14  C21 3BC d   1     196.005 -10.763  53.162  0.00  0.00    -0.036 A 
ATOM     15  H25 3BC d   1     197.683 -11.460  51.723  0.00  0.00     0.044 H 
ATOM     16  H24 3BC d   1     197.610  -9.177  53.246  0.00  0.00     0.045 H 
ATOM     17  H23 3BC d   1     195.514  -7.981  52.127  0.00  0.00     0.088 H 
BRANCH   7  18
ATOM     18  C9  3BC d   1     194.489  -9.525  48.423  0.00  0.00     0.098 C 
ATOM     19  H11 3BC d   1     194.808 -10.553  48.650  0.00  0.00     0.088 H 
BRANCH  18  20
ATOM     20  N8  3BC d   1     193.026  -9.528  48.419  0.00  0.00    -0.323 N 
ATOM     21  C1  3BC d   1     192.302 -10.299  49.228  0.00  0.00     0.362 C 
ATOM     22  O2  3BC d   1     192.803 -11.046  50.080  0.00  0.00    -0.238 OA
ATOM     23  H10 3BC d   1     192.549  -8.924  47.781  0.00  0.00     0.165 HD
BRANCH  21  24
ATOM     24  O3  3BC d   1     190.966 -10.134  49.030  0.00  0.00    -0.294 OA
BRANCH  24  25
ATOM     25  C4  3BC d   1     189.913 -10.849  49.729  0.00  0.00     0.061 C 
BRANCH  25  26
ATOM     26  C5  3BC d   1     189.852 -10.442  51.224  0.00  0.00    -0.048 C 
ATOM     27  H1  3BC d   1     189.046 -11.000  51.723  0.00  0.00     0.031 H 
ATOM     28  H2  3BC d   1     189.654  -9.363  51.303  0.00  0.00     0.031 H 
ATOM     29  H3  3BC d   1     190.813 -10.674  51.707  0.00  0.00     0.031 H 
ENDBRANCH  25  26
BRANCH  25  30
ATOM     30  C6  3BC d   1     188.623 -10.463  48.982  0.00  0.00    -0.048 C 
ATOM     31  H4  3BC d   1     187.764 -10.966  49.450  0.00  0.00     0.031 H 
ATOM     32  H5  3BC d   1     188.701 -10.774  47.930  0.00  0.00     0.031 H 
ATOM     33  H6  3BC d   1     188.482  -9.373  49.032  0.00  0.00     0.031 H 
ENDBRANCH  25  30
BRANCH  25  34
ATOM     34  C7  3BC d   1     190.100 -12.365  49.603  0.00  0.00    -0.048 C 
ATOM     35  H7  3BC d   1     189.290 -12.880  50.141  0.00  0.00     0.031 H 
ATOM     36  H8  3BC d   1     191.069 -12.652  50.037  0.00  0.00     0.031 H 
ATOM     37  H9  3BC d   1     190.075 -12.651  48.541  0.00  0.00     0.031 H 
ENDBRANCH  25  34
ENDBRANCH  24  25
ENDBRANCH  21  24
ENDBRANCH  18  20
BRANCH  18  38
ATOM     38  C10 3BC d   1     195.052  -9.188  47.039  0.00  0.00    -0.022 C 
BRANCH  38  39
ATOM     39  C11 3BC d   1     196.600  -9.058  47.142  0.00  0.00    -0.067 C 
ATOM     40  H12 3BC d   1     197.014  -8.816  46.152  0.00  0.00     0.028 H 
ATOM     41  H13 3BC d   1     197.025 -10.009  47.495  0.00  0.00     0.028 H 
ATOM     42  H14 3BC d   1     196.854  -8.257  47.852  0.00  0.00     0.028 H 
ENDBRANCH  38  39
BRANCH  38  43
ATOM     43  C12 3BC d   1     194.697 -10.323  46.077  0.00  0.00    -0.067 C 
ATOM     44  H15 3BC d   1     193.603 -10.414  46.005  0.00  0.00     0.028 H 
ATOM     45  H16 3BC d   1     195.119 -11.267  46.452  0.00  0.00     0.028 H 
ATOM     46  H17 3BC d   1     195.113 -10.104  45.082  0.00  0.00     0.028 H 
ENDBRANCH  38  43
BRANCH  38  47
ATOM     47  C13 3BC d   1     194.396  -7.893  46.499  0.00  0.00    -0.067 C 
ATOM     48  H18 3BC d   1     194.633  -7.054  47.170  0.00  0.00     0.028 H 
ATOM     49  H19 3BC d   1     193.305  -8.027  46.451  0.00  0.00     0.028 H 
ATOM     50  H20 3BC d   1     194.784  -7.678  45.492  0.00  0.00     0.028 H 
ENDBRANCH  38  47
ENDBRANCH  18  38
ENDBRANCH   7  18
BRANCH  14  51
ATOM     51  C22 3BC d   1     196.582 -11.538  54.305  0.00  0.00    -0.068 C 
ATOM     52  H26 3BC d   1     195.939 -11.420  55.190  0.00  0.00     0.028 H 
ATOM     53  H27 3BC d   1     197.590 -11.162  54.531  0.00  0.00     0.028 H 
ATOM     54  H28 3BC d   1     196.640 -12.602  54.034  0.00  0.00     0.028 H 
ENDBRANCH  14  51
BRANCH  14  55
ATOM     55  C23 3BC d   1     194.491 -10.722  53.140  0.00  0.00    -0.068 C 
ATOM     56  H29 3BC d   1     194.153 -10.136  52.273  0.00  0.00     0.028 H 
ATOM     57  H30 3BC d   1     194.123 -10.254  54.065  0.00  0.00     0.028 H 
ATOM     58  H31 3BC d   1     194.097 -11.746  53.066  0.00  0.00     0.028 H 
ENDBRANCH  14  55
ENDBRANCH   1   5
BRANCH   3  59
ATOM     59  C27 3BC d   1     197.894  -5.146  51.051  0.00  0.00     0.046 C 
ATOM     60  H33 3BC d   1     198.665  -5.522  50.362  0.00  0.00     0.077 H 
BRANCH  59  61
ATOM     61  C28 3BC d   1     197.090  -4.052  50.337  0.00  0.00    -0.040 C 
ATOM     62  H34 3BC d   1     197.781  -3.273  49.982  0.00  0.00     0.036 H 
ATOM     63  H35 3BC d   1     196.375  -3.612  51.047  0.00  0.00     0.036 H 
BRANCH  61  64
ATOM     64  C29 3BC d   1     196.320  -4.617  49.141  0.00  0.00    -0.052 A 
ATOM     65  C30 3BC d   1     196.871  -4.703  47.713  0.00  0.00    -0.061 A 
ATOM     66  C31 3BC d   1     195.744  -3.723  48.044  0.00  0.00    -0.061 A 
ATOM     67  H37 3BC d   1     196.665  -5.590  47.096  0.00  0.00     0.033 H 
ATOM     68  H38 3BC d   1     197.880  -4.326  47.489  0.00  0.00     0.033 H 
ATOM     69  H39 3BC d   1     195.942  -2.641  48.056  0.00  0.00     0.033 H 
ATOM     70  H40 3BC d   1     194.728  -3.905  47.664  0.00  0.00     0.033 H 
ATOM     71  H36 3BC d   1     195.712  -5.456  49.510  0.00  0.00     0.040 H 
ENDBRANCH  61  64
ENDBRANCH  59  61
BRANCH  59  72
ATOM     72  C33 3BC d   1     198.585  -4.590  52.347  0.00  0.00     0.131 C 
ATOM     73  H42 3BC d   1     197.928  -3.991  52.994  0.00  0.00     0.101 H 
BRANCH  72  74
ATOM     74  O32 3BC d   1     199.226  -5.715  53.062  0.00  0.00    -0.384 OA
ATOM     75  H41 3BC d   1     198.566  -6.356  53.297  0.00  0.00     0.210 HD
ENDBRANCH  72  74
BRANCH  72  76
ATOM     76  C39 3BC d   1     199.707  -3.814  51.674  0.00  0.00     0.248 C 
ATOM     77  O34 3BC d   1     199.537  -2.682  51.218  0.00  0.00    -0.271 OA
ATOM     78  N35 3BC d   1     200.866  -4.460  51.617  0.00  0.00    -0.350 N 
ATOM     79  H43 3BC d   1     200.848  -5.460  51.639  0.00  0.00     0.163 HD
BRANCH  78  80
ATOM     80  C36 3BC d   1     202.158  -3.804  51.525  0.00  0.00     0.069 C 
ATOM     81  H44 3BC d   1     202.880  -4.357  52.144  0.00  0.00     0.078 H 
ATOM     82  H45 3BC d   1     202.060  -2.776  51.905  0.00  0.00     0.078 H 
BRANCH  80  83
ATOM     83  C37 3BC d   1     202.677  -3.749  50.108  0.00  0.00     0.236 C 
ATOM     84  O38 3BC d   1     201.927  -3.903  49.138  0.00  0.00    -0.272 OA
ATOM     85  N40 3BC d   1     203.979  -3.510  49.997  0.00  0.00    -0.342 N 
ATOM     86  H46 3BC d   1     204.519  -3.379  50.828  0.00  0.00     0.163 HD
BRANCH  85  87
ATOM     87  C41 3BC d   1     204.644  -3.433  48.705  0.00  0.00     0.115 C 
ATOM     88  H47 3BC d   1     204.284  -4.277  48.098  0.00  0.00     0.095 H 
BRANCH  87  89
ATOM     89  C42 3BC d   1     204.313  -2.133  47.937  0.00  0.00    -0.026 A 
ATOM     90  C43 3BC d   1     204.350  -0.884  48.566  0.00  0.00    -0.074 A 
ATOM     91  C45 3BC d   1     204.087   0.280  47.850  0.00  0.00    -0.082 A 
ATOM     92  H48 3BC d   1     204.586  -0.822  49.622  0.00  0.00     0.084 H 
ATOM     93  C47 3BC d   1     203.759   0.199  46.495  0.00  0.00    -0.083 A 
ATOM     94  H50 3BC d   1     204.137   1.245  48.342  0.00  0.00     0.083 H 
ATOM     95  C46 3BC d   1     203.714  -1.043  45.855  0.00  0.00    -0.082 A 
ATOM     96  H52 3BC d   1     203.539   1.102  45.938  0.00  0.00     0.083 H 
ATOM     97  C44 3BC d   1     203.979  -2.202  46.582  0.00  0.00    -0.074 A 
ATOM     98  H51 3BC d   1     203.474  -1.104  44.800  0.00  0.00     0.083 H 
ATOM     99  H49 3BC d   1     203.925  -3.167  46.091  0.00  0.00     0.084 H 
ENDBRANCH  87  89
BRANCH  87 100
ATOM    100  C48 3BC d   1     206.155  -3.582  48.868  0.00  0.00     0.246 C 
ATOM    101  O49 3BC d   1     206.774  -2.892  49.685  0.00  0.00    -0.271 OA
ATOM    102  N50 3BC d   1     206.776  -4.476  48.080  0.00  0.00    -0.359 N 
BRANCH 102 103
ATOM    103  C51 3BC d   1     208.219  -4.531  48.067  0.00  0.00    -0.017 C 
ATOM    104  H53 3BC d   1     208.550  -5.315  47.370  0.00  0.00     0.056 H 
ATOM    105  H54 3BC d   1     208.586  -4.760  49.078  0.00  0.00     0.056 H 
ATOM    106  H55 3BC d   1     208.620  -3.559  47.743  0.00  0.00     0.056 H 
ENDBRANCH 102 103
BRANCH 102 107
ATOM    107  C52 3BC d   1     206.087  -5.428  47.214  0.00  0.00    -0.017 C 
ATOM    108  H56 3BC d   1     205.000  -5.290  47.310  0.00  0.00     0.056 H 
ATOM    109  H57 3BC d   1     206.354  -6.453  47.510  0.00  0.00     0.056 H 
ATOM    110  H58 3BC d   1     206.388  -5.258  46.170  0.00  0.00     0.056 H 
ENDBRANCH 102 107
ENDBRANCH  87 100
ENDBRANCH  85  87
ENDBRANCH  80  83
ENDBRANCH  78  80
ENDBRANCH  72  76
ENDBRANCH  59  72
ENDBRANCH   3  59
TORSDOF 27
