REMARK  12 active torsions:
REMARK  status: ('A' for Active; 'I' for Inactive)
REMARK    1  A    between atoms: O1_4  and  C1_3 
REMARK    2  A    between atoms: C2_9  and  O1_4 
REMARK    3  A    between atoms: O2_8  and  C8_7 
REMARK    4  A    between atoms: C3_10  and  O2_8 
REMARK    5  A    between atoms: C5_12  and  C9_15 
REMARK    6  A    between atoms: C9_15  and  C10_16 
REMARK    7  A    between atoms: C9_15  and  C18_31 
REMARK    8  A    between atoms: C14_20  and  C15_21 
REMARK    9  A    between atoms: C15_21  and  O3_22 
REMARK   10  A    between atoms: C15_21  and  C16_23 
REMARK   11  A    between atoms: C15_21  and  C17_27 
REMARK   12  A    between atoms: C18_31  and  C19_32 
ROOT
ATOM      1  C9  M99 d   1      20.654  -3.626  29.877  0.00  0.00     0.024 C 
ATOM      2  H10 M99 d   1      19.582  -3.867  29.933  0.00  0.00     0.058 H 
ENDROOT
BRANCH   1   3
ATOM      3  C5  M99 d   1      21.169  -3.483  31.313  0.00  0.00    -0.044 A 
ATOM      4  C4  M99 d   1      21.572  -4.606  32.048  0.00  0.00    -0.041 A 
ATOM      5  C3  M99 d   1      22.011  -4.466  33.378  0.00  0.00     0.103 A 
ATOM      6  H7  M99 d   1      21.546  -5.588  31.590  0.00  0.00     0.088 H 
ATOM      7  C2  M99 d   1      22.060  -3.234  33.972  0.00  0.00     0.108 A 
ATOM      8  C7  M99 d   1      21.663  -2.101  33.260  0.00  0.00    -0.047 A 
ATOM      9  C6  M99 d   1      21.219  -2.234  31.931  0.00  0.00    -0.073 A 
ATOM     10  H9  M99 d   1      21.697  -1.124  33.728  0.00  0.00     0.087 H 
ATOM     11  H8  M99 d   1      20.911  -1.353  31.380  0.00  0.00     0.084 H 
BRANCH   5  12
ATOM     12  O2  M99 d   1      22.357  -5.526  34.143  0.00  0.00    -0.343 OA
BRANCH  12  13
ATOM     13  C8  M99 d   1      22.646  -6.712  33.437  0.00  0.00     0.045 A 
ATOM     14  C12 M99 d   1      23.172  -8.143  33.576  0.00  0.00    -0.038 A 
ATOM     15  C13 M99 d   1      23.482  -7.326  32.311  0.00  0.00    -0.038 A 
ATOM     16  H2  M99 d   1      23.973  -8.367  34.296  0.00  0.00     0.036 H 
ATOM     17  H3  M99 d   1      22.475  -8.993  33.525  0.00  0.00     0.036 H 
ATOM     18  H4  M99 d   1      23.007  -7.591  31.355  0.00  0.00     0.036 H 
ATOM     19  H5  M99 d   1      24.505  -6.966  32.125  0.00  0.00     0.036 H 
ATOM     20  H6  M99 d   1      21.601  -6.816  33.110  0.00  0.00     0.084 H 
ENDBRANCH  12  13
ENDBRANCH   5  12
BRANCH   7  21
ATOM     21  O1  M99 d   1      22.508  -3.183  35.262  0.00  0.00    -0.287 OA
BRANCH  21  22
ATOM     22  C1  M99 d   1      22.740  -1.906  35.830  0.00  0.00     0.310 C 
ATOM     23  F1  M99 d   1      21.573  -1.239  35.907  0.00  0.00    -0.184 F 
ATOM     24  F2  M99 d   1      23.672  -1.216  35.130  0.00  0.00    -0.184 F 
ATOM     25  H1  M99 d   1      23.123  -2.046  36.851  0.00  0.00     0.195 H 
ENDBRANCH  21  22
ENDBRANCH   7  21
ENDBRANCH   1   3
BRANCH   1  26
ATOM     26  C10 M99 d   1      21.344  -4.756  29.153  0.00  0.00     0.084 A 
ATOM     27  N1  M99 d   1      22.558  -4.648  28.544  0.00  0.00    -0.256 NA
ATOM     28  C11 M99 d   1      23.030  -5.858  27.933  0.00  0.00     0.019 A 
ATOM     29  C14 M99 d   1      22.047  -6.842  28.149  0.00  0.00     0.054 A 
ATOM     30  H11 M99 d   1      23.972  -5.990  27.402  0.00  0.00     0.116 H 
ATOM     31  S1  M99 d   1      20.700  -6.276  28.950  0.00  0.00    -0.073 SA
BRANCH  29  32
ATOM     32  C15 M99 d   1      22.171  -8.267  27.661  0.00  0.00     0.289 C 
BRANCH  32  33
ATOM     33  O3  M99 d   1      21.018  -9.011  28.077  0.00  0.00    -0.369 OA
ATOM     34  H12 M99 d   1      21.094  -9.907  27.771  0.00  0.00     0.211 HD
ENDBRANCH  32  33
BRANCH  32  35
ATOM     35  C16 M99 d   1      23.397  -8.957  28.330  0.00  0.00     0.432 C 
ATOM     36  F5  M99 d   1      23.497 -10.244  27.901  0.00  0.00    -0.167 F 
ATOM     37  F6  M99 d   1      23.218  -8.945  29.673  0.00  0.00    -0.167 F 
ATOM     38  F7  M99 d   1      24.539  -8.295  28.021  0.00  0.00    -0.167 F 
ENDBRANCH  32  35
BRANCH  32  39
ATOM     39  C17 M99 d   1      22.271  -8.284  26.100  0.00  0.00     0.432 C 
ATOM     40  F8  M99 d   1      21.190  -7.666  25.575  0.00  0.00    -0.167 F 
ATOM     41  F9  M99 d   1      22.310  -9.560  25.644  0.00  0.00    -0.167 F 
ATOM     42  F10 M99 d   1      23.393  -7.637  25.707  0.00  0.00    -0.167 F 
ENDBRANCH  32  39
ENDBRANCH  29  32
ENDBRANCH   1  26
BRANCH   1  43
ATOM     43  C18 M99 d   1      20.799  -2.317  29.084  0.00  0.00    -0.027 C 
ATOM     44  H13 M99 d   1      21.861  -2.032  29.078  0.00  0.00     0.041 H 
ATOM     45  H14 M99 d   1      20.213  -1.538  29.593  0.00  0.00     0.041 H 
BRANCH  43  46
ATOM     46  C19 M99 d   1      20.324  -2.410  27.651  0.00  0.00    -0.039 A 
ATOM     47  C20 M99 d   1      20.959  -1.671  26.668  0.00  0.00    -0.074 A 
ATOM     48  C21 M99 d   1      20.531  -1.757  25.345  0.00  0.00    -0.065 A 
ATOM     49  H15 M99 d   1      21.790  -1.025  26.928  0.00  0.00     0.084 H 
ATOM     50  C23 M99 d   1      19.471  -2.577  24.993  0.00  0.00     0.010 A 
ATOM     51  H16 M99 d   1      21.034  -1.175  24.581  0.00  0.00     0.085 H 
ATOM     52  N2  M99 d   1      18.833  -3.320  25.978  0.00  0.00    -0.211 N 
ATOM     53  H18 M99 d   1      19.144  -2.638  23.961  0.00  0.00     0.115 H 
ATOM     54  C22 M99 d   1      19.256  -3.236  27.306  0.00  0.00     0.016 A 
ATOM     55  O4  M99 d   1      17.821  -4.133  25.652  0.00  0.00    -0.082 OA
ATOM     56  H17 M99 d   1      18.752  -3.815  28.071  0.00  0.00     0.116 H 
ENDBRANCH  43  46
ENDBRANCH   1  43
TORSDOF 12
