REMARK  6 active torsions:
REMARK  status: ('A' for Active; 'I' for Inactive)
REMARK    1  A    between atoms: C13_5  and  C29_19 
REMARK    2  A    between atoms: C14_6  and  C33_12 
REMARK    3  A    between atoms: C20_8  and  O28_11 
REMARK       I    between atoms: N3_13  and  C38_20 
REMARK    4  A    between atoms: C5_15  and  C17_17 
REMARK       I    between atoms: C38_20  and  N39_21 
REMARK    5  A    between atoms: N39_21  and  C40_22 
REMARK    6  A    between atoms: N39_21  and  C44_23 
ROOT
ATOM      1  C1  3QC d   1      22.967  81.593  47.963  0.00  0.00    -0.027 A 
ATOM      2  C2  3QC d   1      22.760  82.518  49.108  0.00  0.00     0.024 C 
ATOM      3  C11 3QC d   1      24.081  79.624  46.899  0.00  0.00    -0.075 A 
ATOM      4  C12 3QC d   1      23.463  79.968  45.657  0.00  0.00    -0.076 A 
ATOM      5  C13 3QC d   1      22.580  81.101  45.600  0.00  0.00    -0.056 A 
ATOM      6  C14 3QC d   1      22.332  81.916  46.744  0.00  0.00    -0.048 A 
ATOM      7  N3  3QC d   1      23.585  82.270  50.263  0.00  0.00    -0.329 N 
ATOM      8  C4  3QC d   1      23.652  80.846  50.557  0.00  0.00     0.011 C 
ATOM      9  C5  3QC d   1      24.476  80.312  49.384  0.00  0.00     0.013 C 
ATOM     10  C6  3QC d   1      23.809  80.448  48.050  0.00  0.00    -0.040 A 
ATOM     11  C38 3QC d   1      24.024  83.237  51.119  0.00  0.00     0.320 C 
ATOM     12  N39 3QC d   1      24.378  84.474  50.653  0.00  0.00    -0.343 N 
ATOM     13  O48 3QC d   1      24.101  82.991  52.320  0.00  0.00    -0.247 OA
ATOM     14  H1  3QC d   1      21.708  82.441  49.420  0.00  0.00     0.071 H 
ATOM     15  H2  3QC d   1      22.965  83.541  48.759  0.00  0.00     0.071 H 
ATOM     16  H3  3QC d   1      24.738  78.765  46.974  0.00  0.00     0.084 H 
ATOM     17  H4  3QC d   1      23.658  79.381  44.767  0.00  0.00     0.084 H 
ATOM     18  H12 3QC d   1      22.649  80.395  50.577  0.00  0.00     0.066 H 
ATOM     19  H13 3QC d   1      24.157  80.660  51.516  0.00  0.00     0.066 H 
ATOM     20  H14 3QC d   1      24.226  79.250  49.525  0.00  0.00     0.057 H 
ENDROOT
BRANCH   9  21
ATOM     21  C17 3QC d   1      25.941  80.120  49.558  0.00  0.00    -0.045 A 
ATOM     22  C19 3QC d   1      26.409  79.224  50.591  0.00  0.00    -0.044 A 
ATOM     23  C20 3QC d   1      27.849  79.039  50.698  0.00  0.00     0.066 A 
ATOM     24  H5  3QC d   1      25.720  78.714  51.255  0.00  0.00     0.088 H 
ATOM     25  C21 3QC d   1      28.767  79.717  49.795  0.00  0.00    -0.051 A 
ATOM     26  C22 3QC d   1      28.313  80.612  48.777  0.00  0.00    -0.080 A 
ATOM     27  H6  3QC d   1      29.831  79.537  49.898  0.00  0.00     0.087 H 
ATOM     28  C23 3QC d   1      26.888  80.811  48.689  0.00  0.00    -0.076 A 
ATOM     29  H7  3QC d   1      29.003  81.114  48.108  0.00  0.00     0.083 H 
ATOM     30  H15 3QC d   1      26.504  81.502  47.947  0.00  0.00     0.084 H 
BRANCH  23  31
ATOM     31  O28 3QC d   1      28.372  78.198  51.660  0.00  0.00    -0.361 OA
ATOM     32  H8  3QC d   1      27.664  77.827  52.174  0.00  0.00     0.217 HD
ENDBRANCH  23  31
ENDBRANCH   9  21
BRANCH   6  33
ATOM     33  C33 3QC d   1      21.441  83.072  46.685  0.00  0.00    -0.050 C 
ATOM     34  H9  3QC d   1      21.396  83.551  47.674  0.00  0.00     0.033 H 
ATOM     35  H10 3QC d   1      20.433  82.744  46.391  0.00  0.00     0.033 H 
ATOM     36  H11 3QC d   1      21.822  83.792  45.946  0.00  0.00     0.033 H 
ENDBRANCH   6  33
BRANCH  12  37
ATOM     37  C40 3QC d   1      24.791  84.858  49.291  0.00  0.00    -0.015 C 
ATOM     38  H19 3QC d   1      25.005  85.936  49.263  0.00  0.00     0.056 H 
ATOM     39  H20 3QC d   1      23.981  84.627  48.583  0.00  0.00     0.056 H 
ATOM     40  H21 3QC d   1      25.695  84.297  49.010  0.00  0.00     0.056 H 
ENDBRANCH  12  37
BRANCH  12  41
ATOM     41  C44 3QC d   1      24.354  85.528  51.664  0.00  0.00    -0.015 C 
ATOM     42  H22 3QC d   1      24.030  85.105  52.627  0.00  0.00     0.056 H 
ATOM     43  H23 3QC d   1      23.652  86.317  51.355  0.00  0.00     0.056 H 
ATOM     44  H24 3QC d   1      25.362  85.956  51.772  0.00  0.00     0.056 H 
ENDBRANCH  12  41
BRANCH   5  45
ATOM     45  C29 3QC d   1      21.860  81.432  44.346  0.00  0.00    -0.051 C 
ATOM     46  H16 3QC d   1      22.151  80.722  43.558  0.00  0.00     0.033 H 
ATOM     47  H17 3QC d   1      22.120  82.454  44.033  0.00  0.00     0.033 H 
ATOM     48  H18 3QC d   1      20.776  81.365  44.517  0.00  0.00     0.033 H 
ENDBRANCH   5  45
TORSDOF 6
