REMARK  29 active torsions:
REMARK  status: ('A' for Active; 'I' for Inactive)
REMARK    1  A    between atoms: N_1  and  CA_2 
REMARK    2  A    between atoms: CA_2  and  C_3 
REMARK    3  A    between atoms: CA_2  and  CB_5 
REMARK       I    between atoms: C_3  and  N_7 
REMARK    4  A    between atoms: CB_5  and  OG_6 
REMARK    5  A    between atoms: N_7  and  CA_8 
REMARK    6  A    between atoms: CA_8  and  C_9 
REMARK    7  A    between atoms: CA_8  and  CB_11 
REMARK       I    between atoms: C_9  and  N_12 
REMARK    8  A    between atoms: CA_13  and  C_14 
REMARK       I    between atoms: C_14  and  N_19 
REMARK    9  A    between atoms: N_19  and  CA_20 
REMARK   10  A    between atoms: CA_20  and  C_21 
REMARK   11  A    between atoms: CA_20  and  CB_23 
REMARK       I    between atoms: C_21  and  N_27 
REMARK   12  A    between atoms: CB_23  and  CG_24 
REMARK   13  A    between atoms: N_27  and  CA_28 
REMARK   14  A    between atoms: CA_28  and  C_29 
REMARK   15  A    between atoms: CA_28  and  CB_31 
REMARK       I    between atoms: C_29  and  N_38 
REMARK   16  A    between atoms: CB_31  and  CG_32 
REMARK   17  A    between atoms: N_38  and  CA_39 
REMARK   18  A    between atoms: CA_39  and  C_40 
REMARK   19  A    between atoms: CA_39  and  CB_42 
REMARK       I    between atoms: C_40  and  N_49 
REMARK   20  A    between atoms: CB_42  and  CG_43 
REMARK   21  A    between atoms: CG_43  and  CD_44 
REMARK   22  A    between atoms: CD_44  and  NE_45 
REMARK       I    between atoms: NE_45  and  CZ_46 
REMARK       I    between atoms: CZ_46  and  NH1_47 
REMARK   23  A    between atoms: CA_50  and  C_51 
REMARK       I    between atoms: C_51  and  N_56 
REMARK   24  A    between atoms: N_56  and  CA_57 
REMARK   25  A    between atoms: CA_57  and  C_58 
REMARK   26  A    between atoms: CA_57  and  CB_60 
REMARK   27  A    between atoms: CB_60  and  CG_61 
REMARK   28  A    between atoms: CG_61  and  CD1_62 
REMARK   29  A    between atoms: CG_61  and  CD2_63 
ROOT
ATOM      1  CA  PHE d   1      41.504  58.581  -6.224  0.00  0.00     0.093 C 
ATOM      2  H25 PHE d   1      42.392  58.524  -6.870  0.00  0.00     0.088 H 
ENDROOT
BRANCH   1   3
ATOM      3  N   PHE d   1      41.951  59.053  -4.909  0.00  0.00    -0.346 N 
ATOM      4  C   ASP d   1      42.962  59.910  -4.796  0.00  0.00     0.241 C 
ATOM      5  O   ASP d   1      43.566  60.345  -5.771  0.00  0.00    -0.271 OA
ATOM      6  H24 PHE d   1      41.489  58.725  -4.085  0.00  0.00     0.163 HD
BRANCH   4   7
ATOM      7  CA  ASP d   1      43.375  60.337  -3.387  0.00  0.00     0.098 C 
ATOM      8  H21 ASP d   1      42.641  59.976  -2.651  0.00  0.00     0.088 H 
BRANCH   7   9
ATOM      9  N   ASP d   1      44.675  59.746  -3.142  0.00  0.00    -0.346 N 
ATOM     10  C   PRO d   1      44.809  58.577  -2.538  0.00  0.00     0.241 C 
ATOM     11  O   PRO d   1      43.856  57.915  -2.139  0.00  0.00    -0.271 OA
ATOM     12  H20 ASP d   1      45.495  60.236  -3.438  0.00  0.00     0.163 HD
BRANCH  10  13
ATOM     13  CA  PRO d   1      46.239  58.090  -2.374  0.00  0.00     0.091 C 
ATOM     14  N   PRO d   1      46.360  57.007  -1.398  0.00  0.00    -0.337 N 
ATOM     15  C   ALA d   1      46.238  57.225  -0.081  0.00  0.00     0.243 C 
ATOM     16  CD  PRO d   1      46.550  55.709  -2.077  0.00  0.00    -0.001 C 
ATOM     17  O   ALA d   1      46.002  58.339   0.374  0.00  0.00    -0.271 OA
ATOM     18  CG  PRO d   1      46.248  56.046  -3.527  0.00  0.00    -0.048 C 
ATOM     19  H18 PRO d   1      45.850  54.953  -1.691  0.00  0.00     0.064 H 
ATOM     20  H19 PRO d   1      47.582  55.347  -1.960  0.00  0.00     0.064 H 
ATOM     21  CB  PRO d   1      46.766  57.454  -3.648  0.00  0.00    -0.036 C 
ATOM     22  H16 PRO d   1      46.778  55.367  -4.212  0.00  0.00     0.035 H 
ATOM     23  H17 PRO d   1      45.168  56.001  -3.729  0.00  0.00     0.035 H 
ATOM     24  H14 PRO d   1      47.865  57.475  -3.681  0.00  0.00     0.036 H 
ATOM     25  H15 PRO d   1      46.363  57.953  -4.541  0.00  0.00     0.036 H 
ATOM     26  H13 PRO d   1      46.868  58.943  -2.079  0.00  0.00     0.087 H 
BRANCH  15  27
ATOM     27  CA  ALA d   1      46.386  56.021   0.837  0.00  0.00     0.086 C 
ATOM     28  H9  ALA d   1      47.164  55.361   0.426  0.00  0.00     0.086 H 
BRANCH  27  29
ATOM     29  N   ALA d   1      46.789  56.430   2.176  0.00  0.00    -0.346 N 
ATOM     30  C   SER d   1      47.980  56.971   2.410  0.00  0.00     0.251 C 
ATOM     31  O   SER d   1      48.815  57.156   1.529  0.00  0.00    -0.271 OA
ATOM     32  H8  ALA d   1      46.154  56.300   2.938  0.00  0.00     0.163 HD
BRANCH  30  33
ATOM     33  CA  SER d   1      48.282  57.362   3.851  0.00  0.00     0.195 C 
ATOM     34  H4  SER d   1      47.432  57.072   4.486  0.00  0.00     0.102 H 
BRANCH  33  35
ATOM     35  N   SER d   1      49.507  56.656   4.331  0.00  0.00    -0.064 N 
ATOM     36  H1  SER d   1      49.696  56.922   5.285  0.00  0.00     0.275 HD
ATOM     37  H2  SER d   1      50.290  56.909   3.749  0.00  0.00     0.275 HD
ATOM     38  H3  SER d   1      49.361  55.660   4.283  0.00  0.00     0.275 HD
ENDBRANCH  33  35
BRANCH  33  39
ATOM     39  CB  SER d   1      48.480  58.881   3.946  0.00  0.00     0.051 C 
ATOM     40  H5  SER d   1      49.281  59.182   3.255  0.00  0.00     0.077 H 
ATOM     41  H6  SER d   1      48.767  59.141   4.976  0.00  0.00     0.077 H 
BRANCH  39  42
ATOM     42  OG  SER d   1      47.294  59.577   3.608  0.00  0.00    -0.398 OA
ATOM     43  H7  SER d   1      46.599  59.325   4.205  0.00  0.00     0.209 HD
ENDBRANCH  39  42
ENDBRANCH  33  39
ENDBRANCH  30  33
ENDBRANCH  27  29
BRANCH  27  44
ATOM     44  CB  ALA d   1      45.077  55.255   0.890  0.00  0.00    -0.049 C 
ATOM     45  H10 ALA d   1      44.787  54.954  -0.127  0.00  0.00     0.030 H 
ATOM     46  H11 ALA d   1      44.294  55.897   1.320  0.00  0.00     0.030 H 
ATOM     47  H12 ALA d   1      45.201  54.359   1.516  0.00  0.00     0.030 H 
ENDBRANCH  27  44
ENDBRANCH  15  27
ENDBRANCH  10  13
ENDBRANCH   7   9
BRANCH   7  48
ATOM     48  CB  ASP d   1      43.498  61.861  -3.289  0.00  0.00     0.043 C 
ATOM     49  H22 ASP d   1      44.216  62.205  -4.048  0.00  0.00     0.052 H 
ATOM     50  H23 ASP d   1      43.871  62.120  -2.287  0.00  0.00     0.052 H 
BRANCH  48  51
ATOM     51  CG  ASP d   1      42.186  62.569  -3.512  0.00  0.00     0.175 C 
ATOM     52  OD1 ASP d   1      42.175  63.820  -3.476  0.00  0.00    -0.648 OA
ATOM     53  OD2 ASP d   1      41.168  61.875  -3.726  0.00  0.00    -0.648 OA
ENDBRANCH  48  51
ENDBRANCH   7  48
ENDBRANCH   4   7
ENDBRANCH   1   3
BRANCH   1  54
ATOM     54  C   PHE d   1      40.492  59.499  -6.899  0.00  0.00     0.241 C 
ATOM     55  O   PHE d   1      39.587  60.023  -6.257  0.00  0.00    -0.271 OA
ATOM     56  N   ARG d   1      40.647  59.684  -8.206  0.00  0.00    -0.346 N 
ATOM     57  H33 ARG d   1      41.411  59.240  -8.673  0.00  0.00     0.163 HD
BRANCH  56  58
ATOM     58  CA  ARG d   1      39.729  60.520  -8.979  0.00  0.00     0.089 C 
ATOM     59  H34 ARG d   1      38.880  60.809  -8.341  0.00  0.00     0.087 H 
BRANCH  58  60
ATOM     60  C   ARG d   1      39.208  59.694 -10.158  0.00  0.00     0.243 C 
ATOM     61  O   ARG d   1      39.940  58.877 -10.717  0.00  0.00    -0.271 OA
ATOM     62  N   PRO d   1      37.933  59.899 -10.544  0.00  0.00    -0.337 N 
ATOM     63  CA  PRO d   1      37.242  59.207 -11.636  0.00  0.00     0.091 C 
ATOM     64  CD  PRO d   1      37.098  61.008 -10.055  0.00  0.00    -0.001 C 
ATOM     65  CB  PRO d   1      36.066  60.125 -11.931  0.00  0.00    -0.036 C 
ATOM     66  H46 PRO d   1      36.871  58.242 -11.260  0.00  0.00     0.087 H 
ATOM     67  CG  PRO d   1      35.737  60.639 -10.595  0.00  0.00    -0.048 C 
ATOM     68  H47 PRO d   1      35.222  59.567 -12.364  0.00  0.00     0.036 H 
ATOM     69  H48 PRO d   1      36.355  60.939 -12.612  0.00  0.00     0.036 H 
ATOM     70  H49 PRO d   1      35.258  59.866  -9.976  0.00  0.00     0.035 H 
ATOM     71  H50 PRO d   1      35.080  61.519 -10.656  0.00  0.00     0.035 H 
ATOM     72  H51 PRO d   1      37.439  61.973 -10.458  0.00  0.00     0.064 H 
ATOM     73  H52 PRO d   1      37.094  61.050  -8.956  0.00  0.00     0.064 H 
BRANCH  63  74
ATOM     74  C   PRO d   1      38.053  58.911 -12.881  0.00  0.00     0.241 C 
ATOM     75  O   PRO d   1      38.904  59.690 -13.291  0.00  0.00    -0.271 OA
ATOM     76  N   LEU d   1      37.763  57.762 -13.475  0.00  0.00    -0.345 N 
ATOM     77  H53 LEU d   1      37.064  57.173 -13.068  0.00  0.00     0.163 HD
BRANCH  76  78
ATOM     78  CA  LEU d   1      38.420  57.326 -14.692  0.00  0.00     0.096 C 
ATOM     79  H54 LEU d   1      39.341  57.907 -14.847  0.00  0.00     0.089 H 
BRANCH  78  80
ATOM     80  C   LEU d   1      37.463  57.571 -15.862  0.00  0.00     0.196 C 
ATOM     81  O   LEU d   1      37.654  56.983 -16.947  0.00  0.00    -0.646 OA
ATOM     82  OXT LEU d   1      36.536  58.383 -15.675  0.00  0.00    -0.646 OA
ENDBRANCH  78  80
BRANCH  78  83
ATOM     83  CB  LEU d   1      38.777  55.841 -14.567  0.00  0.00    -0.034 C 
ATOM     84  H55 LEU d   1      39.645  55.774 -13.894  0.00  0.00     0.037 H 
ATOM     85  H56 LEU d   1      39.063  55.493 -15.570  0.00  0.00     0.037 H 
BRANCH  83  86
ATOM     86  CG  LEU d   1      37.719  54.862 -14.036  0.00  0.00    -0.059 C 
ATOM     87  H57 LEU d   1      37.280  55.273 -13.115  0.00  0.00     0.038 H 
BRANCH  86  88
ATOM     88  CD1 LEU d   1      36.617  54.661 -15.060  0.00  0.00    -0.073 C 
ATOM     89  H58 LEU d   1      35.870  53.958 -14.662  0.00  0.00     0.028 H 
ATOM     90  H59 LEU d   1      37.047  54.253 -15.986  0.00  0.00     0.028 H 
ATOM     91  H60 LEU d   1      36.135  55.626 -15.274  0.00  0.00     0.028 H 
ENDBRANCH  86  88
BRANCH  86  92
ATOM     92  CD2 LEU d   1      38.381  53.524 -13.723  0.00  0.00    -0.073 C 
ATOM     93  H61 LEU d   1      39.179  53.674 -12.981  0.00  0.00     0.028 H 
ATOM     94  H62 LEU d   1      38.812  53.104 -14.644  0.00  0.00     0.028 H 
ATOM     95  H63 LEU d   1      37.630  52.829 -13.319  0.00  0.00     0.028 H 
ENDBRANCH  86  92
ENDBRANCH  83  86
ENDBRANCH  78  83
ENDBRANCH  76  78
ENDBRANCH  63  74
ENDBRANCH  58  60
BRANCH  58  96
ATOM     96  CB  ARG d   1      40.434  61.795  -9.459  0.00  0.00    -0.036 C 
ATOM     97  H35 ARG d   1      39.717  62.394 -10.040  0.00  0.00     0.036 H 
ATOM     98  H36 ARG d   1      41.278  61.507 -10.103  0.00  0.00     0.036 H 
BRANCH  96  99
ATOM     99  CG  ARG d   1      40.967  62.651  -8.314  0.00  0.00    -0.048 C 
ATOM    100  H37 ARG d   1      41.791  62.111  -7.824  0.00  0.00     0.035 H 
ATOM    101  H38 ARG d   1      40.155  62.817  -7.590  0.00  0.00     0.035 H 
BRANCH  99 102
ATOM    102  CD  ARG d   1      41.482  64.000  -8.786  0.00  0.00     0.009 C 
ATOM    103  H39 ARG d   1      40.633  64.599  -9.148  0.00  0.00     0.064 H 
ATOM    104  H40 ARG d   1      42.196  63.841  -9.608  0.00  0.00     0.064 H 
BRANCH 102 105
ATOM    105  NE  ARG d   1      42.152  64.729  -7.712  0.00  0.00    -0.227 N 
ATOM    106  CZ  ARG d   1      42.535  66.001  -7.794  0.00  0.00     0.665 C 
ATOM    107  NH1 ARG d   1      43.141  66.582  -6.770  0.00  0.00    -0.235 N 
ATOM    108  NH2 ARG d   1      42.305  66.698  -8.897  0.00  0.00    -0.235 N 
ATOM    109  H42 ARG d   1      43.436  67.567  -6.837  0.00  0.00     0.174 HD
ATOM    110  H43 ARG d   1      43.317  66.049  -5.906  0.00  0.00     0.174 HD
ATOM    111  H44 ARG d   1      41.834  66.254  -9.698  0.00  0.00     0.174 HD
ATOM    112  H45 ARG d   1      42.597  67.684  -8.953  0.00  0.00     0.174 HD
ATOM    113  H41 ARG d   1      42.340  64.225  -6.833  0.00  0.00     0.177 HD
ENDBRANCH 102 105
ENDBRANCH  99 102
ENDBRANCH  96  99
ENDBRANCH  58  96
ENDBRANCH  56  58
ENDBRANCH   1  54
BRANCH   1 114
ATOM    114  CB  PHE d   1      40.881  57.182  -6.129  0.00  0.00    -0.014 C 
ATOM    115  H26 PHE d   1      40.548  56.884  -7.134  0.00  0.00     0.043 H 
ATOM    116  H27 PHE d   1      40.012  57.236  -5.457  0.00  0.00     0.043 H 
BRANCH 114 117
ATOM    117  CG  PHE d   1      41.813  56.126  -5.609  0.00  0.00    -0.056 A 
ATOM    118  CD1 PHE d   1      41.778  55.746  -4.267  0.00  0.00    -0.077 A 
ATOM    119  CE1 PHE d   1      42.631  54.753  -3.779  0.00  0.00    -0.082 A 
ATOM    120  H28 PHE d   1      41.079  56.228  -3.593  0.00  0.00     0.084 H 
ATOM    121  CZ  PHE d   1      43.534  54.129  -4.643  0.00  0.00    -0.083 A 
ATOM    122  H30 PHE d   1      42.592  54.468  -2.734  0.00  0.00     0.083 H 
ATOM    123  CE2 PHE d   1      43.581  54.501  -5.991  0.00  0.00    -0.082 A 
ATOM    124  H32 PHE d   1      44.198  53.358  -4.270  0.00  0.00     0.083 H 
ATOM    125  CD2 PHE d   1      42.720  55.497  -6.463  0.00  0.00    -0.077 A 
ATOM    126  H31 PHE d   1      44.280  54.020  -6.665  0.00  0.00     0.083 H 
ATOM    127  H29 PHE d   1      42.758  55.785  -7.508  0.00  0.00     0.084 H 
ENDBRANCH 114 117
ENDBRANCH   1 114
TORSDOF 29
