REMARK  9 active torsions:
REMARK  status: ('A' for Active; 'I' for Inactive)
REMARK    1  A    between atoms: S_1  and  N1_4 
REMARK    2  A    between atoms: C4_8  and  S_1 
REMARK    3  A    between atoms: C1_5  and  C7_11 
REMARK    4  A    between atoms: C7_11  and  C8_12 
REMARK    5  A    between atoms: C8_12  and  N9_13 
REMARK       I    between atoms: N9_13  and  C10_14 
REMARK    6  A    between atoms: C10_14  and  C11_16 
REMARK    7  A    between atoms: C15_20  and  N17_22 
REMARK       I    between atoms: N17_22  and  C18_23 
REMARK    8  A    between atoms: C18_23  and  C19_25 
REMARK    9  A    between atoms: C19_25  and  N20_26 
ROOT
ATOM      1  C11 B22 d   1      12.538  -3.063   6.521  0.00  0.00     0.034 A 
ATOM      2  C12 B22 d   1      11.217  -3.411   6.643  0.00  0.00    -0.068 A 
ATOM      3  C13 B22 d   1      10.350  -3.281   5.554  0.00  0.00    -0.080 A 
ATOM      4  C14 B22 d   1      10.833  -2.795   4.353  0.00  0.00    -0.057 A 
ATOM      5  C15 B22 d   1      12.165  -2.445   4.239  0.00  0.00     0.035 A 
ATOM      6  C16 B22 d   1      13.011  -2.590   5.310  0.00  0.00    -0.042 A 
ATOM      7  H12 B22 d   1      10.844  -3.788   7.588  0.00  0.00     0.085 H 
ATOM      8  H13 B22 d   1       9.307  -3.559   5.651  0.00  0.00     0.083 H 
ATOM      9  H14 B22 d   1      10.169  -2.689   3.503  0.00  0.00     0.086 H 
ATOM     10  H15 B22 d   1      14.059  -2.332   5.206  0.00  0.00     0.088 H 
ENDROOT
BRANCH   1  11
ATOM     11  C10 B22 d   1      13.607  -3.140   7.581  0.00  0.00     0.251 C 
ATOM     12  N9  B22 d   1      13.416  -3.642   8.796  0.00  0.00    -0.357 N 
ATOM     13  H11 B22 d   1      12.455  -3.776   9.038  0.00  0.00     0.162 HD
ATOM     14  O10 B22 d   1      14.666  -2.513   7.261  0.00  0.00    -0.268 OA
BRANCH  12  15
ATOM     15  C8  B22 d   1      14.352  -4.031   9.835  0.00  0.00    -0.001 C 
ATOM     16  H9  B22 d   1      13.893  -4.734  10.546  0.00  0.00     0.064 H 
ATOM     17  H10 B22 d   1      15.261  -4.481   9.409  0.00  0.00     0.064 H 
BRANCH  15  18
ATOM     18  C7  B22 d   1      14.652  -2.694  10.493  0.00  0.00    -0.026 C 
ATOM     19  H7  B22 d   1      15.594  -2.798  11.051  0.00  0.00     0.042 H 
ATOM     20  H8  B22 d   1      14.778  -1.947   9.695  0.00  0.00     0.042 H 
BRANCH  18  21
ATOM     21  C1  B22 d   1      13.605  -2.176  11.448  0.00  0.00    -0.057 A 
ATOM     22  C2  B22 d   1      12.979  -3.009  12.363  0.00  0.00    -0.075 A 
ATOM     23  C3  B22 d   1      12.065  -2.460  13.234  0.00  0.00    -0.060 A 
ATOM     24  H3  B22 d   1      13.204  -4.069  12.392  0.00  0.00     0.084 H 
ATOM     25  C4  B22 d   1      11.727  -1.145  13.201  0.00  0.00     0.079 A 
ATOM     26  H4  B22 d   1      11.598  -3.101  13.973  0.00  0.00     0.085 H 
ATOM     27  C5  B22 d   1      12.345  -0.282  12.300  0.00  0.00    -0.060 A 
ATOM     28  C6  B22 d   1      13.252  -0.833  11.446  0.00  0.00    -0.075 A 
ATOM     29  H5  B22 d   1      12.116   0.777  12.279  0.00  0.00     0.085 H 
ATOM     30  H6  B22 d   1      13.727  -0.183  10.720  0.00  0.00     0.084 H 
BRANCH  25  31
ATOM     31  S   B22 d   1      10.637  -0.531  14.447  0.00  0.00     0.256 S 
ATOM     32  O1  B22 d   1      10.176   0.748  13.993  0.00  0.00    -0.201 OA
ATOM     33  O2  B22 d   1       9.692  -1.559  14.750  0.00  0.00    -0.201 OA
BRANCH  31  34
ATOM     34  N1  B22 d   1      11.454  -0.262  15.804  0.00  0.00    -0.324 N 
ATOM     35  H1  B22 d   1      12.177   0.428  15.824  0.00  0.00     0.169 HD
ATOM     36  H2  B22 d   1      11.239  -0.785  16.629  0.00  0.00     0.169 HD
ENDBRANCH  31  34
ENDBRANCH  25  31
ENDBRANCH  18  21
ENDBRANCH  15  18
ENDBRANCH  12  15
ENDBRANCH   1  11
BRANCH   5  37
ATOM     37  N17 B22 d   1      12.718  -1.953   3.086  0.00  0.00    -0.326 N 
ATOM     38  C18 B22 d   1      13.672  -2.023   2.159  0.00  0.00     0.239 C 
ATOM     39  O18 B22 d   1      14.758  -2.613   2.359  0.00  0.00    -0.271 OA
ATOM     40  H16 B22 d   1      12.136  -1.186   2.815  0.00  0.00     0.169 HD
BRANCH  38  41
ATOM     41  C19 B22 d   1      13.484  -1.156   0.911  0.00  0.00     0.065 C 
ATOM     42  H17 B22 d   1      13.352  -1.804   0.032  0.00  0.00     0.078 H 
ATOM     43  H18 B22 d   1      14.372  -0.522   0.769  0.00  0.00     0.078 H 
BRANCH  41  44
ATOM     44  N20 B22 d   1      12.310  -0.314   1.071  0.00  0.00    -0.386 N 
ATOM     45  C21 B22 d   1      11.036  -0.914   0.744  0.00  0.00     0.074 C 
ATOM     46  C22 B22 d   1      10.262   0.376   0.957  0.00  0.00     0.306 C 
ATOM     47  H20 B22 d   1      10.743  -1.716   1.438  0.00  0.00     0.079 H 
ATOM     48  H21 B22 d   1      10.984  -1.286  -0.290  0.00  0.00     0.079 H 
ATOM     49  OXA B22 d   1       9.497   0.715   0.040  0.00  0.00    -0.261 OA
ATOM     50  OXB B22 d   1      10.524   0.918   2.051  0.00  0.00    -0.149 OA
ATOM     51 CU   B22 d   1      12.173   0.353   3.013  0.00  0.00     0.000 Cu
ATOM     52  OXD B22 d   1      13.941   1.132   3.357  0.00  0.00    -0.149 OA
ATOM     53  C24 B22 d   1      13.836   1.155   2.108  0.00  0.00     0.306 C 
ATOM     54  C23 B22 d   1      12.446   1.043   1.509  0.00  0.00     0.074 C 
ATOM     55  OXC B22 d   1      14.721   1.594   1.341  0.00  0.00    -0.261 OA
ATOM     56  H22 B22 d   1      11.684   1.278   2.267  0.00  0.00     0.079 H 
ATOM     57  H23 B22 d   1      12.341   1.731   0.657  0.00  0.00     0.079 H 
ENDBRANCH  41  44
ENDBRANCH  38  41
ENDBRANCH   5  37
TORSDOF 9
