REMARK  6 active torsions:
REMARK  status: ('A' for Active; 'I' for Inactive)
REMARK    1  A    between atoms: S_1  and  N1_4 
REMARK    2  A    between atoms: C4_8  and  S_1 
REMARK    3  A    between atoms: C1_5  and  C7_11 
REMARK       I    between atoms: C7_11  and  N8_13 
REMARK    4  A    between atoms: N8_13  and  C9_14 
REMARK    5  A    between atoms: C9_14  and  C10_15 
REMARK    6  A    between atoms: C10_15  and  N11_16 
ROOT
ATOM      1  C7  B30 d   1      -3.602   5.686  13.806  0.00  0.00     0.251 C 
ATOM      2  O7  B30 d   1      -4.332   6.685  13.649  0.00  0.00    -0.268 OA
ATOM      3  N8  B30 d   1      -2.366   5.576  13.343  0.00  0.00    -0.355 N 
ATOM      4  H7  B30 d   1      -1.792   4.851  13.723  0.00  0.00     0.162 HD
ENDROOT
BRANCH   3   5
ATOM      5  C9  B30 d   1      -1.764   6.458  12.291  0.00  0.00     0.010 C 
ATOM      6  H8  B30 d   1      -1.189   7.258  12.780  0.00  0.00     0.066 H 
ATOM      7  H9  B30 d   1      -2.571   6.902  11.690  0.00  0.00     0.066 H 
BRANCH   5   8
ATOM      8  C10 B30 d   1      -0.815   5.650  11.352  0.00  0.00     0.006 C 
ATOM      9  H10 B30 d   1      -0.505   4.748  11.901  0.00  0.00     0.066 H 
ATOM     10  H11 B30 d   1       0.065   6.281  11.158  0.00  0.00     0.066 H 
BRANCH   8  11
ATOM     11  N11 B30 d   1      -1.315   5.221  10.083  0.00  0.00    -0.393 N 
ATOM     12  C12 B30 d   1      -2.697   5.302   9.658  0.00  0.00     0.073 C 
ATOM     13  C13 B30 d   1      -3.635   4.445  10.473  0.00  0.00     0.306 C 
ATOM     14  H13 B30 d   1      -2.757   4.980   8.608  0.00  0.00     0.079 H 
ATOM     15  H14 B30 d   1      -3.024   6.349   9.739  0.00  0.00     0.079 H 
ATOM     16  OXA B30 d   1      -4.821   4.749  10.530  0.00  0.00    -0.261 OA
ATOM     17  OXB B30 d   1      -3.106   3.473  11.035  0.00  0.00    -0.149 OA
ATOM     18 CU   B30 d   1      -1.241   3.214  10.444  0.00  0.00     0.000 Cu
ATOM     19  OXC B30 d   1       0.654   2.912  10.121  0.00  0.00    -0.149 OA
ATOM     20  C15 B30 d   1       0.797   4.046   9.633  0.00  0.00     0.306 C 
ATOM     21  C14 B30 d   1      -0.426   4.712   9.044  0.00  0.00     0.073 C 
ATOM     22  OXD B30 d   1       1.885   4.650   9.608  0.00  0.00    -0.261 OA
ATOM     23  H15 B30 d   1      -0.104   5.550   8.408  0.00  0.00     0.079 H 
ATOM     24  H16 B30 d   1      -0.973   3.978   8.434  0.00  0.00     0.079 H 
ENDBRANCH   8  11
ENDBRANCH   5   8
ENDBRANCH   3   5
BRANCH   1  25
ATOM     25  C1  B30 d   1      -4.163   4.528  14.565  0.00  0.00     0.032 A 
ATOM     26  C2  B30 d   1      -3.358   3.472  14.993  0.00  0.00    -0.066 A 
ATOM     27  C3  B30 d   1      -3.901   2.413  15.693  0.00  0.00    -0.059 A 
ATOM     28  H3  B30 d   1      -2.296   3.483  14.774  0.00  0.00     0.085 H 
ATOM     29  C4  B30 d   1      -5.254   2.356  15.948  0.00  0.00     0.079 A 
ATOM     30  H4  B30 d   1      -3.255   1.617  16.046  0.00  0.00     0.085 H 
ATOM     31  C5  B30 d   1      -6.043   3.421  15.544  0.00  0.00    -0.059 A 
ATOM     32  C6  B30 d   1      -5.512   4.482  14.836  0.00  0.00    -0.066 A 
ATOM     33  H5  B30 d   1      -7.099   3.422  15.789  0.00  0.00     0.085 H 
ATOM     34  H6  B30 d   1      -6.160   5.281  14.493  0.00  0.00     0.085 H 
BRANCH  29  35
ATOM     35  S   B30 d   1      -5.924   1.007  16.897  0.00  0.00     0.256 S 
ATOM     36  O1  B30 d   1      -5.356   1.151  18.208  0.00  0.00    -0.201 OA
ATOM     37  O2  B30 d   1      -7.358   1.108  16.733  0.00  0.00    -0.201 OA
BRANCH  35  38
ATOM     38  N1  B30 d   1      -5.402  -0.353  16.213  0.00  0.00    -0.324 N 
ATOM     39  H1  B30 d   1      -4.429  -0.582  16.234  0.00  0.00     0.169 HD
ATOM     40  H2  B30 d   1      -6.051  -0.969  15.767  0.00  0.00     0.169 HD
ENDBRANCH  35  38
ENDBRANCH  29  35
ENDBRANCH   1  25
TORSDOF 6
