REMARK  6 active torsions:
REMARK  status: ('A' for Active; 'I' for Inactive)
REMARK    1  A    between atoms: S_1  and  N1_4 
REMARK    2  A    between atoms: C4_8  and  S_1 
REMARK    3  A    between atoms: C1_5  and  C7_11 
REMARK       I    between atoms: C7_11  and  N8_13 
REMARK    4  A    between atoms: N8_13  and  C9_14 
REMARK    5  A    between atoms: C9_14  and  C10_15 
REMARK    6  A    between atoms: C10_15  and  N11_16 
ROOT
ATOM      1  C9  B30 d   1     -20.276  -0.966 -12.775  0.00  0.00     0.018 C 
ATOM      2  H8  B30 d   1     -20.040  -1.899 -12.243  0.00  0.00     0.066 H 
ATOM      3  H9  B30 d   1     -21.355  -0.927 -12.986  0.00  0.00     0.066 H 
ENDROOT
BRANCH   1   4
ATOM      4  N8  B30 d   1     -19.537  -0.979 -14.100  0.00  0.00    -0.355 N 
ATOM      5  C7  B30 d   1     -19.839  -0.223 -15.161  0.00  0.00     0.251 C 
ATOM      6  O7  B30 d   1     -20.777   0.614 -15.211  0.00  0.00    -0.268 OA
ATOM      7  H7  B30 d   1     -18.761  -1.604 -14.187  0.00  0.00     0.162 HD
BRANCH   5   8
ATOM      8  C1  B30 d   1     -19.018  -0.391 -16.429  0.00  0.00     0.032 A 
ATOM      9  C2  B30 d   1     -18.379  -1.631 -16.719  0.00  0.00    -0.066 A 
ATOM     10  C3  B30 d   1     -17.631  -1.808 -17.904  0.00  0.00    -0.059 A 
ATOM     11  H3  B30 d   1     -18.468  -2.453 -16.018  0.00  0.00     0.085 H 
ATOM     12  C4  B30 d   1     -17.496  -0.767 -18.832  0.00  0.00     0.079 A 
ATOM     13  H4  B30 d   1     -17.155  -2.762 -18.098  0.00  0.00     0.085 H 
ATOM     14  C5  B30 d   1     -18.128   0.466 -18.539  0.00  0.00    -0.059 A 
ATOM     15  C6  B30 d   1     -18.879   0.657 -17.357  0.00  0.00    -0.066 A 
ATOM     16  H5  B30 d   1     -18.033   1.286 -19.241  0.00  0.00     0.085 H 
ATOM     17  H6  B30 d   1     -19.349   1.615 -17.165  0.00  0.00     0.085 H 
BRANCH  12  18
ATOM     18  S   B30 d   1     -16.555  -1.048 -20.329  0.00  0.00     0.256 S 
ATOM     19  O1  B30 d   1     -17.323  -2.008 -21.081  0.00  0.00    -0.201 OA
ATOM     20  O2  B30 d   1     -16.325   0.251 -20.915  0.00  0.00    -0.201 OA
BRANCH  18  21
ATOM     21  N1  B30 d   1     -15.160  -1.703 -19.889  0.00  0.00    -0.324 N 
ATOM     22  H1  B30 d   1     -15.145  -2.608 -19.464  0.00  0.00     0.169 HD
ATOM     23  H2  B30 d   1     -14.305  -1.207 -20.040  0.00  0.00     0.169 HD
ENDBRANCH  18  21
ENDBRANCH  12  18
ENDBRANCH   5   8
ENDBRANCH   1   4
BRANCH   1  24
ATOM     24  C10 B30 d   1     -19.916   0.247 -11.824  0.00  0.00     0.099 C 
ATOM     25  H10 B30 d   1     -20.585   0.158 -10.955  0.00  0.00     0.078 H 
ATOM     26  H11 B30 d   1     -20.168   1.157 -12.388  0.00  0.00     0.078 H 
BRANCH  24  27
ATOM     27  N11 B30 d   1     -18.581   0.471 -11.279  0.00  0.00    -0.052 N 
ATOM     28  C12 B30 d   1     -17.760   1.583 -11.693  0.00  0.00     0.165 C 
ATOM     29  C13 B30 d   1     -17.296   1.522 -13.115  0.00  0.00     0.315 C 
ATOM     30  H13 B30 d   1     -16.872   1.614 -11.044  0.00  0.00     0.091 H 
ATOM     31  H14 B30 d   1     -18.343   2.507 -11.562  0.00  0.00     0.091 H 
ATOM     32  OXA B30 d   1     -17.278   2.566 -13.759  0.00  0.00    -0.261 OA
ATOM     33  OXB B30 d   1     -16.954   0.408 -13.546  0.00  0.00    -0.149 OA
ATOM     34 CU   B30 d   1     -17.104  -1.060 -12.263  0.00  0.00     0.000 Cu
ATOM     35  OXC B30 d   1     -18.064  -2.404 -11.105  0.00  0.00    -0.149 OA
ATOM     36  C15 B30 d   1     -18.379  -1.714 -10.130  0.00  0.00     0.315 C 
ATOM     37  C14 B30 d   1     -17.985  -0.262 -10.147  0.00  0.00     0.165 C 
ATOM     38  OXD B30 d   1     -19.001  -2.163  -9.158  0.00  0.00    -0.261 OA
ATOM     39  H15 B30 d   1     -18.319   0.205  -9.209  0.00  0.00     0.091 H 
ATOM     40  H16 B30 d   1     -16.890  -0.195 -10.220  0.00  0.00     0.091 H 
ATOM     41  H12 B30 d   1     -18.182  -0.157 -11.960  0.00  0.00     0.281 HD
ENDBRANCH  24  27
ENDBRANCH   1  24
TORSDOF 6
