REMARK  11 active torsions:
REMARK  status: ('A' for Active; 'I' for Inactive)
REMARK    1  A    between atoms: P1_2  and  O1_5 
REMARK    2  A    between atoms: O1_5  and  C5_6 
REMARK    3  A    between atoms: C5_6  and  C4_7 
REMARK    4  A    between atoms: C2_10  and  C1_11 
REMARK    5  A    between atoms: C17_12  and  O9_13 
REMARK    6  A    between atoms: C6_14  and  C7_15 
REMARK    7  A    between atoms: N2_16  and  N3_17 
REMARK       I    between atoms: N3_17  and  C8_18 
REMARK    8  A    between atoms: C8_18  and  C9_20 
REMARK    9  A    between atoms: C9_20  and  N4_21 
REMARK       I    between atoms: N4_21  and  C10_22 
REMARK   10  A    between atoms: C10_22  and  C11_24 
REMARK   11  A    between atoms: C16_25  and  C18_26 
ROOT
ATOM      1  N3  P3F d   1      -9.683  11.041  51.378  0.00  0.00    -0.246 N 
ATOM      2  C8  P3F d   1     -10.786  10.927  52.294  0.00  0.00     0.255 C 
ATOM      3  O5  P3F d   1     -11.003  11.287  53.473  0.00  0.00    -0.270 OA
ATOM      4  H9  P3F d   1      -9.910  10.776  50.441  0.00  0.00     0.192 HD
ENDROOT
BRANCH   1   5
ATOM      5  N2  P3F d   1      -8.289  11.470  51.547  0.00  0.00    -0.184 NA
ATOM      6  C7  P3F d   1      -7.594  10.371  51.589  0.00  0.00     0.035 C 
ATOM      7  H8  P3F d   1      -8.283   9.584  51.285  0.00  0.00     0.118 H 
BRANCH   6   8
ATOM      8  C6  P3F d   1      -6.268   9.662  51.863  0.00  0.00     0.028 A 
ATOM      9  C4  P3F d   1      -5.394   9.175  50.890  0.00  0.00    -0.002 A 
ATOM     10  C3  P3F d   1      -4.273   8.432  51.268  0.00  0.00     0.012 A 
ATOM     11  N1  P3F d   1      -4.051   8.109  52.549  0.00  0.00    -0.262 NA
ATOM     12  H3  P3F d   1      -3.569   8.110  50.509  0.00  0.00     0.115 H 
ATOM     13  C2  P3F d   1      -4.872   8.514  53.541  0.00  0.00     0.064 A 
ATOM     14  C17 P3F d   1      -6.012   9.259  53.190  0.00  0.00     0.102 A 
BRANCH   9  15
ATOM     15  C5  P3F d   1      -5.564   9.452  49.403  0.00  0.00     0.058 C 
ATOM     16  H1  P3F d   1      -5.228   8.573  48.834  0.00  0.00     0.082 H 
ATOM     17  H2  P3F d   1      -6.627   9.640  49.193  0.00  0.00     0.082 H 
BRANCH  15  18
ATOM     18  O1  P3F d   1      -4.797  10.594  48.995  0.00  0.00    -0.278 OA
BRANCH  18  19
ATOM     19  P1  P3F d   1      -5.247  11.447  47.689  0.00  0.00     0.422 P 
ATOM     20  O4  P3F d   1      -5.127  10.415  46.593  0.00  0.00    -0.617 OA
ATOM     21  O2  P3F d   1      -6.671  11.879  47.998  0.00  0.00    -0.617 OA
ATOM     22  O3  P3F d   1      -4.225  12.578  47.687  0.00  0.00    -0.617 OA
ENDBRANCH  18  19
ENDBRANCH  15  18
ENDBRANCH   9  15
BRANCH  13  23
ATOM     23  C1  P3F d   1      -4.560   8.121  54.980  0.00  0.00    -0.033 C 
ATOM     24  H4  P3F d   1      -5.330   8.535  55.648  0.00  0.00     0.035 H 
ATOM     25  H5  P3F d   1      -3.575   8.520  55.264  0.00  0.00     0.035 H 
ATOM     26  H6  P3F d   1      -4.551   7.024  55.067  0.00  0.00     0.035 H 
ENDBRANCH  13  23
BRANCH  14  27
ATOM     27  O9  P3F d   1      -6.840   9.658  54.185  0.00  0.00    -0.358 OA
ATOM     28  H7  P3F d   1      -7.173   8.895  54.643  0.00  0.00     0.217 HD
ENDBRANCH  14  27
ENDBRANCH   6   8
ENDBRANCH   1   5
BRANCH   2  29
ATOM     29  C9  P3F d   1     -11.959  10.264  51.627  0.00  0.00     0.071 C 
ATOM     30  H10 P3F d   1     -12.711  11.050  51.463  0.00  0.00     0.078 H 
ATOM     31  H11 P3F d   1     -12.350   9.525  52.342  0.00  0.00     0.078 H 
BRANCH  29  32
ATOM     32  N4  P3F d   1     -11.803   9.571  50.361  0.00  0.00    -0.348 N 
ATOM     33  C10 P3F d   1     -12.516   8.425  50.039  0.00  0.00     0.252 C 
ATOM     34  O6  P3F d   1     -13.307   7.816  50.807  0.00  0.00    -0.268 OA
ATOM     35  H12 P3F d   1     -11.154   9.935  49.693  0.00  0.00     0.163 HD
BRANCH  33  36
ATOM     36  C11 P3F d   1     -12.343   7.848  48.686  0.00  0.00     0.047 A 
ATOM     37  C16 P3F d   1     -12.663   8.646  47.587  0.00  0.00     0.063 A 
ATOM     38  C15 P3F d   1     -12.523   8.200  46.276  0.00  0.00    -0.067 A 
ATOM     39  C14 P3F d   1     -11.985   6.932  46.078  0.00  0.00    -0.082 A 
ATOM     40  H16 P3F d   1     -12.823   8.819  45.438  0.00  0.00     0.084 H 
ATOM     41  C13 P3F d   1     -11.657   6.129  47.150  0.00  0.00    -0.082 A 
ATOM     42  H15 P3F d   1     -11.822   6.571  45.069  0.00  0.00     0.083 H 
ATOM     43  C12 P3F d   1     -11.808   6.584  48.478  0.00  0.00    -0.067 A 
ATOM     44  H14 P3F d   1     -11.276   5.130  46.970  0.00  0.00     0.083 H 
ATOM     45  H13 P3F d   1     -11.513   5.961  49.315  0.00  0.00     0.085 H 
BRANCH  37  46
ATOM     46  C18 P3F d   1     -13.237   9.965  47.766  0.00  0.00     0.418 C 
ATOM     47  F2  P3F d   1     -14.459   9.838  48.321  0.00  0.00    -0.166 F 
ATOM     48  F1  P3F d   1     -13.332  10.603  46.593  0.00  0.00    -0.166 F 
ATOM     49  F3  P3F d   1     -12.600  10.731  48.590  0.00  0.00    -0.166 F 
ENDBRANCH  37  46
ENDBRANCH  33  36
ENDBRANCH  29  32
ENDBRANCH   2  29
TORSDOF 11
