REMARK  10 active torsions:
REMARK  status: ('A' for Active; 'I' for Inactive)
REMARK    1  A    between atoms: C1_1  and  C16_16 
REMARK    2  A    between atoms: C1_1  and  C17_17 
REMARK    3  A    between atoms: C5_5  and  C18_18 
REMARK    4  A    between atoms: C6_6  and  C7_7 
REMARK    5  A    between atoms: C8_8  and  C9_9 
REMARK    6  A    between atoms: C9_9  and  C19_19 
REMARK    7  A    between atoms: C10_10  and  C11_11 
REMARK    8  A    between atoms: C12_12  and  C13_13 
REMARK    9  A    between atoms: C13_13  and  C20_20 
REMARK   10  A    between atoms: C14_14  and  C15_15 
ROOT
ATOM      1  C7  REA d   1      21.924  27.713  18.416  0.00  0.00    -0.075 C 
ATOM      2  C8  REA d   1      21.436  26.896  19.450  0.00  0.00    -0.077 C 
ATOM      3  H7  REA d   1      22.970  28.017  18.420  0.00  0.00     0.084 H 
ATOM      4  H8  REA d   1      20.369  26.692  19.520  0.00  0.00     0.084 H 
ENDROOT
BRANCH   1   5
ATOM      5  C6  REA d   1      21.048  28.159  17.337  0.00  0.00    -0.048 C 
ATOM      6  C1  REA d   1      21.564  29.458  16.749  0.00  0.00    -0.020 C 
ATOM      7  C2  REA d   1      20.518  30.138  15.872  0.00  0.00    -0.054 C 
ATOM      8  C3  REA d   1      19.745  29.129  15.040  0.00  0.00    -0.061 C 
ATOM      9  H1  REA d   1      21.023  30.845  15.197  0.00  0.00     0.034 H 
ATOM     10  H2  REA d   1      19.813  30.685  16.516  0.00  0.00     0.034 H 
ATOM     11  C4  REA d   1      18.946  28.229  15.945  0.00  0.00    -0.044 C 
ATOM     12  H3  REA d   1      20.450  28.523  14.452  0.00  0.00     0.033 H 
ATOM     13  H4  REA d   1      19.064  29.661  14.360  0.00  0.00     0.033 H 
ATOM     14  C5  REA d   1      19.869  27.527  16.888  0.00  0.00    -0.077 C 
ATOM     15  H5  REA d   1      18.405  27.486  15.340  0.00  0.00     0.039 H 
ATOM     16  H6  REA d   1      18.225  28.831  16.517  0.00  0.00     0.039 H 
BRANCH   6  17
ATOM     17  C16 REA d   1      21.882  30.424  17.905  0.00  0.00    -0.065 C 
ATOM     18  H15 REA d   1      22.636  29.970  18.565  0.00  0.00     0.028 H 
ATOM     19  H16 REA d   1      20.965  30.624  18.479  0.00  0.00     0.028 H 
ATOM     20  H17 REA d   1      22.272  31.368  17.497  0.00  0.00     0.028 H 
ENDBRANCH   6  17
BRANCH   6  21
ATOM     21  C17 REA d   1      22.869  29.242  16.014  0.00  0.00    -0.065 C 
ATOM     22  H18 REA d   1      22.705  28.555  15.171  0.00  0.00     0.028 H 
ATOM     23  H19 REA d   1      23.610  28.808  16.702  0.00  0.00     0.028 H 
ATOM     24  H20 REA d   1      23.241  30.206  15.635  0.00  0.00     0.028 H 
ENDBRANCH   6  21
BRANCH  14  25
ATOM     25  C18 REA d   1      19.513  26.141  17.246  0.00  0.00    -0.054 C 
ATOM     26  H21 REA d   1      20.264  25.737  17.941  0.00  0.00     0.033 H 
ATOM     27  H22 REA d   1      19.485  25.523  16.337  0.00  0.00     0.033 H 
ATOM     28  H23 REA d   1      18.524  26.129  17.728  0.00  0.00     0.033 H 
ENDBRANCH  14  25
ENDBRANCH   1   5
BRANCH   2  29
ATOM     29  C9  REA d   1      22.353  26.318  20.433  0.00  0.00    -0.062 C 
ATOM     30  C10 REA d   1      21.754  25.464  21.393  0.00  0.00    -0.077 C 
ATOM     31  H9  REA d   1      20.670  25.371  21.447  0.00  0.00     0.084 H 
BRANCH  30  32
ATOM     32  C11 REA d   1      22.599  24.715  22.303  0.00  0.00    -0.082 C 
ATOM     33  C12 REA d   1      21.925  23.773  23.153  0.00  0.00    -0.077 C 
ATOM     34  H11 REA d   1      20.869  23.552  23.003  0.00  0.00     0.084 H 
ATOM     35  H10 REA d   1      23.678  24.858  22.340  0.00  0.00     0.083 H 
BRANCH  33  36
ATOM     36  C13 REA d   1      22.663  23.125  24.205  0.00  0.00    -0.056 C 
ATOM     37  C14 REA d   1      21.936  22.131  24.838  0.00  0.00    -0.004 C 
ATOM     38  H14 REA d   1      21.004  21.777  24.399  0.00  0.00     0.094 H 
BRANCH  37  39
ATOM     39  C15 REA d   1      22.413  21.558  26.088  0.00  0.00     0.199 C 
ATOM     40  O1  REA d   1      23.517  20.980  26.132  0.00  0.00    -0.644 OA
ATOM     41  O2  REA d   1      21.695  21.595  27.080  0.00  0.00    -0.644 OA
ENDBRANCH  37  39
BRANCH  36  42
ATOM     42  C20 REA d   1      24.038  23.555  24.564  0.00  0.00    -0.051 C 
ATOM     43  H27 REA d   1      24.414  22.931  25.388  0.00  0.00     0.033 H 
ATOM     44  H28 REA d   1      24.022  24.608  24.880  0.00  0.00     0.033 H 
ATOM     45  H29 REA d   1      24.697  23.445  23.690  0.00  0.00     0.033 H 
ENDBRANCH  36  42
ENDBRANCH  33  36
ENDBRANCH  30  32
BRANCH  29  46
ATOM     46  C19 REA d   1      23.816  26.522  20.422  0.00  0.00    -0.051 C 
ATOM     47  H24 REA d   1      24.084  27.213  19.609  0.00  0.00     0.033 H 
ATOM     48  H25 REA d   1      24.320  25.557  20.264  0.00  0.00     0.033 H 
ATOM     49  H26 REA d   1      24.134  26.948  21.385  0.00  0.00     0.033 H 
ENDBRANCH  29  46
ENDBRANCH   2  29
TORSDOF 10
