REMARK  16 active torsions:
REMARK  status: ('A' for Active; 'I' for Inactive)
REMARK    1  A    between atoms: O3_1  and  PA_2 
REMARK    2  A    between atoms: O3_1  and  PN_24 
REMARK    3  A    between atoms: PA_2  and  O5B_5 
REMARK    4  A    between atoms: O5B_5  and  C5B_6 
REMARK    5  A    between atoms: C5B_6  and  C4B_7 
REMARK    6  A    between atoms: C3B_9  and  O3B_10 
REMARK    7  A    between atoms: C2B_11  and  O2B_12 
REMARK    8  A    between atoms: C1B_13  and  N9A_14 
REMARK    9  A    between atoms: C6A_18  and  N6A_19 
REMARK   10  A    between atoms: PN_24  and  O5D_27 
REMARK   11  A    between atoms: O5D_27  and  C5D_28 
REMARK   12  A    between atoms: C5D_28  and  C4D_29 
REMARK   13  A    between atoms: C3D_31  and  O3D_32 
REMARK   14  A    between atoms: C2D_33  and  O2D_34 
REMARK   15  A    between atoms: C1D_35  and  N1N_36 
REMARK   16  A    between atoms: C3N_38  and  C7N_39 
ROOT
ATOM      1  O3  NON d   1      -7.653   6.403  25.250  0.00  0.00    -0.180 OA
ENDROOT
BRANCH   1   2
ATOM      2  PA  NON d   1      -7.719   6.416  26.863  0.00  0.00     0.417 P 
ATOM      3  O1A NON d   1      -6.960   5.284  27.445  0.00  0.00    -0.624 OA
ATOM      4  O2A NON d   1      -7.264   7.717  27.412  0.00  0.00    -0.624 OA
BRANCH   2   5
ATOM      5  O5B NON d   1      -9.294   6.215  27.121  0.00  0.00    -0.287 OA
BRANCH   5   6
ATOM      6  C5B NON d   1      -9.950   5.097  26.568  0.00  0.00     0.058 C 
ATOM      7  H1  NON d   1     -10.349   4.484  27.389  0.00  0.00     0.079 H 
ATOM      8  H2  NON d   1      -9.218   4.510  25.994  0.00  0.00     0.079 H 
BRANCH   6   9
ATOM      9  C4B NON d   1     -11.104   5.478  25.639  0.00  0.00     0.089 C 
ATOM     10  O4B NON d   1     -12.234   5.799  26.420  0.00  0.00    -0.353 OA
ATOM     11  C1B NON d   1     -13.000   6.819  25.820  0.00  0.00     0.139 C 
ATOM     12  C2B NON d   1     -12.049   7.596  24.926  0.00  0.00     0.105 C 
ATOM     13  H8  NON d   1     -13.792   6.377  25.198  0.00  0.00     0.122 H 
ATOM     14  C3B NON d   1     -10.884   6.660  24.701  0.00  0.00     0.091 C 
ATOM     15  H6  NON d   1     -11.711   8.513  25.430  0.00  0.00     0.093 H 
ATOM     16  H4  NON d   1      -9.931   7.163  24.921  0.00  0.00     0.091 H 
ATOM     17  H3  NON d   1     -11.327   4.597  25.020  0.00  0.00     0.090 H 
BRANCH  11  18
ATOM     18  N9A NON d   1     -13.639   7.629  26.880  0.00  0.00    -0.294 N 
ATOM     19  C8A NON d   1     -13.035   8.432  27.818  0.00  0.00     0.071 A 
ATOM     20  N7A NON d   1     -13.994   8.976  28.607  0.00  0.00    -0.236 NA
ATOM     21  H9  NON d   1     -11.964   8.603  27.912  0.00  0.00     0.144 H 
ATOM     22  C5A NON d   1     -15.204   8.520  28.199  0.00  0.00     0.149 A 
ATOM     23  C6A NON d   1     -16.512   8.737  28.645  0.00  0.00     0.155 A 
ATOM     24  C4A NON d   1     -14.989   7.670  27.119  0.00  0.00     0.167 A 
ATOM     25  N1A NON d   1     -17.569   8.109  28.004  0.00  0.00    -0.222 NA
ATOM     26  C2A NON d   1     -17.326   7.271  26.930  0.00  0.00     0.091 A 
ATOM     27  N3A NON d   1     -16.031   7.061  26.499  0.00  0.00    -0.222 NA
ATOM     28  H12 NON d   1     -18.151   6.780  26.427  0.00  0.00     0.146 H 
BRANCH  23  29
ATOM     29  N6A NON d   1     -16.740   9.482  29.722  0.00  0.00    -0.382 N 
ATOM     30  H10 NON d   1     -17.705   9.638  30.045  0.00  0.00     0.157 HD
ATOM     31  H11 NON d   1     -15.951   9.903  30.233  0.00  0.00     0.157 HD
ENDBRANCH  23  29
ENDBRANCH  11  18
BRANCH  12  32
ATOM     32  O2B NON d   1     -12.670   7.940  23.712  0.00  0.00    -0.388 OA
ATOM     33  H7  NON d   1     -12.992   7.153  23.288  0.00  0.00     0.210 HD
ENDBRANCH  12  32
BRANCH  14  34
ATOM     34  O3B NON d   1     -10.895   6.205  23.375  0.00  0.00    -0.390 OA
ATOM     35  H5  NON d   1     -10.758   6.939  22.788  0.00  0.00     0.210 HD
ENDBRANCH  14  34
ENDBRANCH   6   9
ENDBRANCH   5   6
ENDBRANCH   2   5
ENDBRANCH   1   2
BRANCH   1  36
ATOM     36  PN  NON d   1      -6.688   5.457  24.371  0.00  0.00     0.417 P 
ATOM     37  O1N NON d   1      -7.331   4.147  24.152  0.00  0.00    -0.624 OA
ATOM     38  O2N NON d   1      -5.316   5.511  24.920  0.00  0.00    -0.624 OA
BRANCH  36  39
ATOM     39  O5D NON d   1      -6.710   6.255  22.978  0.00  0.00    -0.287 OA
BRANCH  39  40
ATOM     40  C5D NON d   1      -7.918   6.597  22.340  0.00  0.00     0.058 C 
ATOM     41  H13 NON d   1      -8.372   7.462  22.846  0.00  0.00     0.079 H 
ATOM     42  H14 NON d   1      -8.611   5.744  22.379  0.00  0.00     0.079 H 
BRANCH  40  43
ATOM     43  C4D NON d   1      -7.622   6.950  20.889  0.00  0.00     0.089 C 
ATOM     44  O4D NON d   1      -6.404   7.671  20.819  0.00  0.00    -0.353 OA
ATOM     45  C1D NON d   1      -5.613   7.244  19.725  0.00  0.00     0.136 C 
ATOM     46  C2D NON d   1      -6.203   5.934  19.214  0.00  0.00     0.105 C 
ATOM     47  H20 NON d   1      -5.656   8.004  18.931  0.00  0.00     0.122 H 
ATOM     48  C3D NON d   1      -7.474   5.711  20.012  0.00  0.00     0.091 C 
ATOM     49  H18 NON d   1      -5.500   5.107  19.392  0.00  0.00     0.093 H 
ATOM     50  H16 NON d   1      -7.369   4.816  20.643  0.00  0.00     0.091 H 
ATOM     51  H15 NON d   1      -8.443   7.570  20.501  0.00  0.00     0.090 H 
BRANCH  45  52
ATOM     52  N1N NON d   1      -4.198   7.035  20.106  0.00  0.00    -0.336 N 
ATOM     53  C2N NON d   1      -3.210   7.644  19.374  0.00  0.00    -0.004 A 
ATOM     54  C3N NON d   1      -1.869   7.455  19.706  0.00  0.00     0.033 A 
ATOM     55  H21 NON d   1      -3.473   8.275  18.533  0.00  0.00     0.113 H 
ATOM     56  C4N NON d   1      -1.546   6.635  20.788  0.00  0.00    -0.066 A 
ATOM     57  C5N NON d   1      -2.553   6.019  21.521  0.00  0.00    -0.067 A 
ATOM     58  H24 NON d   1      -0.508   6.478  21.057  0.00  0.00     0.085 H 
ATOM     59  C6N NON d   1      -3.881   6.228  21.169  0.00  0.00    -0.018 A 
ATOM     60  H25 NON d   1      -2.305   5.380  22.361  0.00  0.00     0.085 H 
ATOM     61  H26 NON d   1      -4.671   5.751  21.738  0.00  0.00     0.111 H 
BRANCH  54  62
ATOM     62  C7N NON d   1      -0.802   8.078  18.844  0.00  0.00     0.184 C 
ATOM     63  O7N NON d   1      -1.096   8.400  17.501  0.00  0.00    -0.172 OA
ATOM     64  N7N NON d   1       0.406   8.323  19.344  0.00  0.00    -0.377 N 
ATOM     65  H22 NON d   1       1.111   8.737  18.768  0.00  0.00     0.158 HD
ATOM     66  H23 NON d   1       0.609   8.094  20.296  0.00  0.00     0.158 HD
ENDBRANCH  54  62
ENDBRANCH  45  52
BRANCH  46  67
ATOM     67  O2D NON d   1      -6.469   6.022  17.833  0.00  0.00    -0.388 OA
ATOM     68  H19 NON d   1      -6.872   5.214  17.537  0.00  0.00     0.210 HD
ENDBRANCH  46  67
BRANCH  48  69
ATOM     69  O3D NON d   1      -8.589   5.540  19.163  0.00  0.00    -0.390 OA
ATOM     70  H17 NON d   1      -8.675   6.299  18.599  0.00  0.00     0.210 HD
ENDBRANCH  48  69
ENDBRANCH  40  43
ENDBRANCH  39  40
ENDBRANCH  36  39
ENDBRANCH   1  36
TORSDOF 16
