REMARK  15 active torsions:
REMARK  status: ('A' for Active; 'I' for Inactive)
REMARK    1  A    between atoms: C2_1  and  C1_3 
REMARK    2  A    between atoms: C3_4  and  C2_1 
REMARK    3  A    between atoms: C5_2  and  O4_5 
REMARK    4  A    between atoms: O4_5  and  C3_4 
REMARK    5  A    between atoms: C8_7  and  C9_8 
REMARK    6  A    between atoms: C8_7  and  N7_9 
REMARK    7  A    between atoms: C8_7  and  C16_16 
REMARK    8  A    between atoms: C9_8  and  C10_10 
REMARK    9  A    between atoms: C10_10  and  C11_11 
REMARK   10  A    between atoms: C16_16  and  O17_17 
REMARK   11  A    between atoms: C16_16  and  C18_18 
REMARK   12  A    between atoms: C21_21  and  C22_22 
REMARK   13  A    between atoms: C22_22  and  C23_23 
REMARK   14  A    between atoms: C26_26  and  C29_29 
REMARK       I    between atoms: C29_29  and  N31_31 
REMARK   15  A    between atoms: N31_31  and  C32_32 
ROOT
ATOM      1  C16 C3A d   1      -2.862  22.100  68.419  0.00  0.00     0.116 C 
ATOM      2  H23 C3A d   1      -3.196  21.742  67.434  0.00  0.00     0.098 H 
ENDROOT
BRANCH   1   3
ATOM      3  C8  C3A d   1      -1.435  22.438  68.145  0.00  0.00     0.045 C 
ATOM      4  H8  C3A d   1      -1.284  21.944  67.174  0.00  0.00     0.077 H 
BRANCH   3   5
ATOM      5  C9  C3A d   1      -0.980  23.901  67.876  0.00  0.00    -0.043 C 
ATOM      6  H9  C3A d   1      -0.933  24.451  68.827  0.00  0.00     0.036 H 
ATOM      7  H10 C3A d   1      -1.700  24.391  67.204  0.00  0.00     0.036 H 
BRANCH   5   8
ATOM      8  C10 C3A d   1       0.455  23.893  67.198  0.00  0.00    -0.058 C 
ATOM      9  H12 C3A d   1       0.305  23.968  66.111  0.00  0.00     0.033 H 
ATOM     10  H13 C3A d   1       0.926  22.928  67.437  0.00  0.00     0.033 H 
BRANCH   8  11
ATOM     11  C11 C3A d   1       1.446  25.001  67.603  0.00  0.00    -0.029 C 
ATOM     12  C12 C3A d   1       1.048  25.987  68.715  0.00  0.00    -0.038 C 
ATOM     13  C13 C3A d   1       1.736  27.284  68.271  0.00  0.00     0.082 C 
ATOM     14  H15 C3A d   1       1.422  25.654  69.694  0.00  0.00     0.036 H 
ATOM     15  H16 C3A d   1      -0.044  26.113  68.763  0.00  0.00     0.036 H 
ATOM     16  N14 C3A d   1       2.412  27.014  67.004  0.00  0.00    -0.075 N 
ATOM     17  H17 C3A d   1       2.470  27.598  69.028  0.00  0.00     0.075 H 
ATOM     18  H18 C3A d   1       0.987  28.078  68.135  0.00  0.00     0.075 H 
ATOM     19  C15 C3A d   1       1.780  25.867  66.422  0.00  0.00     0.085 C 
ATOM     20  H19 C3A d   1       3.389  26.825  67.167  0.00  0.00     0.277 HD
ATOM     21  H20 C3A d   1       2.322  27.807  66.389  0.00  0.00     0.277 HD
ATOM     22  H21 C3A d   1       0.869  26.156  65.878  0.00  0.00     0.076 H 
ATOM     23  H22 C3A d   1       2.466  25.347  65.737  0.00  0.00     0.076 H 
ATOM     24  H14 C3A d   1       2.359  24.486  67.937  0.00  0.00     0.042 H 
ENDBRANCH   8  11
ENDBRANCH   5   8
ENDBRANCH   3   5
BRANCH   3  25
ATOM     25  N7  C3A d   1      -0.411  21.845  69.008  0.00  0.00    -0.341 N 
ATOM     26  C5  C3A d   1      -0.123  21.190  70.158  0.00  0.00     0.291 C 
ATOM     27  O6  C3A d   1       1.082  20.591  69.962  0.00  0.00    -0.143 OA
ATOM     28  H11 C3A d   1       0.462  21.986  68.542  0.00  0.00     0.164 HD
BRANCH  26  29
ATOM     29  O4  C3A d   1      -0.785  20.723  71.337  0.00  0.00    -0.315 OA
BRANCH  29  30
ATOM     30  C3  C3A d   1       0.126  19.873  72.378  0.00  0.00     0.029 C 
ATOM     31  H6  C3A d   1       0.892  20.589  72.711  0.00  0.00     0.075 H 
ATOM     32  H7  C3A d   1      -0.556  19.651  73.212  0.00  0.00     0.075 H 
BRANCH  30  33
ATOM     33  C2  C3A d   1       0.972  18.447  72.153  0.00  0.00    -0.048 C 
ATOM     34  H1  C3A d   1       1.304  18.203  73.173  0.00  0.00     0.035 H 
ATOM     35  H2  C3A d   1       0.181  17.746  71.848  0.00  0.00     0.035 H 
BRANCH  33  36
ATOM     36  C1  C3A d   1       2.083  18.026  71.357  0.00  0.00    -0.075 C 
ATOM     37  H3  C3A d   1       2.289  16.963  71.549  0.00  0.00     0.027 H 
ATOM     38  H4  C3A d   1       2.969  18.624  71.618  0.00  0.00     0.027 H 
ATOM     39  H5  C3A d   1       1.846  18.167  70.292  0.00  0.00     0.027 H 
ENDBRANCH  33  36
ENDBRANCH  30  33
ENDBRANCH  29  30
ENDBRANCH  26  29
ENDBRANCH   3  25
ENDBRANCH   1   3
BRANCH   1  40
ATOM     40  O17 C3A d   1      -3.613  23.190  68.720  0.00  0.00    -0.386 OA
ATOM     41  H24 C3A d   1      -4.509  22.920  68.885  0.00  0.00     0.210 HD
ENDBRANCH   1  40
BRANCH   1  42
ATOM     42  C18 C3A d   1      -3.396  21.144  69.319  0.00  0.00     0.186 A 
ATOM     43  N19 C3A d   1      -4.499  21.311  69.996  0.00  0.00    -0.108 NA
ATOM     44  O20 C3A d   1      -4.776  20.228  70.714  0.00  0.00    -0.196 OA
ATOM     45  C21 C3A d   1      -3.750  19.332  70.440  0.00  0.00     0.177 A 
ATOM     46  N41 C3A d   1      -2.898  19.894  69.582  0.00  0.00    -0.206 NA
BRANCH  45  47
ATOM     47  C22 C3A d   1      -3.651  18.080  70.963  0.00  0.00     0.022 C 
ATOM     48  H25 C3A d   1      -3.309  18.153  72.006  0.00  0.00     0.052 H 
ATOM     49  H26 C3A d   1      -2.921  17.503  70.377  0.00  0.00     0.052 H 
BRANCH  47  50
ATOM     50  C23 C3A d   1      -4.961  17.378  70.931  0.00  0.00    -0.051 A 
ATOM     51  C24 C3A d   1      -5.920  17.551  72.086  0.00  0.00    -0.075 A 
ATOM     52  C25 C3A d   1      -7.203  16.857  72.081  0.00  0.00    -0.067 A 
ATOM     53  H27 C3A d   1      -5.654  18.192  72.919  0.00  0.00     0.084 H 
ATOM     54  C26 C3A d   1      -7.508  16.009  70.927  0.00  0.00     0.032 A 
ATOM     55  H28 C3A d   1      -7.904  16.965  72.901  0.00  0.00     0.085 H 
ATOM     56  C27 C3A d   1      -6.553  15.885  69.850  0.00  0.00    -0.067 A 
ATOM     57  C28 C3A d   1      -5.330  16.535  69.833  0.00  0.00    -0.075 A 
ATOM     58  H29 C3A d   1      -6.807  15.249  69.010  0.00  0.00     0.085 H 
ATOM     59  H30 C3A d   1      -4.656  16.407  68.994  0.00  0.00     0.084 H 
BRANCH  54  60
ATOM     60  C29 C3A d   1      -8.721  15.239  70.822  0.00  0.00     0.252 C 
ATOM     61  O30 C3A d   1      -9.709  15.557  71.284  0.00  0.00    -0.268 OA
ATOM     62  N31 C3A d   1      -8.504  14.115  70.175  0.00  0.00    -0.352 N 
ATOM     63  H31 C3A d   1      -7.557  14.071  69.858  0.00  0.00     0.163 HD
BRANCH  62  64
ATOM     64  C32 C3A d   1      -9.205  12.956  69.795  0.00  0.00     0.020 C 
ATOM     65  C33 C3A d   1     -10.169  12.209  70.627  0.00  0.00    -0.021 C 
ATOM     66  C34 C3A d   1     -11.044  11.532  69.694  0.00  0.00    -0.050 A 
ATOM     67  H33 C3A d   1     -10.744  12.899  71.262  0.00  0.00     0.043 H 
ATOM     68  H34 C3A d   1      -9.645  11.479  71.261  0.00  0.00     0.043 H 
ATOM     69  C35 C3A d   1     -12.093  10.595  70.037  0.00  0.00    -0.076 A 
ATOM     70  C39 C3A d   1     -10.750  11.880  68.320  0.00  0.00    -0.050 A 
ATOM     71  C36 C3A d   1     -12.856  10.024  68.954  0.00  0.00    -0.082 A 
ATOM     72  H35 C3A d   1     -12.297  10.332  71.069  0.00  0.00     0.084 H 
ATOM     73  C37 C3A d   1     -12.578  10.372  67.557  0.00  0.00    -0.082 A 
ATOM     74  H36 C3A d   1     -13.652   9.323  69.178  0.00  0.00     0.083 H 
ATOM     75  C38 C3A d   1     -11.531  11.319  67.242  0.00  0.00    -0.076 A 
ATOM     76  H37 C3A d   1     -13.157   9.919  66.760  0.00  0.00     0.083 H 
ATOM     77  H38 C3A d   1     -11.336  11.603  66.214  0.00  0.00     0.084 H 
ATOM     78  C40 C3A d   1      -9.631  12.873  68.239  0.00  0.00    -0.021 C 
ATOM     79  H39 C3A d   1      -8.806  12.506  67.610  0.00  0.00     0.043 H 
ATOM     80  H40 C3A d   1      -9.977  13.846  67.859  0.00  0.00     0.043 H 
ATOM     81  H32 C3A d   1      -8.363  12.248  69.825  0.00  0.00     0.073 H 
ENDBRANCH  62  64
ENDBRANCH  54  60
ENDBRANCH  47  50
ENDBRANCH  45  47
ENDBRANCH   1  42
TORSDOF 15
