REMARK  16 active torsions:
REMARK  status: ('A' for Active; 'I' for Inactive)
REMARK    1  A    between atoms: C2_2  and  N1_1 
REMARK    2  A    between atoms: C3_6  and  C2_2 
REMARK    3  A    between atoms: C5_4  and  C4_3 
REMARK    4  A    between atoms: C4_3  and  C3_6 
REMARK    5  A    between atoms: C6_5  and  C5_4 
REMARK    6  A    between atoms: C6_5  and  N7_9 
REMARK    7  A    between atoms: C13_38  and  C6_5 
REMARK       I    between atoms: N7_9  and  C8_7 
REMARK    8  A    between atoms: C8_7  and  O10_10 
REMARK    9  A    between atoms: O10_10  and  C11_11 
REMARK   10  A    between atoms: C11_11  and  C12_12 
REMARK   11  A    between atoms: C13_38  and  O14_13 
REMARK   12  A    between atoms: C15_14  and  C13_38 
REMARK   13  A    between atoms: C18_17  and  C19_18 
REMARK   14  A    between atoms: C19_18  and  C20_19 
REMARK   15  A    between atoms: C23_22  and  C26_25 
REMARK       I    between atoms: C26_25  and  N28_27 
REMARK   16  A    between atoms: N28_27  and  C29_28 
ROOT
ATOM      1  C15 C4A d   1      63.027  42.030  86.094  0.00  0.00     0.186 A 
ATOM      2  N16 C4A d   1      62.873  40.783  86.585  0.00  0.00    -0.108 NA
ATOM      3  O17 C4A d   1      61.822  40.228  86.048  0.00  0.00    -0.196 OA
ATOM      4  C18 C4A d   1      61.292  41.141  85.194  0.00  0.00     0.177 A 
ATOM      5  N38 C4A d   1      62.036  42.260  85.220  0.00  0.00    -0.206 NA
ENDROOT
BRANCH   4   6
ATOM      6  C19 C4A d   1      60.087  40.936  84.357  0.00  0.00     0.022 C 
ATOM      7  H20 C4A d   1      60.259  40.064  83.710  0.00  0.00     0.052 H 
ATOM      8  H21 C4A d   1      59.941  41.831  83.735  0.00  0.00     0.052 H 
BRANCH   6   9
ATOM      9  C20 C4A d   1      58.838  40.700  85.141  0.00  0.00    -0.051 A 
ATOM     10  C21 C4A d   1      58.692  39.519  85.964  0.00  0.00    -0.075 A 
ATOM     11  C22 C4A d   1      57.496  39.293  86.706  0.00  0.00    -0.067 A 
ATOM     12  H22 C4A d   1      59.500  38.799  86.017  0.00  0.00     0.084 H 
ATOM     13  C23 C4A d   1      56.391  40.235  86.665  0.00  0.00     0.032 A 
ATOM     14  H23 C4A d   1      57.409  38.400  87.314  0.00  0.00     0.085 H 
ATOM     15  C24 C4A d   1      56.550  41.411  85.836  0.00  0.00    -0.067 A 
ATOM     16  C25 C4A d   1      57.748  41.640  85.092  0.00  0.00    -0.075 A 
ATOM     17  H24 C4A d   1      55.743  42.133  85.778  0.00  0.00     0.085 H 
ATOM     18  H25 C4A d   1      57.838  42.532  84.483  0.00  0.00     0.084 H 
BRANCH  13  19
ATOM     19  C26 C4A d   1      55.208  40.007  87.402  0.00  0.00     0.252 C 
ATOM     20  O27 C4A d   1      55.102  38.983  88.102  0.00  0.00    -0.268 OA
ATOM     21  N28 C4A d   1      54.187  40.876  87.360  0.00  0.00    -0.352 N 
ATOM     22  H26 C4A d   1      54.308  41.680  86.778  0.00  0.00     0.163 HD
BRANCH  21  23
ATOM     23  C29 C4A d   1      52.943  40.775  88.060  0.00  0.00     0.020 C 
ATOM     24  C30 C4A d   1      52.376  42.132  88.546  0.00  0.00    -0.021 C 
ATOM     25  C31 C4A d   1      50.951  41.850  88.620  0.00  0.00    -0.050 A 
ATOM     26  H28 C4A d   1      52.588  42.936  87.826  0.00  0.00     0.043 H 
ATOM     27  H29 C4A d   1      52.782  42.406  89.531  0.00  0.00     0.043 H 
ATOM     28  C32 C4A d   1      50.617  40.696  87.851  0.00  0.00    -0.050 A 
ATOM     29  C37 C4A d   1      49.951  42.569  89.344  0.00  0.00    -0.076 A 
ATOM     30  C33 C4A d   1      51.804  40.134  87.211  0.00  0.00    -0.021 C 
ATOM     31  C34 C4A d   1      49.261  40.232  87.776  0.00  0.00    -0.076 A 
ATOM     32  H30 C4A d   1      51.818  39.036  87.282  0.00  0.00     0.043 H 
ATOM     33  H31 C4A d   1      51.872  40.434  86.155  0.00  0.00     0.043 H 
ATOM     34  C35 C4A d   1      48.244  40.948  88.499  0.00  0.00    -0.082 A 
ATOM     35  H32 C4A d   1      49.008  39.359  87.186  0.00  0.00     0.084 H 
ATOM     36  C36 C4A d   1      48.587  42.113  89.278  0.00  0.00    -0.082 A 
ATOM     37  H33 C4A d   1      47.215  40.611  88.458  0.00  0.00     0.083 H 
ATOM     38  H34 C4A d   1      47.813  42.648  89.817  0.00  0.00     0.083 H 
ATOM     39  H35 C4A d   1      50.214  43.441  89.932  0.00  0.00     0.084 H 
ATOM     40  H27 C4A d   1      53.124  40.139  88.939  0.00  0.00     0.073 H 
ENDBRANCH  21  23
ENDBRANCH  13  19
ENDBRANCH   6   9
ENDBRANCH   4   6
BRANCH   1  41
ATOM     41  C13 C4A d   1      64.106  43.000  86.437  0.00  0.00     0.116 C 
ATOM     42  H36 C4A d   1      63.680  44.014  86.467  0.00  0.00     0.098 H 
BRANCH  41  43
ATOM     43  C6  C4A d   1      65.291  42.992  85.379  0.00  0.00     0.046 C 
ATOM     44  H10 C4A d   1      65.710  41.976  85.331  0.00  0.00     0.077 H 
BRANCH  43  45
ATOM     45  C5  C4A d   1      66.430  43.987  85.778  0.00  0.00    -0.043 C 
ATOM     46  H8  C4A d   1      66.207  44.964  85.324  0.00  0.00     0.036 H 
ATOM     47  H9  C4A d   1      66.433  44.084  86.874  0.00  0.00     0.036 H 
BRANCH  45  48
ATOM     48  C4  C4A d   1      67.851  43.556  85.326  0.00  0.00    -0.062 C 
ATOM     49  H6  C4A d   1      67.828  43.329  84.250  0.00  0.00     0.033 H 
ATOM     50  H7  C4A d   1      68.144  42.655  85.885  0.00  0.00     0.033 H 
BRANCH  48  51
ATOM     51  C3  C4A d   1      68.902  44.668  85.582  0.00  0.00    -0.043 C 
ATOM     52  H11 C4A d   1      68.477  45.633  85.268  0.00  0.00     0.035 H 
ATOM     53  H12 C4A d   1      69.126  44.699  86.658  0.00  0.00     0.035 H 
BRANCH  51  54
ATOM     54  C2  C4A d   1      70.220  44.432  84.808  0.00  0.00     0.080 C 
ATOM     55  H4  C4A d   1      70.387  43.350  84.703  0.00  0.00     0.075 H 
ATOM     56  H5  C4A d   1      70.139  44.889  83.811  0.00  0.00     0.075 H 
BRANCH  54  57
ATOM     57  N1  C4A d   1      71.358  45.028  85.519  0.00  0.00    -0.079 N 
ATOM     58  H1  C4A d   1      72.204  44.862  84.997  0.00  0.00     0.274 HD
ATOM     59  H2  C4A d   1      71.439  44.610  86.433  0.00  0.00     0.274 HD
ATOM     60  H3  C4A d   1      71.212  46.021  85.615  0.00  0.00     0.274 HD
ENDBRANCH  54  57
ENDBRANCH  51  54
ENDBRANCH  48  51
ENDBRANCH  45  48
ENDBRANCH  43  45
BRANCH  43  61
ATOM     61  N7  C4A d   1      64.783  43.360  84.067  0.00  0.00    -0.329 N 
ATOM     62  C8  C4A d   1      64.430  42.554  83.058  0.00  0.00     0.360 C 
ATOM     63  O9  C4A d   1      64.502  41.325  83.149  0.00  0.00    -0.239 OA
ATOM     64  H13 C4A d   1      64.685  44.340  83.897  0.00  0.00     0.165 HD
BRANCH  62  65
ATOM     65  O10 C4A d   1      63.983  43.144  81.940  0.00  0.00    -0.304 OA
BRANCH  65  66
ATOM     66  C11 C4A d   1      63.794  42.557  80.632  0.00  0.00     0.027 C 
ATOM     67  H14 C4A d   1      63.323  41.569  80.742  0.00  0.00     0.074 H 
ATOM     68  H15 C4A d   1      64.771  42.444  80.140  0.00  0.00     0.074 H 
BRANCH  66  69
ATOM     69  C12 C4A d   1      62.887  43.461  79.764  0.00  0.00    -0.056 C 
ATOM     70  H16 C4A d   1      62.752  43.002  78.773  0.00  0.00     0.030 H 
ATOM     71  H17 C4A d   1      63.356  44.449  79.650  0.00  0.00     0.030 H 
ATOM     72  H18 C4A d   1      61.908  43.574  80.252  0.00  0.00     0.030 H 
ENDBRANCH  66  69
ENDBRANCH  65  66
ENDBRANCH  62  65
ENDBRANCH  43  61
ENDBRANCH  41  43
BRANCH  41  73
ATOM     73  O14 C4A d   1      64.577  42.649  87.736  0.00  0.00    -0.386 OA
ATOM     74  H19 C4A d   1      65.237  43.275  88.012  0.00  0.00     0.210 HD
ENDBRANCH  41  73
ENDBRANCH   1  41
TORSDOF 16
