REMARK WARNING: 32 MAX_TORS EXCEEDED!!!
REMARK  34 active torsions:
REMARK  status: ('A' for Active; 'I' for Inactive)
REMARK    1  A    between atoms: CA_2  and  N_1 
REMARK    2  A    between atoms: CA_2  and  CB_5 
REMARK    3  A    between atoms: C_3  and  CA_2 
REMARK       I    between atoms: N_6  and  C_3 
REMARK    4  A    between atoms: CA_7  and  N_6 
REMARK    5  A    between atoms: CA_7  and  CB_10 
REMARK    6  A    between atoms: C_8  and  CA_7 
REMARK       I    between atoms: N_17  and  C_8 
REMARK    7  A    between atoms: CB_10  and  CG_11 
REMARK    8  A    between atoms: CG_11  and  CD_12 
REMARK    9  A    between atoms: CD_12  and  NE_13 
REMARK       I    between atoms: NE_13  and  CZ_14 
REMARK       I    between atoms: CZ_14  and  NH1_15 
REMARK   10  A    between atoms: CA_18  and  N_17 
REMARK   11  A    between atoms: CA_18  and  CB_21 
REMARK   12  A    between atoms: C_19  and  CA_18 
REMARK       I    between atoms: C_19  and  N_24 
REMARK   13  A    between atoms: CB_21  and  CG2_23 
REMARK   14  A    between atoms: CB_21  and  OG1_22 
REMARK   15  A    between atoms: N_24  and  CA_25 
REMARK   16  A    between atoms: CA_25  and  CB_26 
REMARK   17  A    between atoms: CA_25  and  C_33 
REMARK   18  A    between atoms: CB_26  and  CG_27 
REMARK   19  A    between atoms: CG_27  and  CD_28 
REMARK   20  A    between atoms: CD_28  and  CE_29 
REMARK   21  A    between atoms: CE_29  and  NZ_30 
REMARK   22  A    between atoms: NZ_30  and  CH1_31 
REMARK   23  A    between atoms: NZ_30  and  CH2_32 
REMARK       I    between atoms: C_33  and  N_35 
REMARK   24  A    between atoms: N_35  and  CA_36 
REMARK   25  A    between atoms: CA_36  and  CB_39 
REMARK   26  A    between atoms: CA_36  and  C_37 
REMARK       I    between atoms: C_37  and  N_44 
REMARK   27  A    between atoms: CB_39  and  CG_40 
REMARK   28  A    between atoms: CG_40  and  CD_41 
REMARK       I    between atoms: CD_41  and  NE2_43 
REMARK   29  A    between atoms: N_44  and  CA_45 
REMARK   30  A    between atoms: CA_45  and  CB_48 
REMARK   31  A    between atoms: CA_45  and  C_46 
REMARK   32  A    between atoms: C_46  and  O1_51 
REMARK   33  A    between atoms: CB_48  and  CG2_50 
REMARK   34  A    between atoms: CB_48  and  OG1_49 
ROOT
ATOM      1  CA  MLY d   1      37.463  16.773  59.779  0.00  0.00     0.089 C 
ATOM      2  H29 MLY d   1      38.236  16.324  60.421  0.00  0.00     0.087 H 
ENDROOT
BRANCH   1   3
ATOM      3  N   MLY d   1      36.222  16.016  59.889  0.00  0.00    -0.346 N 
ATOM      4  C   THR d   1      36.145  14.862  60.545  0.00  0.00     0.243 C 
ATOM      5  O   THR d   1      37.115  14.315  61.064  0.00  0.00    -0.271 OA
ATOM      6  H28 MLY d   1      35.397  16.378  59.455  0.00  0.00     0.163 HD
BRANCH   4   7
ATOM      7  CA  THR d   1      34.757  14.240  60.619  0.00  0.00     0.113 C 
ATOM      8  H22 THR d   1      34.306  14.268  59.616  0.00  0.00     0.091 H 
BRANCH   7   9
ATOM      9  N   THR d   1      34.759  12.852  61.070  0.00  0.00    -0.344 N 
ATOM     10  C   ARG d   1      33.899  11.967  60.576  0.00  0.00     0.241 C 
ATOM     11  O   ARG d   1      33.078  12.249  59.700  0.00  0.00    -0.271 OA
ATOM     12  H21 THR d   1      35.419  12.562  61.763  0.00  0.00     0.163 HD
BRANCH  10  13
ATOM     13  CA  ARG d   1      33.966  10.555  61.150  0.00  0.00     0.089 C 
ATOM     14  H9  ARG d   1      34.505  10.576  62.108  0.00  0.00     0.087 H 
BRANCH  13  15
ATOM     15  N   ARG d   1      32.604  10.089  61.368  0.00  0.00    -0.346 N 
ATOM     16  C   ALA d   1      31.920  10.414  62.460  0.00  0.00     0.248 C 
ATOM     17  O   ALA d   1      32.387  11.114  63.360  0.00  0.00    -0.271 OA
ATOM     18  H8  ARG d   1      32.172   9.509  60.678  0.00  0.00     0.163 HD
BRANCH  16  19
ATOM     19  CA  ALA d   1      30.503   9.869  62.555  0.00  0.00     0.172 C 
ATOM     20  H4  ALA d   1      30.427   8.973  61.921  0.00  0.00     0.098 H 
BRANCH  19  21
ATOM     21  N   ALA d   1      30.176   9.490  63.961  0.00  0.00    -0.067 N 
ATOM     22  H1  ALA d   1      29.235   9.132  64.002  0.00  0.00     0.275 HD
ATOM     23  H2  ALA d   1      30.253  10.301  64.554  0.00  0.00     0.275 HD
ATOM     24  H3  ALA d   1      30.819   8.781  64.276  0.00  0.00     0.275 HD
ENDBRANCH  19  21
BRANCH  19  25
ATOM     25  CB  ALA d   1      29.513  10.909  62.057  0.00  0.00    -0.042 C 
ATOM     26  H5  ALA d   1      29.760  11.184  61.021  0.00  0.00     0.030 H 
ATOM     27  H6  ALA d   1      29.567  11.803  62.696  0.00  0.00     0.030 H 
ATOM     28  H7  ALA d   1      28.495  10.493  62.094  0.00  0.00     0.030 H 
ENDBRANCH  19  25
ENDBRANCH  16  19
ENDBRANCH  13  15
BRANCH  13  29
ATOM     29  CB  ARG d   1      34.693   9.611  60.190  0.00  0.00    -0.036 C 
ATOM     30  H10 ARG d   1      35.700  10.012  60.001  0.00  0.00     0.036 H 
ATOM     31  H11 ARG d   1      34.131   9.572  59.245  0.00  0.00     0.036 H 
BRANCH  29  32
ATOM     32  CG  ARG d   1      34.830   8.190  60.733  0.00  0.00    -0.048 C 
ATOM     33  H12 ARG d   1      33.853   7.864  61.119  0.00  0.00     0.035 H 
ATOM     34  H13 ARG d   1      35.565   8.194  61.551  0.00  0.00     0.035 H 
BRANCH  32  35
ATOM     35  CD  ARG d   1      35.291   7.200  59.663  0.00  0.00     0.009 C 
ATOM     36  H14 ARG d   1      35.389   6.203  60.117  0.00  0.00     0.064 H 
ATOM     37  H15 ARG d   1      36.268   7.523  59.275  0.00  0.00     0.064 H 
BRANCH  35  38
ATOM     38  NE  ARG d   1      34.342   7.125  58.555  0.00  0.00    -0.227 N 
ATOM     39  CZ  ARG d   1      34.531   7.688  57.364  0.00  0.00     0.665 C 
ATOM     40  NH2 ARG d   1      33.594   7.589  56.428  0.00  0.00    -0.235 N 
ATOM     41  NH1 ARG d   1      35.643   8.368  57.115  0.00  0.00    -0.235 N 
ATOM     42  H19 ARG d   1      32.730   7.062  56.618  0.00  0.00     0.174 HD
ATOM     43  H20 ARG d   1      33.732   8.039  55.512  0.00  0.00     0.174 HD
ATOM     44  H17 ARG d   1      35.785   8.802  56.192  0.00  0.00     0.174 HD
ATOM     45  H18 ARG d   1      36.364   8.462  57.845  0.00  0.00     0.174 HD
ATOM     46  H16 ARG d   1      33.468   6.601  58.706  0.00  0.00     0.177 HD
ENDBRANCH  35  38
ENDBRANCH  32  35
ENDBRANCH  29  32
ENDBRANCH  13  29
ENDBRANCH  10  13
ENDBRANCH   7   9
BRANCH   7  47
ATOM     47  CB  THR d   1      33.928  15.121  61.574  0.00  0.00     0.060 C 
ATOM     48  H23 THR d   1      33.921  16.154  61.195  0.00  0.00     0.086 H 
BRANCH  47  49
ATOM     49  CG2 THR d   1      32.495  14.620  61.674  0.00  0.00    -0.050 C 
ATOM     50  H25 THR d   1      31.928  15.266  62.360  0.00  0.00     0.031 H 
ATOM     51  H26 THR d   1      32.493  13.588  62.056  0.00  0.00     0.031 H 
ATOM     52  H27 THR d   1      32.028  14.644  60.678  0.00  0.00     0.031 H 
ENDBRANCH  47  49
BRANCH  47  53
ATOM     53  OG1 THR d   1      34.529  15.095  62.877  0.00  0.00    -0.393 OA
ATOM     54  H24 THR d   1      35.424  15.407  62.818  0.00  0.00     0.210 HD
ENDBRANCH  47  53
ENDBRANCH   7  47
ENDBRANCH   4   7
ENDBRANCH   1   3
BRANCH   1  55
ATOM     55  CB  MLY d   1      37.971  16.824  58.335  0.00  0.00    -0.038 C 
ATOM     56  H30 MLY d   1      38.759  17.589  58.276  0.00  0.00     0.036 H 
ATOM     57  H31 MLY d   1      37.130  17.112  57.687  0.00  0.00     0.036 H 
BRANCH  55  58
ATOM     58  CG  MLY d   1      38.543  15.516  57.814  0.00  0.00    -0.061 C 
ATOM     59  H32 MLY d   1      37.731  14.781  57.713  0.00  0.00     0.033 H 
ATOM     60  H33 MLY d   1      39.291  15.140  58.527  0.00  0.00     0.033 H 
BRANCH  58  61
ATOM     61  CD  MLY d   1      39.201  15.720  56.462  0.00  0.00    -0.042 C 
ATOM     62  H34 MLY d   1      40.059  16.398  56.581  0.00  0.00     0.035 H 
ATOM     63  H35 MLY d   1      38.471  16.170  55.774  0.00  0.00     0.035 H 
BRANCH  61  64
ATOM     64  CE  MLY d   1      39.688  14.406  55.874  0.00  0.00     0.083 C 
ATOM     65  H36 MLY d   1      38.821  13.756  55.684  0.00  0.00     0.075 H 
ATOM     66  H37 MLY d   1      40.360  13.919  56.596  0.00  0.00     0.075 H 
BRANCH  64  67
ATOM     67  NZ  MLY d   1      40.412  14.614  54.614  0.00  0.00    -0.079 N 
ATOM     68  H38 MLY d   1      41.187  15.224  54.822  0.00  0.00     0.278 HD
BRANCH  67  69
ATOM     69  CH1 MLY d   1      40.969  13.355  54.100  0.00  0.00     0.066 C 
ATOM     70  H39 MLY d   1      41.503  13.548  53.158  0.00  0.00     0.068 H 
ATOM     71  H40 MLY d   1      40.153  12.640  53.919  0.00  0.00     0.068 H 
ATOM     72  H41 MLY d   1      41.668  12.935  54.838  0.00  0.00     0.068 H 
ENDBRANCH  67  69
BRANCH  67  73
ATOM     73  CH2 MLY d   1      39.614  15.274  53.574  0.00  0.00     0.066 C 
ATOM     74  H42 MLY d   1      39.202  16.214  53.969  0.00  0.00     0.068 H 
ATOM     75  H43 MLY d   1      38.790  14.613  53.269  0.00  0.00     0.068 H 
ATOM     76  H44 MLY d   1      40.252  15.490  52.704  0.00  0.00     0.068 H 
ENDBRANCH  67  73
ENDBRANCH  64  67
ENDBRANCH  61  64
ENDBRANCH  58  61
ENDBRANCH  55  58
ENDBRANCH   1  55
BRANCH   1  77
ATOM     77  C   MLY d   1      37.134  18.183  60.249  0.00  0.00     0.241 C 
ATOM     78  O   MLY d   1      36.209  18.814  59.730  0.00  0.00    -0.271 OA
ATOM     79  N   GLN d   1      37.876  18.664  61.244  0.00  0.00    -0.346 N 
ATOM     80  H45 GLN d   1      38.601  18.094  61.632  0.00  0.00     0.163 HD
BRANCH  79  81
ATOM     81  CA  GLN d   1      37.658  20.004  61.784  0.00  0.00     0.090 C 
ATOM     82  H46 GLN d   1      36.812  20.462  61.250  0.00  0.00     0.087 H 
BRANCH  81  83
ATOM     83  CB  GLN d   1      37.334  19.948  63.279  0.00  0.00    -0.030 C 
ATOM     84  H47 GLN d   1      37.122  20.972  63.619  0.00  0.00     0.037 H 
ATOM     85  H48 GLN d   1      38.221  19.564  63.804  0.00  0.00     0.037 H 
BRANCH  83  86
ATOM     86  CG  GLN d   1      36.158  19.080  63.653  0.00  0.00     0.011 C 
ATOM     87  H49 GLN d   1      35.381  19.192  62.883  0.00  0.00     0.047 H 
ATOM     88  H50 GLN d   1      35.765  19.420  64.623  0.00  0.00     0.047 H 
BRANCH  86  89
ATOM     89  CD  GLN d   1      36.519  17.610  63.766  0.00  0.00     0.215 C 
ATOM     90  NE2 GLN d   1      36.422  17.071  64.975  0.00  0.00    -0.370 N 
ATOM     91  H51 GLN d   1      36.647  16.106  65.112  0.00  0.00     0.159 HD
ATOM     92  H52 GLN d   1      36.124  17.630  65.749  0.00  0.00     0.159 HD
ATOM     93  OE1 GLN d   1      36.879  16.966  62.781  0.00  0.00    -0.274 OA
ENDBRANCH  86  89
ENDBRANCH  83  86
ENDBRANCH  81  83
BRANCH  81  94
ATOM     94  C   GLN d   1      38.892  20.873  61.599  0.00  0.00     0.241 C 
ATOM     95  O   GLN d   1      39.992  20.367  61.378  0.00  0.00    -0.271 OA
ATOM     96  N   THR d   1      38.701  22.183  61.711  0.00  0.00    -0.343 N 
ATOM     97  H53 THR d   1      37.779  22.522  61.901  0.00  0.00     0.163 HD
BRANCH  96  98
ATOM     98  CA  THR d   1      39.786  23.143  61.567  0.00  0.00     0.117 C 
ATOM     99  H54 THR d   1      40.233  23.013  60.570  0.00  0.00     0.093 H 
BRANCH  98 100
ATOM    100  CB  THR d   1      39.267  24.587  61.698  0.00  0.00     0.061 C 
ATOM    101  H55 THR d   1      38.618  24.816  60.840  0.00  0.00     0.086 H 
BRANCH 100 102
ATOM    102  CG2 THR d   1      38.470  24.753  62.985  0.00  0.00    -0.050 C 
ATOM    103  H57 THR d   1      38.108  25.789  63.061  0.00  0.00     0.031 H 
ATOM    104  H58 THR d   1      39.114  24.526  63.847  0.00  0.00     0.031 H 
ATOM    105  H59 THR d   1      37.612  24.065  62.976  0.00  0.00     0.031 H 
ENDBRANCH 100 102
BRANCH 100 106
ATOM    106  OG1 THR d   1      40.377  25.493  61.708  0.00  0.00    -0.393 OA
ATOM    107  H56 THR d   1      40.933  25.302  62.454  0.00  0.00     0.210 HD
ENDBRANCH 100 106
ENDBRANCH  98 100
BRANCH  98 108
ATOM    108  C   THR d   1      40.863  22.927  62.622  0.00  0.00     0.166 C 
ATOM    109  O   THR d   1      40.637  22.109  63.541  0.00  0.00    -0.648 OA
BRANCH 108 110
ATOM    110  O1  THR d   1      42.014  23.591  62.568  0.00  0.00    -0.775 OA
ATOM    111  H60 THR d   1      42.012  24.164  61.810  0.00  0.00     0.167 HD
ENDBRANCH 108 110
ENDBRANCH  98 108
ENDBRANCH  96  98
ENDBRANCH  81  94
ENDBRANCH  79  81
ENDBRANCH   1  77
TORSDOF 34
