REMARK  15 active torsions:
REMARK  status: ('A' for Active; 'I' for Inactive)
REMARK    1  A    between atoms: O3_1  and  PA_2 
REMARK    2  A    between atoms: O3_1  and  PN_24 
REMARK    3  A    between atoms: PA_2  and  O5B_5 
REMARK    4  A    between atoms: O5B_5  and  C5B_6 
REMARK    5  A    between atoms: C5B_6  and  C4B_7 
REMARK    6  A    between atoms: C3B_9  and  O3B_10 
REMARK    7  A    between atoms: C2B_11  and  O2B_12 
REMARK    8  A    between atoms: C1B_13  and  N9A_14 
REMARK    9  A    between atoms: PN_24  and  O5D_27 
REMARK   10  A    between atoms: O5D_27  and  C5D_28 
REMARK   11  A    between atoms: C5D_28  and  C4D_29 
REMARK   12  A    between atoms: C3D_31  and  O3D_32 
REMARK   13  A    between atoms: C2D_33  and  O2D_34 
REMARK   14  A    between atoms: C1D_35  and  N1N_36 
REMARK   15  A    between atoms: C3N_38  and  C7N_39 
REMARK       I    between atoms: C7N_39  and  N7N_41 
ROOT
ATOM      1  PN  NON d   1      -6.338   5.447  24.294  0.00  0.00     0.417 P 
ATOM      2  O1N NON d   1      -6.494   3.974  24.567  0.00  0.00    -0.624 OA
ATOM      3  O2N NON d   1      -4.999   6.103  24.506  0.00  0.00    -0.624 OA
ENDROOT
BRANCH   1   4
ATOM      4  O3  NON d   1      -7.487   6.270  25.063  0.00  0.00    -0.180 OA
BRANCH   4   5
ATOM      5  PA  NON d   1      -7.607   6.365  26.668  0.00  0.00     0.417 P 
ATOM      6  O1A NON d   1      -6.883   5.199  27.302  0.00  0.00    -0.624 OA
ATOM      7  O2A NON d   1      -7.242   7.775  27.068  0.00  0.00    -0.624 OA
BRANCH   5   8
ATOM      8  O5B NON d   1      -9.191   6.178  26.920  0.00  0.00    -0.287 OA
BRANCH   8   9
ATOM      9  C5B NON d   1      -9.951   5.162  26.262  0.00  0.00     0.058 C 
ATOM     10  H1  NON d   1     -10.304   4.438  27.011  0.00  0.00     0.079 H 
ATOM     11  H2  NON d   1      -9.307   4.650  25.532  0.00  0.00     0.079 H 
BRANCH   9  12
ATOM     12  C4B NON d   1     -11.155   5.749  25.534  0.00  0.00     0.089 C 
ATOM     13  O4B NON d   1     -12.068   6.308  26.479  0.00  0.00    -0.353 OA
ATOM     14  C1B NON d   1     -12.813   7.318  25.806  0.00  0.00     0.139 C 
ATOM     15  C2B NON d   1     -11.746   8.036  24.993  0.00  0.00     0.105 C 
ATOM     16  H8  NON d   1     -13.552   6.871  25.124  0.00  0.00     0.122 H 
ATOM     17  C3B NON d   1     -10.848   6.887  24.560  0.00  0.00     0.091 C 
ATOM     18  H6  NON d   1     -11.183   8.730  25.634  0.00  0.00     0.093 H 
ATOM     19  H4  NON d   1      -9.790   7.181  24.628  0.00  0.00     0.091 H 
ATOM     20  H3  NON d   1     -11.643   4.933  24.980  0.00  0.00     0.090 H 
BRANCH  14  21
ATOM     21  N9A NON d   1     -13.541   8.133  26.803  0.00  0.00    -0.294 N 
ATOM     22  C8A NON d   1     -13.034   9.012  27.703  0.00  0.00     0.071 A 
ATOM     23  N7A NON d   1     -14.014   9.579  28.482  0.00  0.00    -0.236 NA
ATOM     24  H9  NON d   1     -11.974   9.242  27.797  0.00  0.00     0.144 H 
ATOM     25  C5A NON d   1     -15.185   9.050  28.077  0.00  0.00     0.149 A 
ATOM     26  C6A NON d   1     -16.636   9.128  28.387  0.00  0.00     0.155 A 
ATOM     27  C4A NON d   1     -14.847   8.132  27.007  0.00  0.00     0.167 A 
ATOM     28  N6A NON d   1     -17.090   9.947  29.366  0.00  0.00    -0.382 N 
ATOM     29  N1A NON d   1     -17.504   8.364  27.675  0.00  0.00    -0.222 NA
ATOM     30  H10 NON d   1     -18.098   9.993  29.573  0.00  0.00     0.157 HD
ATOM     31  H11 NON d   1     -16.427  10.524  29.904  0.00  0.00     0.157 HD
ATOM     32  C2A NON d   1     -17.140   7.522  26.686  0.00  0.00     0.091 A 
ATOM     33  N3A NON d   1     -15.859   7.369  26.318  0.00  0.00    -0.222 NA
ATOM     34  H12 NON d   1     -17.906   6.952  26.173  0.00  0.00     0.146 H 
ENDBRANCH  14  21
BRANCH  15  35
ATOM     35  O2B NON d   1     -12.290   8.781  23.916  0.00  0.00    -0.388 OA
ATOM     36  H7  NON d   1     -12.812   8.207  23.368  0.00  0.00     0.210 HD
ENDBRANCH  15  35
BRANCH  17  37
ATOM     37  O3B NON d   1     -11.141   6.483  23.238  0.00  0.00    -0.390 OA
ATOM     38  H5  NON d   1     -12.061   6.256  23.174  0.00  0.00     0.210 HD
ENDBRANCH  17  37
ENDBRANCH   9  12
ENDBRANCH   8   9
ENDBRANCH   5   8
ENDBRANCH   4   5
ENDBRANCH   1   4
BRANCH   1  39
ATOM     39  O5D NON d   1      -6.774   5.697  22.776  0.00  0.00    -0.287 OA
BRANCH  39  40
ATOM     40  C5D NON d   1      -7.184   6.972  22.295  0.00  0.00     0.058 C 
ATOM     41  H13 NON d   1      -6.549   7.751  22.742  0.00  0.00     0.079 H 
ATOM     42  H14 NON d   1      -8.233   7.147  22.576  0.00  0.00     0.079 H 
BRANCH  40  43
ATOM     43  C4D NON d   1      -7.053   7.025  20.774  0.00  0.00     0.089 A 
ATOM     44  O4D NON d   1      -6.072   8.010  20.422  0.00  0.00    -0.353 OA
ATOM     45  C1D NON d   1      -5.128   7.478  19.490  0.00  0.00     0.136 A 
ATOM     46  C2D NON d   1      -5.452   5.996  19.271  0.00  0.00     0.105 A 
ATOM     47  H20 NON d   1      -5.187   8.045  18.549  0.00  0.00     0.122 H 
ATOM     48  C3D NON d   1      -6.660   5.690  20.129  0.00  0.00     0.091 A 
ATOM     49  H18 NON d   1      -4.601   5.377  19.591  0.00  0.00     0.093 H 
ATOM     50  H16 NON d   1      -6.391   4.960  20.907  0.00  0.00     0.091 H 
ATOM     51  H15 NON d   1      -8.027   7.327  20.362  0.00  0.00     0.090 H 
BRANCH  45  52
ATOM     52  N1N NON d   1      -3.757   7.462  19.983  0.00  0.00    -0.337 N 
ATOM     53  C2N NON d   1      -3.476   6.877  21.316  0.00  0.00    -0.006 A 
ATOM     54  C3N NON d   1      -2.215   6.768  21.754  0.00  0.00     0.028 A 
ATOM     55  H21 NON d   1      -4.299   6.534  21.942  0.00  0.00     0.112 H 
ATOM     56  C4N NON d   1      -1.129   7.275  20.853  0.00  0.00    -0.018 A 
ATOM     57  C5N NON d   1      -1.407   7.895  19.508  0.00  0.00    -0.084 A 
ATOM     58  H24 NON d   1      -0.468   6.417  20.661  0.00  0.00     0.046 H 
ATOM     59  H25 NON d   1      -0.584   8.036  21.432  0.00  0.00     0.046 H 
ATOM     60  C6N NON d   1      -2.677   7.988  19.117  0.00  0.00    -0.021 A 
ATOM     61  H26 NON d   1      -0.596   8.255  18.876  0.00  0.00     0.079 H 
ATOM     62  H27 NON d   1      -2.921   8.450  18.162  0.00  0.00     0.111 H 
BRANCH  54  63
ATOM     63  C7N NON d   1      -1.877   6.189  23.052  0.00  0.00     0.247 C 
ATOM     64  O7N NON d   1      -1.440   6.915  23.930  0.00  0.00    -0.268 OA
ATOM     65  N7N NON d   1      -2.044   4.894  23.265  0.00  0.00    -0.366 N 
ATOM     66  H22 NON d   1      -1.812   4.500  24.154  0.00  0.00     0.159 HD
ATOM     67  H23 NON d   1      -2.402   4.310  22.537  0.00  0.00     0.159 HD
ENDBRANCH  54  63
ENDBRANCH  45  52
BRANCH  46  68
ATOM     68  O2D NON d   1      -5.723   5.736  17.901  0.00  0.00    -0.388 OA
ATOM     69  H19 NON d   1      -5.951   4.820  17.793  0.00  0.00     0.210 HD
ENDBRANCH  46  68
BRANCH  48  70
ATOM     70  O3D NON d   1      -7.730   5.163  19.357  0.00  0.00    -0.390 OA
ATOM     71  H17 NON d   1      -8.484   5.021  19.918  0.00  0.00     0.210 HD
ENDBRANCH  48  70
ENDBRANCH  40  43
ENDBRANCH  39  40
ENDBRANCH   1  39
TORSDOF 15
