REMARK  12 active torsions:
REMARK  status: ('A' for Active; 'I' for Inactive)
REMARK    1  A    between atoms: S7_14  and  C4_2 
REMARK    2  A    between atoms: C13_5  and  N19_24 
REMARK    3  A    between atoms: C20_7  and  C22_8 
REMARK       I    between atoms: N19_24  and  C20_7 
REMARK    4  A    between atoms: C22_8  and  C23_26 
REMARK    5  A    between atoms: C22_8  and  N27_28 
REMARK    6  A    between atoms: C24_9  and  C26_10 
REMARK    7  A    between atoms: C23_26  and  C24_9 
REMARK    8  A    between atoms: C24_9  and  C25_27 
REMARK       I    between atoms: N27_28  and  C28_11 
REMARK    9  A    between atoms: C28_11  and  C30_30 
REMARK   10  A    between atoms: N10_17  and  S7_14 
REMARK   11  A    between atoms: C12_19  and  O17_22 
REMARK   12  A    between atoms: C16_21  and  C18_23 
ROOT
ATOM      1  C20 ILI d   1      82.482 -29.296-106.419  0.00  0.00     0.240 C 
ATOM      2  N19 ILI d   1      82.479 -28.764-105.156  0.00  0.00    -0.352 N 
ATOM      3  O21 ILI d   1      83.211 -28.873-107.339  0.00  0.00    -0.271 OA
ATOM      4  H23 ILI d   1      81.882 -29.148-104.451  0.00  0.00     0.163 HD
ENDROOT
BRANCH   2   5
ATOM      5  C13 ILI d   1      83.354 -27.630-104.842  0.00  0.00     0.038 C 
ATOM      6  C12 ILI d   1      84.644 -28.035-103.992  0.00  0.00     0.071 C 
ATOM      7  C11 ILI d   1      84.268 -28.261-102.514  0.00  0.00     0.031 C 
ATOM      8  H15 ILI d   1      85.060 -28.969-104.397  0.00  0.00     0.088 H 
ATOM      9  N10 ILI d   1      83.884 -27.070-101.704  0.00  0.00    -0.299 N 
ATOM     10  H13 ILI d   1      83.418 -28.959-102.495  0.00  0.00     0.069 H 
ATOM     11  H14 ILI d   1      85.135 -28.726-102.022  0.00  0.00     0.069 H 
ATOM     12  C16 ILI d   1      82.572 -26.384-101.843  0.00  0.00     0.019 C 
ATOM     13  C15 ILI d   1      82.424 -25.683-103.194  0.00  0.00    -0.044 C 
ATOM     14  H18 ILI d   1      82.552 -25.591-101.081  0.00  0.00     0.073 H 
ATOM     15  C14 ILI d   1      82.316 -26.525-104.453  0.00  0.00    -0.042 C 
ATOM     16  H4  ILI d   1      81.514 -25.067-103.139  0.00  0.00     0.036 H 
ATOM     17  H5  ILI d   1      83.302 -25.031-103.317  0.00  0.00     0.036 H 
ATOM     18  H16 ILI d   1      81.343 -27.034-104.392  0.00  0.00     0.036 H 
ATOM     19  H17 ILI d   1      82.306 -25.813-105.291  0.00  0.00     0.036 H 
ATOM     20  H3  ILI d   1      83.790 -27.282-105.790  0.00  0.00     0.076 H 
BRANCH   6  21
ATOM     21  O17 ILI d   1      85.562 -27.068-104.099  0.00  0.00    -0.392 OA
ATOM     22  H19 ILI d   1      85.212 -26.260-103.742  0.00  0.00     0.210 HD
ENDBRANCH   6  21
BRANCH   9  23
ATOM     23  S7  ILI d   1      84.924 -26.551-100.495  0.00  0.00     0.278 S 
ATOM     24  O8  ILI d   1      84.286 -26.679 -99.181  0.00  0.00    -0.199 OA
ATOM     25  O9  ILI d   1      86.258 -27.132-100.692  0.00  0.00    -0.199 OA
BRANCH  23  26
ATOM     26  C4  ILI d   1      85.106 -24.785-100.803  0.00  0.00     0.171 A 
ATOM     27  N3  ILI d   1      85.471 -24.474-102.103  0.00  0.00    -0.248 NA
ATOM     28  C2  ILI d   1      85.621 -23.136-102.407  0.00  0.00     0.004 A 
ATOM     29  C1  ILI d   1      85.423 -22.100-101.467  0.00  0.00    -0.066 A 
ATOM     30  H12 ILI d   1      85.905 -22.866-103.418  0.00  0.00     0.114 H 
ATOM     31  C6  ILI d   1      85.051 -22.457-100.147  0.00  0.00    -0.079 A 
ATOM     32  H11 ILI d   1      85.552 -21.061-101.748  0.00  0.00     0.085 H 
ATOM     33  C5  ILI d   1      84.884 -23.818 -99.791  0.00  0.00    -0.042 A 
ATOM     34  H2  ILI d   1      84.893 -21.683 -99.404  0.00  0.00     0.083 H 
ATOM     35  H1  ILI d   1      84.598 -24.108 -98.786  0.00  0.00     0.088 H 
ENDBRANCH  23  26
ENDBRANCH   9  23
BRANCH  12  36
ATOM     36  C18 ILI d   1      81.395 -27.330-101.517  0.00  0.00    -0.057 C 
ATOM     37  H20 ILI d   1      81.563 -27.800-100.537  0.00  0.00     0.030 H 
ATOM     38  H21 ILI d   1      81.326 -28.109-102.290  0.00  0.00     0.030 H 
ATOM     39  H22 ILI d   1      80.458 -26.754-101.492  0.00  0.00     0.030 H 
ENDBRANCH  12  36
ENDBRANCH   2   5
BRANCH   1  40
ATOM     40  C22 ILI d   1      81.481 -30.448-106.664  0.00  0.00     0.090 C 
ATOM     41  H6  ILI d   1      80.638 -30.397-105.959  0.00  0.00     0.087 H 
BRANCH  40  42
ATOM     42  C23 ILI d   1      82.207 -31.799-106.506  0.00  0.00    -0.035 C 
ATOM     43  H24 ILI d   1      82.602 -31.860-105.481  0.00  0.00     0.037 H 
ATOM     44  H25 ILI d   1      83.041 -31.827-107.222  0.00  0.00     0.037 H 
BRANCH  42  45
ATOM     45  C24 ILI d   1      81.316 -33.033-106.754  0.00  0.00    -0.059 C 
ATOM     46  H7  ILI d   1      80.930 -32.980-107.783  0.00  0.00     0.038 H 
BRANCH  45  47
ATOM     47  C26 ILI d   1      80.112 -33.105-105.780  0.00  0.00    -0.073 C 
ATOM     48  H8  ILI d   1      79.514 -34.001-106.002  0.00  0.00     0.028 H 
ATOM     49  H9  ILI d   1      79.487 -32.208-105.902  0.00  0.00     0.028 H 
ATOM     50  H10 ILI d   1      80.480 -33.157-104.745  0.00  0.00     0.028 H 
ENDBRANCH  45  47
BRANCH  45  51
ATOM     51  C25 ILI d   1      82.140 -34.294-106.597  0.00  0.00    -0.073 C 
ATOM     52  H26 ILI d   1      81.503 -35.173-106.774  0.00  0.00     0.028 H 
ATOM     53  H27 ILI d   1      82.551 -34.339-105.578  0.00  0.00     0.028 H 
ATOM     54  H28 ILI d   1      82.965 -34.286-107.325  0.00  0.00     0.028 H 
ENDBRANCH  45  51
ENDBRANCH  42  45
ENDBRANCH  40  42
BRANCH  40  55
ATOM     55  N27 ILI d   1      81.019 -30.238-108.031  0.00  0.00    -0.342 N 
ATOM     56  C28 ILI d   1      80.060 -29.292-108.364  0.00  0.00     0.276 C 
ATOM     57  O29 ILI d   1      79.542 -28.579-107.506  0.00  0.00    -0.265 OA
ATOM     58  H29 ILI d   1      81.410 -30.800-108.760  0.00  0.00     0.163 HD
BRANCH  56  59
ATOM     59  C30 ILI d   1      79.769 -29.194-109.772  0.00  0.00     0.144 A 
ATOM     60  C31 ILI d   1      79.672 -30.118-110.782  0.00  0.00    -0.032 A 
ATOM     61  C32 ILI d   1      79.385 -29.429-111.975  0.00  0.00     0.001 A 
ATOM     62  H30 ILI d   1      79.795 -31.195-110.678  0.00  0.00     0.089 H 
ATOM     63  C33 ILI d   1      79.316 -28.070-111.607  0.00  0.00     0.086 A 
ATOM     64  C35 ILI d   1      79.170 -29.785-113.342  0.00  0.00    -0.070 A 
ATOM     65  O34 ILI d   1      79.550 -27.936-110.278  0.00  0.00    -0.304 OA
ATOM     66  C38 ILI d   1      79.043 -27.015-112.520  0.00  0.00    -0.049 A 
ATOM     67  C37 ILI d   1      78.831 -27.387-113.880  0.00  0.00    -0.080 A 
ATOM     68  H34 ILI d   1      78.998 -25.981-112.199  0.00  0.00     0.087 H 
ATOM     69  C36 ILI d   1      78.893 -28.752-114.290  0.00  0.00    -0.082 A 
ATOM     70  H33 ILI d   1      78.619 -26.619-114.615  0.00  0.00     0.083 H 
ATOM     71  H32 ILI d   1      78.728 -29.008-115.330  0.00  0.00     0.083 H 
ATOM     72  H31 ILI d   1      79.216 -30.822-113.655  0.00  0.00     0.084 H 
ENDBRANCH  56  59
ENDBRANCH  40  55
ENDBRANCH   1  40
TORSDOF 12
