REMARK WARNING: 32 MAX_TORS EXCEEDED!!!
REMARK  58 active torsions:
REMARK  status: ('A' for Active; 'I' for Inactive)
REMARK    1  A    between atoms: CA_2  and  N_1 
REMARK    2  A    between atoms: CA_2  and  CB_5 
REMARK    3  A    between atoms: C_3  and  CA_2 
REMARK       I    between atoms: N_12  and  C_3 
REMARK    4  A    between atoms: CB_5  and  CG_6 
REMARK    5  A    between atoms: CA_13  and  N_12 
REMARK    6  A    between atoms: CA_13  and  CB_16 
REMARK    7  A    between atoms: C_14  and  CA_13 
REMARK       I    between atoms: N_18  and  C_14 
REMARK    8  A    between atoms: CB_16  and  OG_17 
REMARK    9  A    between atoms: CA_19  and  N_18 
REMARK   10  A    between atoms: CA_19  and  CB_22 
REMARK   11  A    between atoms: C_20  and  CA_19 
REMARK       I    between atoms: N_26  and  C_20 
REMARK   12  A    between atoms: CB_22  and  CG2_24 
REMARK   13  A    between atoms: CB_22  and  CG1_23 
REMARK   14  A    between atoms: CG1_23  and  CD1_25 
REMARK   15  A    between atoms: CA_27  and  N_26 
REMARK   16  A    between atoms: CA_27  and  CB_30 
REMARK   17  A    between atoms: C_28  and  CA_27 
REMARK       I    between atoms: N_33  and  C_28 
REMARK   18  A    between atoms: CB_30  and  CG2_32 
REMARK   19  A    between atoms: CB_30  and  CG1_31 
REMARK   20  A    between atoms: CA_34  and  N_33 
REMARK   21  A    between atoms: C_35  and  CA_34 
REMARK       I    between atoms: N_37  and  C_35 
REMARK   22  A    between atoms: CA_38  and  N_37 
REMARK   23  A    between atoms: CA_38  and  CB_41 
REMARK   24  A    between atoms: C_39  and  CA_38 
REMARK       I    between atoms: N_43  and  C_39 
REMARK   25  A    between atoms: CB_41  and  OG_42 
REMARK   26  A    between atoms: CA_44  and  N_43 
REMARK   27  A    between atoms: CA_44  and  CB_47 
REMARK   28  A    between atoms: C_45  and  CA_44 
REMARK       I    between atoms: N_51  and  C_45 
REMARK   29  A    between atoms: CB_47  and  CG_48 
REMARK   30  A    between atoms: CG_48  and  CD1_49 
REMARK   31  A    between atoms: CG_48  and  CD2_50 
REMARK   32  A    between atoms: C_53  and  CA_52 
REMARK       I    between atoms: N_58  and  C_53 
REMARK   33  A    between atoms: CA_59  and  N_58 
REMARK   34  A    between atoms: CA_59  and  CB_62 
REMARK   35  A    between atoms: C_60  and  CA_59 
REMARK       I    between atoms: N_69  and  C_60 
REMARK   36  A    between atoms: CB_62  and  CG_63 
REMARK   37  A    between atoms: CG_63  and  CD_64 
REMARK   38  A    between atoms: CD_64  and  NE_65 
REMARK       I    between atoms: NE_65  and  CZ_66 
REMARK       I    between atoms: CZ_66  and  NH2_68 
REMARK       I    between atoms: CZ_66  and  NH1_67 
REMARK   39  A    between atoms: CA_70  and  N_69 
REMARK   40  A    between atoms: CA_70  and  CB_73 
REMARK   41  A    between atoms: C_71  and  CA_70 
REMARK       I    between atoms: N_77  and  C_71 
REMARK   42  A    between atoms: CB_73  and  CG_74 
REMARK   43  A    between atoms: CA_78  and  N_77 
REMARK   44  A    between atoms: CA_78  and  CB_81 
REMARK   45  A    between atoms: C_79  and  CA_78 
REMARK       I    between atoms: N_88  and  C_79 
REMARK   46  A    between atoms: CB_81  and  CG_82 
REMARK   47  A    between atoms: CA_89  and  N_88 
REMARK   48  A    between atoms: CA_89  and  CB_92 
REMARK   49  A    between atoms: C_90  and  CA_89 
REMARK       I    between atoms: C_90  and  N_97 
REMARK   50  A    between atoms: CB_92  and  CG_93 
REMARK   51  A    between atoms: CG_93  and  CD_94 
REMARK   52  A    between atoms: N_97  and  CA_98 
REMARK   53  A    between atoms: CA_98  and  CB_101 
REMARK   54  A    between atoms: CA_98  and  C_99 
REMARK   55  A    between atoms: C_99  and  O1_105 
REMARK   56  A    between atoms: CB_101  and  CG_102 
REMARK   57  A    between atoms: CG_102  and  CD1_103 
REMARK   58  A    between atoms: CG_102  and  CD2_104 
ROOT
ATOM      1  C   LEU d   1       4.231  42.083 -24.852  0.00  0.00     0.243 C 
ATOM      2  O   LEU d   1       5.043  42.146 -25.788  0.00  0.00    -0.271 OA
ATOM      3  N   PRO d   1       2.987  42.564 -24.942  0.00  0.00    -0.337 N 
ATOM      4  CA  PRO d   1       2.568  43.298 -26.137  0.00  0.00     0.091 C 
ATOM      5  CB  PRO d   1       1.120  43.697 -25.816  0.00  0.00    -0.036 C 
ATOM      6  CG  PRO d   1       0.683  42.758 -24.754  0.00  0.00    -0.048 C 
ATOM      7  CD  PRO d   1       1.897  42.439 -23.959  0.00  0.00    -0.001 C 
ATOM      8  H56 PRO d   1       2.600  42.641 -27.019  0.00  0.00     0.087 H 
ATOM      9  H57 PRO d   1       0.485  43.593 -26.708  0.00  0.00     0.036 H 
ATOM     10  H58 PRO d   1       1.077  44.735 -25.454  0.00  0.00     0.036 H 
ATOM     11  H59 PRO d   1      -0.078  43.231 -24.116  0.00  0.00     0.035 H 
ATOM     12  H60 PRO d   1       0.268  41.843 -25.201  0.00  0.00     0.035 H 
ATOM     13  H61 PRO d   1       2.027  43.154 -23.133  0.00  0.00     0.064 H 
ATOM     14  H62 PRO d   1       1.846  41.417 -23.555  0.00  0.00     0.064 H 
ENDROOT
BRANCH   4  15
ATOM     15  C   PRO d   1       3.458  44.551 -26.413  0.00  0.00     0.241 C 
ATOM     16  O   PRO d   1       3.505  45.040 -27.559  0.00  0.00    -0.271 OA
ATOM     17  N   ARG d   1       4.147  45.044 -25.360  0.00  0.00    -0.346 N 
ATOM     18  H63 ARG d   1       3.998  44.638 -24.458  0.00  0.00     0.163 HD
BRANCH  17  19
ATOM     19  CA  ARG d   1       5.109  46.154 -25.484  0.00  0.00     0.089 C 
ATOM     20  H64 ARG d   1       4.595  46.988 -25.985  0.00  0.00     0.087 H 
BRANCH  19  21
ATOM     21  CB  ARG d   1       5.608  46.651 -24.112  0.00  0.00    -0.036 C 
ATOM     22  H65 ARG d   1       6.047  45.802 -23.568  0.00  0.00     0.036 H 
ATOM     23  H66 ARG d   1       4.751  47.045 -23.547  0.00  0.00     0.036 H 
BRANCH  21  24
ATOM     24  CG  ARG d   1       6.689  47.780 -24.237  0.00  0.00    -0.048 C 
ATOM     25  H67 ARG d   1       6.419  48.428 -25.083  0.00  0.00     0.035 H 
ATOM     26  H68 ARG d   1       7.663  47.309 -24.433  0.00  0.00     0.035 H 
BRANCH  24  27
ATOM     27  CD  ARG d   1       6.817  48.668 -22.954  0.00  0.00     0.009 C 
ATOM     28  H69 ARG d   1       7.445  48.144 -22.219  0.00  0.00     0.064 H 
ATOM     29  H70 ARG d   1       5.815  48.830 -22.531  0.00  0.00     0.064 H 
BRANCH  27  30
ATOM     30  NE  ARG d   1       7.430  49.987 -23.257  0.00  0.00    -0.227 N 
ATOM     31  CZ  ARG d   1       7.488  51.024 -22.405  0.00  0.00     0.665 C 
ATOM     32  NH2 ARG d   1       8.064  52.171 -22.791  0.00  0.00    -0.235 N 
ATOM     33  NH1 ARG d   1       6.969  50.927 -21.171  0.00  0.00    -0.235 N 
ATOM     34  H74 ARG d   1       8.465  52.254 -23.736  0.00  0.00     0.174 HD
ATOM     35  H75 ARG d   1       8.106  52.970 -22.142  0.00  0.00     0.174 HD
ATOM     36  H72 ARG d   1       7.019  51.729 -20.527  0.00  0.00     0.174 HD
ATOM     37  H73 ARG d   1       6.520  50.051 -20.869  0.00  0.00     0.174 HD
ATOM     38  H71 ARG d   1       7.842  50.116 -24.192  0.00  0.00     0.177 HD
ENDBRANCH  27  30
ENDBRANCH  24  27
ENDBRANCH  21  24
ENDBRANCH  19  21
BRANCH  19  39
ATOM     39  C   ARG d   1       6.311  45.752 -26.332  0.00  0.00     0.241 C 
ATOM     40  O   ARG d   1       6.750  46.519 -27.178  0.00  0.00    -0.271 OA
ATOM     41  N   ASP d   1       6.848  44.554 -26.098  0.00  0.00    -0.346 N 
ATOM     42  H76 ASP d   1       6.474  43.988 -25.363  0.00  0.00     0.163 HD
BRANCH  41  43
ATOM     43  CA  ASP d   1       7.980  44.041 -26.895  0.00  0.00     0.098 C 
ATOM     44  H77 ASP d   1       8.820  44.743 -26.789  0.00  0.00     0.088 H 
BRANCH  43  45
ATOM     45  CB  ASP d   1       8.422  42.679 -26.357  0.00  0.00     0.043 C 
ATOM     46  H78 ASP d   1       9.269  42.319 -26.960  0.00  0.00     0.052 H 
ATOM     47  H79 ASP d   1       7.582  41.974 -26.447  0.00  0.00     0.052 H 
BRANCH  45  48
ATOM     48  CG  ASP d   1       8.856  42.743 -24.887  0.00  0.00     0.175 C 
ATOM     49  OD1 ASP d   1       9.422  43.787 -24.481  0.00  0.00    -0.648 OA
ATOM     50  OD2 ASP d   1       8.627  41.756 -24.140  0.00  0.00    -0.648 OA
ENDBRANCH  45  48
ENDBRANCH  43  45
BRANCH  43  51
ATOM     51  C   ASP d   1       7.621  43.948 -28.405  0.00  0.00     0.241 C 
ATOM     52  O   ASP d   1       8.509  43.852 -29.267  0.00  0.00    -0.271 OA
ATOM     53  N   PHE d   1       6.317  43.990 -28.708  0.00  0.00    -0.346 N 
ATOM     54  H80 PHE d   1       5.651  44.010 -27.962  0.00  0.00     0.163 HD
BRANCH  53  55
ATOM     55  CA  PHE d   1       5.830  44.008 -30.086  0.00  0.00     0.093 C 
ATOM     56  H81 PHE d   1       6.438  43.297 -30.665  0.00  0.00     0.088 H 
BRANCH  55  57
ATOM     57  CB  PHE d   1       4.367  43.538 -30.140  0.00  0.00    -0.014 C 
ATOM     58  H82 PHE d   1       3.732  44.329 -29.713  0.00  0.00     0.043 H 
ATOM     59  H83 PHE d   1       4.273  42.625 -29.534  0.00  0.00     0.043 H 
BRANCH  57  60
ATOM     60  CG  PHE d   1       3.885  43.240 -31.515  0.00  0.00    -0.056 A 
ATOM     61  CD1 PHE d   1       4.459  42.210 -32.252  0.00  0.00    -0.077 A 
ATOM     62  CE1 PHE d   1       4.024  41.928 -33.535  0.00  0.00    -0.082 A 
ATOM     63  H84 PHE d   1       5.257  41.620 -31.816  0.00  0.00     0.084 H 
ATOM     64  CZ  PHE d   1       2.989  42.686 -34.103  0.00  0.00    -0.083 A 
ATOM     65  H86 PHE d   1       4.482  41.124 -34.100  0.00  0.00     0.083 H 
ATOM     66  CE2 PHE d   1       2.415  43.716 -33.385  0.00  0.00    -0.082 A 
ATOM     67  H88 PHE d   1       2.640  42.463 -35.105  0.00  0.00     0.083 H 
ATOM     68  CD2 PHE d   1       2.859  43.987 -32.089  0.00  0.00    -0.077 A 
ATOM     69  H87 PHE d   1       1.623  44.312 -33.825  0.00  0.00     0.083 H 
ATOM     70  H85 PHE d   1       2.399  44.789 -31.523  0.00  0.00     0.084 H 
ENDBRANCH  57  60
ENDBRANCH  55  57
BRANCH  55  71
ATOM     71  C   PHE d   1       5.981  45.407 -30.749  0.00  0.00     0.241 C 
ATOM     72  O   PHE d   1       5.729  45.539 -31.943  0.00  0.00    -0.271 OA
ATOM     73  N   GLU d   1       6.399  46.432 -29.970  0.00  0.00    -0.346 N 
ATOM     74  H89 GLU d   1       6.525  46.264 -28.992  0.00  0.00     0.163 HD
BRANCH  73  75
ATOM     75  CA  GLU d   1       6.684  47.813 -30.500  0.00  0.00     0.090 C 
ATOM     76  H90 GLU d   1       5.751  48.194 -30.941  0.00  0.00     0.087 H 
BRANCH  75  77
ATOM     77  CB  GLU d   1       7.104  48.762 -29.375  0.00  0.00    -0.029 C 
ATOM     78  H91 GLU d   1       6.343  48.710 -28.582  0.00  0.00     0.037 H 
ATOM     79  H92 GLU d   1       7.138  49.783 -29.784  0.00  0.00     0.037 H 
BRANCH  77  80
ATOM     80  CG  GLU d   1       8.480  48.452 -28.742  0.00  0.00     0.018 C 
ATOM     81  H93 GLU d   1       9.268  48.691 -29.472  0.00  0.00     0.049 H 
ATOM     82  H94 GLU d   1       8.523  47.381 -28.493  0.00  0.00     0.049 H 
BRANCH  80  83
ATOM     83  CD  GLU d   1       8.726  49.267 -27.464  0.00  0.00     0.172 C 
ATOM     84  OE2 GLU d   1       9.211  48.683 -26.465  0.00  0.00    -0.648 OA
ATOM     85  OE1 GLU d   1       8.435  50.490 -27.460  0.00  0.00    -0.648 OA
ENDBRANCH  80  83
ENDBRANCH  77  80
ENDBRANCH  75  77
BRANCH  75  86
ATOM     86  C   GLU d   1       7.769  47.835 -31.599  0.00  0.00     0.241 C 
ATOM     87  O   GLU d   1       7.842  48.792 -32.376  0.00  0.00    -0.271 OA
ATOM     88  N   LEU d   1       8.631  46.806 -31.617  0.00  0.00    -0.345 N 
ATOM     89  H95 LEU d   1       8.601  46.148 -30.865  0.00  0.00     0.163 HD
BRANCH  88  90
ATOM     90  CA  LEU d   1       9.625  46.597 -32.698  0.00  0.00     0.093 C 
ATOM     91  H96 LEU d   1       9.121  46.786 -33.657  0.00  0.00     0.089 H 
BRANCH  90  92
ATOM     92  CB  LEU d   1      10.821  47.575 -32.592  0.00  0.00    -0.034 C 
ATOM     93  H97 LEU d   1      11.698  47.058 -33.010  0.00  0.00     0.037 H 
ATOM     94  H98 LEU d   1      10.985  47.769 -31.522  0.00  0.00     0.037 H 
BRANCH  92  95
ATOM     95  CG  LEU d   1      10.730  48.954 -33.294  0.00  0.00    -0.059 C 
ATOM     96  H99 LEU d   1       9.837  49.467 -32.907  0.00  0.00     0.038 H 
BRANCH  95  97
ATOM     97  CD1 LEU d   1      11.955  49.818 -32.954  0.00  0.00    -0.073 C 
ATOM     98 0H10 LEU d   1      11.870  50.790 -33.462  0.00  0.00     0.028 H 
ATOM     99 1H10 LEU d   1      12.869  49.307 -33.291  0.00  0.00     0.028 H 
ATOM    100 2H10 LEU d   1      12.002  49.975 -31.866  0.00  0.00     0.028 H 
ENDBRANCH  95  97
BRANCH  95 101
ATOM    101  CD2 LEU d   1      10.561  48.815 -34.842  0.00  0.00    -0.073 C 
ATOM    102 3H10 LEU d   1       9.680  48.194 -35.060  0.00  0.00     0.028 H 
ATOM    103 4H10 LEU d   1      11.458  48.342 -35.268  0.00  0.00     0.028 H 
ATOM    104 5H10 LEU d   1      10.426  49.812 -35.287  0.00  0.00     0.028 H 
ENDBRANCH  95 101
ENDBRANCH  92  95
ENDBRANCH  90  92
BRANCH  90 105
ATOM    105  C   LEU d   1      10.124  45.138 -32.699  0.00  0.00     0.163 C 
ATOM    106  O   LEU d   1       9.807  44.351 -31.789  0.00  0.00    -0.648 OA
BRANCH 105 107
ATOM    107  O1  LEU d   1      10.905  44.714 -33.688  0.00  0.00    -0.775 OA
ATOM    108 6H10 LEU d   1      10.482  43.993 -34.139  0.00  0.00     0.167 HD
ENDBRANCH 105 107
ENDBRANCH  90 105
ENDBRANCH  88  90
ENDBRANCH  75  86
ENDBRANCH  73  75
ENDBRANCH  55  71
ENDBRANCH  53  55
ENDBRANCH  43  51
ENDBRANCH  41  43
ENDBRANCH  19  39
ENDBRANCH  17  19
ENDBRANCH   4  15
BRANCH   1 109
ATOM    109  CA  LEU d   1       4.630  41.432 -23.534  0.00  0.00     0.090 C 
ATOM    110  H46 LEU d   1       3.754  40.932 -23.096  0.00  0.00     0.087 H 
BRANCH 109 111
ATOM    111  N   LEU d   1       5.680  40.431 -23.782  0.00  0.00    -0.346 N 
ATOM    112  C   SER d   1       5.404  39.235 -24.292  0.00  0.00     0.243 C 
ATOM    113  O   SER d   1       4.255  38.850 -24.525  0.00  0.00    -0.271 OA
ATOM    114  H45 LEU d   1       6.628  40.657 -23.560  0.00  0.00     0.163 HD
BRANCH 112 115
ATOM    115  CA  SER d   1       6.606  38.339 -24.544  0.00  0.00     0.109 C 
ATOM    116  H41 SER d   1       7.299  38.450 -23.697  0.00  0.00     0.090 H 
BRANCH 115 117
ATOM    117  N   SER d   1       6.197  36.936 -24.616  0.00  0.00    -0.344 N 
ATOM    118  C   GLY d   1       6.350  36.112 -23.577  0.00  0.00     0.236 C 
ATOM    119  O   GLY d   1       6.868  36.467 -22.505  0.00  0.00    -0.272 OA
ATOM    120  H40 SER d   1       5.794  36.587 -25.462  0.00  0.00     0.163 HD
BRANCH 118 121
ATOM    121  CA  GLY d   1       5.842  34.692 -23.773  0.00  0.00     0.069 C 
ATOM    122  H38 GLY d   1       4.788  34.660 -23.460  0.00  0.00     0.078 H 
ATOM    123  H39 GLY d   1       5.914  34.448 -24.843  0.00  0.00     0.078 H 
BRANCH 121 124
ATOM    124  N   GLY d   1       6.561  33.681 -23.033  0.00  0.00    -0.351 N 
ATOM    125  C   VAL d   1       7.840  33.419 -23.264  0.00  0.00     0.241 C 
ATOM    126  O   VAL d   1       8.517  34.017 -24.104  0.00  0.00    -0.271 OA
ATOM    127  H37 GLY d   1       6.080  33.163 -22.326  0.00  0.00     0.163 HD
BRANCH 125 128
ATOM    128  CA  VAL d   1       8.452  32.313 -22.435  0.00  0.00     0.092 C 
ATOM    129  H29 VAL d   1       7.657  31.689 -22.001  0.00  0.00     0.088 H 
BRANCH 128 130
ATOM    130  N   VAL d   1       9.248  31.522 -23.342  0.00  0.00    -0.346 N 
ATOM    131  C   ILE d   1       8.874  30.316 -23.749  0.00  0.00     0.241 C 
ATOM    132  O   ILE d   1       7.905  29.723 -23.281  0.00  0.00    -0.271 OA
ATOM    133  H28 VAL d   1      10.113  31.896 -23.676  0.00  0.00     0.163 HD
BRANCH 131 134
ATOM    134  CA  ILE d   1       9.746  29.663 -24.831  0.00  0.00     0.092 C 
ATOM    135  H18 ILE d   1       9.219  29.757 -25.792  0.00  0.00     0.088 H 
BRANCH 134 136
ATOM    136  N   ILE d   1      11.039  30.391 -24.978  0.00  0.00    -0.346 N 
ATOM    137  C   SER d   1      11.180  31.372 -25.886  0.00  0.00     0.243 C 
ATOM    138  O   SER d   1      10.350  31.583 -26.778  0.00  0.00    -0.271 OA
ATOM    139  H17 ILE d   1      11.812  30.146 -24.393  0.00  0.00     0.163 HD
BRANCH 137 140
ATOM    140  CA  SER d   1      12.472  32.217 -25.816  0.00  0.00     0.109 C 
ATOM    141  H13 SER d   1      13.237  31.652 -25.262  0.00  0.00     0.090 H 
BRANCH 140 142
ATOM    142  N   SER d   1      12.960  32.486 -27.158  0.00  0.00    -0.344 N 
ATOM    143  C   PHE d   1      14.252  32.416 -27.450  0.00  0.00     0.249 C 
ATOM    144  O   PHE d   1      15.131  32.184 -26.599  0.00  0.00    -0.271 OA
ATOM    145  H12 SER d   1      12.308  32.729 -27.876  0.00  0.00     0.163 HD
BRANCH 143 146
ATOM    146  CA  PHE d   1      14.623  32.620 -28.918  0.00  0.00     0.179 C 
ATOM    147  H4  PHE d   1      13.765  33.066 -29.442  0.00  0.00     0.099 H 
BRANCH 146 148
ATOM    148  N   PHE d   1      15.803  33.548 -29.057  0.00  0.00    -0.066 N 
ATOM    149  H1  PHE d   1      16.026  33.664 -30.033  0.00  0.00     0.275 HD
ATOM    150  H2  PHE d   1      16.597  33.156 -28.576  0.00  0.00     0.275 HD
ATOM    151  H3  PHE d   1      15.575  34.444 -28.655  0.00  0.00     0.275 HD
ENDBRANCH 146 148
BRANCH 146 152
ATOM    152  CB  PHE d   1      14.937  31.248 -29.550  0.00  0.00    -0.006 C 
ATOM    153  H5  PHE d   1      15.874  30.871 -29.113  0.00  0.00     0.043 H 
ATOM    154  H6  PHE d   1      15.068  31.387 -30.633  0.00  0.00     0.043 H 
BRANCH 152 155
ATOM    155  CG  PHE d   1      13.855  30.209 -29.329  0.00  0.00    -0.056 A 
ATOM    156  CD1 PHE d   1      12.769  30.117 -30.191  0.00  0.00    -0.077 A 
ATOM    157  CE1 PHE d   1      11.774  29.177 -29.984  0.00  0.00    -0.082 A 
ATOM    158  H7  PHE d   1      12.700  30.791 -31.037  0.00  0.00     0.084 H 
ATOM    159  CZ  PHE d   1      11.850  28.327 -28.939  0.00  0.00    -0.083 A 
ATOM    160  H9  PHE d   1      10.931  29.124 -30.664  0.00  0.00     0.083 H 
ATOM    161  CE2 PHE d   1      12.928  28.401 -28.059  0.00  0.00    -0.082 A 
ATOM    162  H11 PHE d   1      11.073  27.587 -28.784  0.00  0.00     0.083 H 
ATOM    163  CD2 PHE d   1      13.922  29.337 -28.259  0.00  0.00    -0.077 A 
ATOM    164  H10 PHE d   1      12.986  27.722 -27.216  0.00  0.00     0.083 H 
ATOM    165  H8  PHE d   1      14.760  29.389 -27.573  0.00  0.00     0.084 H 
ENDBRANCH 152 155
ENDBRANCH 146 152
ENDBRANCH 143 146
ENDBRANCH 140 142
BRANCH 140 166
ATOM    166  CB  SER d   1      12.208  33.548 -25.086  0.00  0.00     0.044 C 
ATOM    167  H14 SER d   1      11.355  34.053 -25.563  0.00  0.00     0.077 H 
ATOM    168  H15 SER d   1      13.102  34.183 -25.168  0.00  0.00     0.077 H 
BRANCH 166 169
ATOM    169  OG  SER d   1      11.913  33.345 -23.714  0.00  0.00    -0.398 OA
ATOM    170  H16 SER d   1      12.648  32.914 -23.294  0.00  0.00     0.209 HD
ENDBRANCH 166 169
ENDBRANCH 140 166
ENDBRANCH 137 140
ENDBRANCH 134 136
BRANCH 134 171
ATOM    171  CB  ILE d   1       9.879  28.125 -24.528  0.00  0.00    -0.030 C 
ATOM    172  H19 ILE d   1       8.872  27.742 -24.306  0.00  0.00     0.043 H 
BRANCH 171 173
ATOM    173  CG2 ILE d   1      10.401  27.362 -25.738  0.00  0.00    -0.071 C 
ATOM    174  H22 ILE d   1       9.753  27.560 -26.604  0.00  0.00     0.028 H 
ATOM    175  H23 ILE d   1      10.401  26.284 -25.520  0.00  0.00     0.028 H 
ATOM    176  H24 ILE d   1      11.426  27.691 -25.965  0.00  0.00     0.028 H 
ENDBRANCH 171 173
BRANCH 171 177
ATOM    177  CG1 ILE d   1      10.744  27.885 -23.295  0.00  0.00    -0.063 C 
ATOM    178  H20 ILE d   1      10.392  28.531 -22.477  0.00  0.00     0.033 H 
ATOM    179  H21 ILE d   1      11.789  28.133 -23.535  0.00  0.00     0.033 H 
BRANCH 177 180
ATOM    180  CD1 ILE d   1      10.673  26.526 -22.877  0.00  0.00    -0.076 C 
ATOM    181  H25 ILE d   1      11.305  26.382 -21.988  0.00  0.00     0.027 H 
ATOM    182  H26 ILE d   1      11.028  25.874 -23.689  0.00  0.00     0.027 H 
ATOM    183  H27 ILE d   1       9.631  26.272 -22.631  0.00  0.00     0.027 H 
ENDBRANCH 177 180
ENDBRANCH 171 177
ENDBRANCH 134 171
ENDBRANCH 131 134
ENDBRANCH 128 130
BRANCH 128 184
ATOM    184  CB  VAL d   1       9.308  32.903 -21.283  0.00  0.00    -0.033 C 
ATOM    185  H30 VAL d   1      10.086  33.545 -21.722  0.00  0.00     0.042 H 
BRANCH 184 186
ATOM    186  CG2 VAL d   1       9.989  31.778 -20.517  0.00  0.00    -0.071 C 
ATOM    187  H34 VAL d   1      10.598  31.178 -21.210  0.00  0.00     0.028 H 
ATOM    188  H35 VAL d   1       9.226  31.137 -20.051  0.00  0.00     0.028 H 
ATOM    189  H36 VAL d   1      10.636  32.205 -19.736  0.00  0.00     0.028 H 
ENDBRANCH 184 186
BRANCH 184 190
ATOM    190  CG1 VAL d   1       8.439  33.773 -20.341  0.00  0.00    -0.071 C 
ATOM    191  H31 VAL d   1       9.067  34.179 -19.534  0.00  0.00     0.028 H 
ATOM    192  H32 VAL d   1       7.638  33.156 -19.907  0.00  0.00     0.028 H 
ATOM    193  H33 VAL d   1       7.995  34.601 -20.913  0.00  0.00     0.028 H 
ENDBRANCH 184 190
ENDBRANCH 128 184
ENDBRANCH 125 128
ENDBRANCH 121 124
ENDBRANCH 118 121
ENDBRANCH 115 117
BRANCH 115 194
ATOM    194  CB  SER d   1       7.344  38.764 -25.821  0.00  0.00     0.044 C 
ATOM    195  H42 SER d   1       8.148  38.041 -26.024  0.00  0.00     0.077 H 
ATOM    196  H43 SER d   1       7.779  39.762 -25.665  0.00  0.00     0.077 H 
BRANCH 194 197
ATOM    197  OG  SER d   1       6.481  38.812 -26.936  0.00  0.00    -0.398 OA
ATOM    198  H44 SER d   1       6.105  37.952 -27.081  0.00  0.00     0.209 HD
ENDBRANCH 194 197
ENDBRANCH 115 194
ENDBRANCH 112 115
ENDBRANCH 109 111
BRANCH 109 199
ATOM    199  CB  LEU d   1       5.128  42.508 -22.565  0.00  0.00    -0.035 C 
ATOM    200  H47 LEU d   1       4.335  43.265 -22.470  0.00  0.00     0.037 H 
ATOM    201  H48 LEU d   1       6.023  42.968 -23.009  0.00  0.00     0.037 H 
BRANCH 199 202
ATOM    202  CG  LEU d   1       5.497  42.040 -21.151  0.00  0.00    -0.059 C 
ATOM    203  H49 LEU d   1       5.941  41.037 -21.236  0.00  0.00     0.038 H 
BRANCH 202 204
ATOM    204  CD1 LEU d   1       6.536  42.955 -20.545  0.00  0.00    -0.073 C 
ATOM    205  H50 LEU d   1       6.788  42.605 -19.533  0.00  0.00     0.028 H 
ATOM    206  H51 LEU d   1       6.136  43.978 -20.490  0.00  0.00     0.028 H 
ATOM    207  H52 LEU d   1       7.441  42.948 -21.171  0.00  0.00     0.028 H 
ENDBRANCH 202 204
BRANCH 202 208
ATOM    208  CD2 LEU d   1       4.263  41.923 -20.250  0.00  0.00    -0.073 C 
ATOM    209  H53 LEU d   1       3.529  41.252 -20.719  0.00  0.00     0.028 H 
ATOM    210  H54 LEU d   1       3.814  42.918 -20.111  0.00  0.00     0.028 H 
ATOM    211  H55 LEU d   1       4.560  41.515 -19.273  0.00  0.00     0.028 H 
ENDBRANCH 202 208
ENDBRANCH 199 202
ENDBRANCH 109 199
ENDBRANCH   1 109
TORSDOF 58
