REMARK  16 active torsions:
REMARK  status: ('A' for Active; 'I' for Inactive)
REMARK    1  A    between atoms: OAC_1  and  CAK_2 
REMARK    2  A    between atoms: CAK_2  and  CAM_3 
REMARK    3  A    between atoms: CAM_3  and  NAS_4 
REMARK    4  A    between atoms: NAS_4  and  CAO_5 
REMARK    5  A    between atoms: CAO_5  and  CAQ_6 
REMARK    6  A    between atoms: CAQ_6  and  NAU_7 
REMARK    7  A    between atoms: NAU_7  and  CAY_8 
REMARK    8  A    between atoms: CAW_15  and  OAE_16 
REMARK    9  A    between atoms: CAX_19  and  OAF_20 
REMARK   10  A    between atoms: CAZ_25  and  NAV_26 
REMARK   11  A    between atoms: NAV_26  and  CAR_27 
REMARK   12  A    between atoms: CAR_27  and  CAP_28 
REMARK   13  A    between atoms: CAP_28  and  NAT_29 
REMARK   14  A    between atoms: NAT_29  and  CAN_30 
REMARK   15  A    between atoms: CAN_30  and  CAL_31 
REMARK   16  A    between atoms: CAL_31  and  OAD_32 
ROOT
ATOM      1  CAY MIX d   1      62.846   5.609 -24.728  0.00  0.00     0.043 A 
ATOM      2  CAI MIX d   1      62.714   5.694 -23.350  0.00  0.00    -0.054 A 
ATOM      3  CAJ MIX d   1      62.342   4.589 -22.594  0.00  0.00    -0.054 A 
ATOM      4  CBE MIX d   1      62.605   4.397 -25.347  0.00  0.00     0.058 A 
ATOM      5  CBA MIX d   1      62.745   4.324 -26.724  0.00  0.00     0.199 A 
ATOM      6  OAA MIX d   1      63.077   5.329 -27.355  0.00  0.00    -0.286 OA
ATOM      7  CBC MIX d   1      62.513   3.120 -27.373  0.00  0.00     0.065 A 
ATOM      8  CAW MIX d   1      62.651   3.022 -28.748  0.00  0.00     0.081 A 
ATOM      9  CAG MIX d   1      62.404   1.830 -29.401  0.00  0.00    -0.047 A 
ATOM     10  CAH MIX d   1      62.025   0.721 -28.657  0.00  0.00    -0.047 A 
ATOM     11  CAX MIX d   1      61.887   0.800 -27.281  0.00  0.00     0.081 A 
ATOM     12  CBD MIX d   1      62.135   2.001 -26.644  0.00  0.00     0.065 A 
ATOM     13  CBB MIX d   1      61.997   2.072 -25.271  0.00  0.00     0.199 A 
ATOM     14  OAB MIX d   1      61.658   1.048 -24.682  0.00  0.00    -0.286 OA
ATOM     15  CBF MIX d   1      62.233   3.273 -24.596  0.00  0.00     0.058 A 
ATOM     16  CAZ MIX d   1      62.096   3.376 -23.205  0.00  0.00     0.043 A 
ATOM     17  H13 MIX d   1      62.904   6.639 -22.854  0.00  0.00     0.087 H 
ATOM     18  H14 MIX d   1      62.244   4.680 -21.518  0.00  0.00     0.087 H 
ATOM     19  H16 MIX d   1      62.505   1.762 -30.478  0.00  0.00     0.087 H 
ATOM     20  H17 MIX d   1      61.834  -0.220 -29.160  0.00  0.00     0.087 H 
ENDROOT
BRANCH   1  21
ATOM     21  NAU MIX d   1      63.209   6.669 -25.452  0.00  0.00    -0.388 N 
ATOM     22  H12 MIX d   1      63.622   6.522 -26.384  0.00  0.00     0.159 HD
BRANCH  21  23
ATOM     23  CAQ MIX d   1      63.035   8.041 -24.955  0.00  0.00     0.015 C 
ATOM     24  H10 MIX d   1      62.727   8.692 -25.787  0.00  0.00     0.066 H 
ATOM     25  H11 MIX d   1      62.258   8.049 -24.176  0.00  0.00     0.066 H 
BRANCH  23  26
ATOM     26  CAO MIX d   1      64.350   8.563 -24.364  0.00  0.00     0.096 C 
ATOM     27  H8  MIX d   1      64.571   8.033 -23.425  0.00  0.00     0.078 H 
ATOM     28  H9  MIX d   1      65.169   8.398 -25.079  0.00  0.00     0.078 H 
BRANCH  26  29
ATOM     29  NAS MIX d   1      64.205  10.011 -24.097  0.00  0.00    -0.072 N 
ATOM     30  H6  MIX d   1      64.951  10.501 -24.565  0.00  0.00     0.277 HD
ATOM     31  H7  MIX d   1      63.318  10.319 -24.464  0.00  0.00     0.277 HD
BRANCH  29  32
ATOM     32  CAM MIX d   1      64.258  10.338 -22.650  0.00  0.00     0.101 C 
ATOM     33  H4  MIX d   1      63.630  11.220 -22.457  0.00  0.00     0.079 H 
ATOM     34  H5  MIX d   1      63.877   9.483 -22.073  0.00  0.00     0.079 H 
BRANCH  32  35
ATOM     35  CAK MIX d   1      65.704  10.641 -22.208  0.00  0.00     0.039 C 
ATOM     36  H2  MIX d   1      65.917  11.709 -22.365  0.00  0.00     0.076 H 
ATOM     37  H3  MIX d   1      65.817  10.398 -21.141  0.00  0.00     0.076 H 
BRANCH  35  38
ATOM     38  OAC MIX d   1      66.634   9.849 -22.981  0.00  0.00    -0.399 OA
ATOM     39  H1  MIX d   1      67.521  10.042 -22.702  0.00  0.00     0.209 HD
ENDBRANCH  35  38
ENDBRANCH  32  35
ENDBRANCH  29  32
ENDBRANCH  26  29
ENDBRANCH  23  26
ENDBRANCH  21  23
ENDBRANCH   1  21
BRANCH  16  40
ATOM     40  NAV MIX d   1      61.741   2.362 -22.425  0.00  0.00    -0.388 N 
ATOM     41  H19 MIX d   1      62.418   1.612 -22.225  0.00  0.00     0.159 HD
BRANCH  40  42
ATOM     42  CAR MIX d   1      60.400   2.299 -21.847  0.00  0.00     0.015 C 
ATOM     43  H20 MIX d   1      59.666   2.010 -22.614  0.00  0.00     0.066 H 
ATOM     44  H21 MIX d   1      60.121   3.274 -21.422  0.00  0.00     0.066 H 
BRANCH  42  45
ATOM     45  CAP MIX d   1      60.463   1.246 -20.755  0.00  0.00     0.096 C 
ATOM     46  H22 MIX d   1      61.057   1.628 -19.911  0.00  0.00     0.078 H 
ATOM     47  H23 MIX d   1      60.933   0.334 -21.152  0.00  0.00     0.078 H 
BRANCH  45  48
ATOM     48  NAT MIX d   1      59.102   0.935 -20.295  0.00  0.00    -0.072 N 
ATOM     49  H24 MIX d   1      58.979  -0.065 -20.298  0.00  0.00     0.277 HD
ATOM     50  H25 MIX d   1      58.441   1.357 -20.928  0.00  0.00     0.277 HD
BRANCH  48  51
ATOM     51  CAN MIX d   1      58.845   1.446 -18.922  0.00  0.00     0.101 C 
ATOM     52  H26 MIX d   1      57.842   1.896 -18.886  0.00  0.00     0.079 H 
ATOM     53  H27 MIX d   1      59.598   2.208 -18.673  0.00  0.00     0.079 H 
BRANCH  51  54
ATOM     54  CAL MIX d   1      58.924   0.294 -17.889  0.00  0.00     0.039 C 
ATOM     55  H28 MIX d   1      58.964   0.729 -16.880  0.00  0.00     0.076 H 
ATOM     56  H29 MIX d   1      59.841  -0.283 -18.076  0.00  0.00     0.076 H 
BRANCH  54  57
ATOM     57  OAD MIX d   1      57.790  -0.603 -17.961  0.00  0.00    -0.399 OA
ATOM     58  H30 MIX d   1      57.888  -1.288 -17.310  0.00  0.00     0.209 HD
ENDBRANCH  54  57
ENDBRANCH  51  54
ENDBRANCH  48  51
ENDBRANCH  45  48
ENDBRANCH  42  45
ENDBRANCH  40  42
ENDBRANCH  16  40
BRANCH   8  59
ATOM     59  OAE MIX d   1      63.017   4.101 -29.466  0.00  0.00    -0.360 OA
ATOM     60  H15 MIX d   1      62.375   4.791 -29.347  0.00  0.00     0.217 HD
ENDBRANCH   8  59
BRANCH  11  61
ATOM     61  OAF MIX d   1      61.518  -0.289 -26.566  0.00  0.00    -0.360 OA
ATOM     62  H18 MIX d   1      61.472  -0.061 -25.645  0.00  0.00     0.217 HD
ENDBRANCH  11  61
TORSDOF 16
