REMARK WARNING: 32 MAX_TORS EXCEEDED!!!
REMARK  73 active torsions:
REMARK  status: ('A' for Active; 'I' for Inactive)
REMARK    1  A    between atoms: N_1  and  CA_2 
REMARK    2  A    between atoms: CA_2  and  C_3 
REMARK    3  A    between atoms: CA_2  and  CB_5 
REMARK       I    between atoms: C_3  and  N_6 
REMARK    4  A    between atoms: N_6  and  CA_7 
REMARK    5  A    between atoms: CA_7  and  C_8 
REMARK    6  A    between atoms: CA_7  and  CB_10 
REMARK       I    between atoms: C_8  and  N_17 
REMARK    7  A    between atoms: CB_10  and  CG_11 
REMARK    8  A    between atoms: CG_11  and  CD_12 
REMARK    9  A    between atoms: CD_12  and  NE_13 
REMARK       I    between atoms: NE_13  and  CZ_14 
REMARK       I    between atoms: CZ_14  and  NH1_15 
REMARK       I    between atoms: CZ_14  and  NH2_16 
REMARK   10  A    between atoms: N_17  and  CA_18 
REMARK   11  A    between atoms: CA_18  and  C_19 
REMARK   12  A    between atoms: CA_18  and  CB_21 
REMARK       I    between atoms: C_19  and  N_24 
REMARK   13  A    between atoms: CB_21  and  OG1_22 
REMARK   14  A    between atoms: CB_21  and  CG2_23 
REMARK   15  A    between atoms: N_24  and  CA_25 
REMARK   16  A    between atoms: CA_25  and  CB_26 
REMARK   17  A    between atoms: CA_25  and  C_31 
REMARK   18  A    between atoms: CB_26  and  CG_27 
REMARK   19  A    between atoms: CG_27  and  CD_28 
REMARK   20  A    between atoms: CD_28  and  CE_29 
REMARK   21  A    between atoms: CE_29  and  NZ_30 
REMARK   22  A    between atoms: NZ_30  and  CM1_33 
REMARK   23  A    between atoms: NZ_30  and  CM2_34 
REMARK   24  A    between atoms: NZ_30  and  CM3_35 
REMARK       I    between atoms: C_31  and  N_36 
REMARK   25  A    between atoms: N_36  and  CA_37 
REMARK   26  A    between atoms: CA_37  and  C_38 
REMARK   27  A    between atoms: CA_37  and  CB_40 
REMARK       I    between atoms: C_38  and  N_45 
REMARK   28  A    between atoms: CB_40  and  CG_41 
REMARK   29  A    between atoms: CG_41  and  CD_42 
REMARK       I    between atoms: CD_42  and  NE2_44 
REMARK   30  A    between atoms: N_45  and  CA_46 
REMARK   31  A    between atoms: CA_46  and  C_47 
REMARK   32  A    between atoms: CA_46  and  CB_49 
REMARK       I    between atoms: C_47  and  N_52 
REMARK   33  A    between atoms: CB_49  and  OG1_50 
REMARK   34  A    between atoms: CB_49  and  CG2_51 
REMARK   35  A    between atoms: N_52  and  CA_53 
REMARK   36  A    between atoms: CA_53  and  C_54 
REMARK   37  A    between atoms: CA_53  and  CB_56 
REMARK       I    between atoms: C_54  and  N_57 
REMARK   38  A    between atoms: N_57  and  CA_58 
REMARK   39  A    between atoms: CA_58  and  C_59 
REMARK   40  A    between atoms: CA_58  and  CB_61 
REMARK       I    between atoms: C_59  and  N_68 
REMARK   41  A    between atoms: CB_61  and  CG_62 
REMARK   42  A    between atoms: CG_62  and  CD_63 
REMARK   43  A    between atoms: CD_63  and  NE_64 
REMARK       I    between atoms: NE_64  and  CZ_65 
REMARK       I    between atoms: CZ_65  and  NH1_66 
REMARK   44  A    between atoms: N_68  and  CA_69 
REMARK   45  A    between atoms: CA_69  and  C_70 
REMARK   46  A    between atoms: CA_69  and  CB_72 
REMARK       I    between atoms: C_70  and  N_77 
REMARK   47  A    between atoms: CB_72  and  CG_73 
REMARK   48  A    between atoms: CG_73  and  CD_74 
REMARK   49  A    between atoms: CD_74  and  CE_75 
REMARK   50  A    between atoms: CE_75  and  NZ_76 
REMARK   51  A    between atoms: N_77  and  CA_78 
REMARK   52  A    between atoms: CA_78  and  C_79 
REMARK   53  A    between atoms: CA_78  and  CB_81 
REMARK       I    between atoms: C_79  and  N_83 
REMARK   54  A    between atoms: CB_81  and  OG_82 
REMARK   55  A    between atoms: N_83  and  CA_84 
REMARK   56  A    between atoms: CA_84  and  C_85 
REMARK   57  A    between atoms: CA_84  and  CB_87 
REMARK       I    between atoms: C_85  and  N_90 
REMARK   58  A    between atoms: CB_87  and  OG1_88 
REMARK   59  A    between atoms: CB_87  and  CG2_89 
REMARK   60  A    between atoms: N_90  and  CA_91 
REMARK   61  A    between atoms: CA_91  and  C_92 
REMARK       I    between atoms: C_92  and  N_94 
REMARK   62  A    between atoms: N_94  and  CA_95 
REMARK   63  A    between atoms: CA_95  and  C_96 
REMARK       I    between atoms: C_96  and  N_98 
REMARK   64  A    between atoms: N_98  and  CA_99 
REMARK   65  A    between atoms: CA_99  and  C_100 
REMARK   66  A    between atoms: CA_99  and  CB_102 
REMARK       I    between atoms: C_100  and  N_107 
REMARK   67  A    between atoms: CB_102  and  CG_103 
REMARK   68  A    between atoms: CG_103  and  CD_104 
REMARK   69  A    between atoms: CD_104  and  CE_105 
REMARK   70  A    between atoms: CE_105  and  NZ_106 
REMARK   71  A    between atoms: N_107  and  CA_108 
REMARK   72  A    between atoms: CA_108  and  C_109 
REMARK   73  A    between atoms: CA_108  and  CB_111 
ROOT
ATOM      1  CA  ALA d   1     -13.549  -1.433  -7.117  0.00  0.00     0.086 C 
ATOM      2  H63 ALA d   1     -13.753  -2.248  -7.827  0.00  0.00     0.086 H 
ENDROOT
BRANCH   1   3
ATOM      3  N   ALA d   1     -12.505  -0.575  -7.671  0.00  0.00    -0.346 N 
ATOM      4  C   THR d   1     -11.560  -1.063  -8.470  0.00  0.00     0.243 C 
ATOM      5  O   THR d   1     -11.501  -2.249  -8.794  0.00  0.00    -0.271 OA
ATOM      6  H62 ALA d   1     -12.501   0.399  -7.445  0.00  0.00     0.163 HD
BRANCH   4   7
ATOM      7  CA  THR d   1     -10.525  -0.062  -8.985  0.00  0.00     0.113 C 
ATOM      8  H56 THR d   1     -10.275   0.640  -8.176  0.00  0.00     0.091 H 
BRANCH   7   9
ATOM      9  N   THR d   1      -9.309  -0.748  -9.408  0.00  0.00    -0.344 N 
ATOM     10  C   GLN d   1      -8.103  -0.342  -9.016  0.00  0.00     0.241 C 
ATOM     11  O   GLN d   1      -7.924   0.629  -8.281  0.00  0.00    -0.271 OA
ATOM     12  H55 THR d   1      -9.383  -1.544 -10.008  0.00  0.00     0.163 HD
BRANCH  10  13
ATOM     13  CA  GLN d   1      -6.926  -1.156  -9.544  0.00  0.00     0.090 C 
ATOM     14  H48 GLN d   1      -6.947  -1.131 -10.643  0.00  0.00     0.087 H 
BRANCH  13  15
ATOM     15  N   GLN d   1      -5.647  -0.608  -9.090  0.00  0.00    -0.346 N 
ATOM     16  C   M3L d   1      -4.662  -0.342  -9.947  0.00  0.00     0.241 C 
ATOM     17  O   M3L d   1      -4.758  -0.534 -11.158  0.00  0.00    -0.271 OA
ATOM     18  H47 GLN d   1      -5.509  -0.429  -8.116  0.00  0.00     0.163 HD
BRANCH  16  19
ATOM     19  CA  M3L d   1      -3.365   0.194  -9.341  0.00  0.00     0.089 C 
ATOM     20  H29 M3L d   1      -3.582   0.636  -8.357  0.00  0.00     0.087 H 
BRANCH  19  21
ATOM     21  N   M3L d   1      -2.421  -0.903  -9.188  0.00  0.00    -0.346 N 
ATOM     22  C   THR d   1      -2.051  -1.340  -7.993  0.00  0.00     0.243 C 
ATOM     23  O   THR d   1      -2.471  -0.859  -6.941  0.00  0.00    -0.271 OA
ATOM     24  H28 M3L d   1      -2.042  -1.338 -10.005  0.00  0.00     0.163 HD
BRANCH  22  25
ATOM     25  CA  THR d   1      -1.048  -2.481  -7.983  0.00  0.00     0.113 C 
ATOM     26  H22 THR d   1      -0.645  -2.613  -8.998  0.00  0.00     0.091 H 
BRANCH  25  27
ATOM     27  N   THR d   1       0.046  -2.152  -7.087  0.00  0.00    -0.344 N 
ATOM     28  C   ARG d   1       0.812  -1.097  -7.342  0.00  0.00     0.241 C 
ATOM     29  O   ARG d   1       0.636  -0.372  -8.322  0.00  0.00    -0.271 OA
ATOM     30  H21 THR d   1       0.222  -2.717  -6.281  0.00  0.00     0.163 HD
BRANCH  28  31
ATOM     31  CA  ARG d   1       1.936  -0.808  -6.362  0.00  0.00     0.089 C 
ATOM     32  H9  ARG d   1       1.506  -0.583  -5.375  0.00  0.00     0.087 H 
BRANCH  31  33
ATOM     33  N   ARG d   1       2.812  -1.965  -6.240  0.00  0.00    -0.346 N 
ATOM     34  C   ALA d   1       2.546  -2.939  -5.377  0.00  0.00     0.248 C 
ATOM     35  O   ALA d   1       1.563  -2.933  -4.635  0.00  0.00    -0.271 OA
ATOM     36  H8  ARG d   1       3.627  -2.027  -6.816  0.00  0.00     0.163 HD
BRANCH  34  37
ATOM     37  CA  ALA d   1       3.530  -4.099  -5.364  0.00  0.00     0.172 C 
ATOM     38  H4  ALA d   1       4.551  -3.712  -5.227  0.00  0.00     0.098 H 
BRANCH  37  39
ATOM     39  N   ALA d   1       3.194  -5.023  -4.242  0.00  0.00    -0.067 N 
ATOM     40  H1  ALA d   1       3.846  -5.792  -4.233  0.00  0.00     0.275 HD
ATOM     41  H2  ALA d   1       2.259  -5.377  -4.367  0.00  0.00     0.275 HD
ATOM     42  H3  ALA d   1       3.251  -4.524  -3.368  0.00  0.00     0.275 HD
ENDBRANCH  37  39
BRANCH  37  43
ATOM     43  CB  ALA d   1       3.446  -4.858  -6.693  0.00  0.00    -0.042 C 
ATOM     44  H5  ALA d   1       3.694  -4.177  -7.521  0.00  0.00     0.030 H 
ATOM     45  H6  ALA d   1       2.426  -5.246  -6.830  0.00  0.00     0.030 H 
ATOM     46  H7  ALA d   1       4.158  -5.696  -6.682  0.00  0.00     0.030 H 
ENDBRANCH  37  43
ENDBRANCH  34  37
ENDBRANCH  31  33
BRANCH  31  47
ATOM     47  CB  ARG d   1       2.722   0.408  -6.856  0.00  0.00    -0.036 C 
ATOM     48  H10 ARG d   1       2.018   1.196  -7.163  0.00  0.00     0.036 H 
ATOM     49  H11 ARG d   1       3.343   0.115  -7.716  0.00  0.00     0.036 H 
BRANCH  47  50
ATOM     50  CG  ARG d   1       3.620   0.939  -5.742  0.00  0.00    -0.048 C 
ATOM     51  H12 ARG d   1       4.400   0.198  -5.512  0.00  0.00     0.035 H 
ATOM     52  H13 ARG d   1       3.017   1.129  -4.842  0.00  0.00     0.035 H 
BRANCH  50  53
ATOM     53  CD  ARG d   1       4.273   2.243  -6.207  0.00  0.00     0.009 C 
ATOM     54  H14 ARG d   1       4.785   2.716  -5.356  0.00  0.00     0.064 H 
ATOM     55  H15 ARG d   1       3.496   2.921  -6.590  0.00  0.00     0.064 H 
BRANCH  53  56
ATOM     56  NE  ARG d   1       5.242   1.977  -7.263  0.00  0.00    -0.227 N 
ATOM     57  CZ  ARG d   1       6.512   1.706  -6.976  0.00  0.00     0.665 C 
ATOM     58  NH1 ARG d   1       6.902   1.645  -5.731  0.00  0.00    -0.235 N 
ATOM     59  NH2 ARG d   1       7.368   1.498  -7.937  0.00  0.00    -0.235 N 
ATOM     60  H17 ARG d   1       7.886   1.435  -5.509  0.00  0.00     0.174 HD
ATOM     61  H18 ARG d   1       6.226   1.807  -4.971  0.00  0.00     0.174 HD
ATOM     62  H19 ARG d   1       7.061   1.546  -8.919  0.00  0.00     0.174 HD
ATOM     63  H20 ARG d   1       8.351   1.286  -7.714  0.00  0.00     0.174 HD
ATOM     64  H16 ARG d   1       4.938   1.999  -8.247  0.00  0.00     0.177 HD
ENDBRANCH  53  56
ENDBRANCH  50  53
ENDBRANCH  47  50
ENDBRANCH  31  47
ENDBRANCH  28  31
ENDBRANCH  25  27
BRANCH  25  65
ATOM     65  CB  THR d   1      -1.742  -3.778  -7.559  0.00  0.00     0.060 C 
ATOM     66  H23 THR d   1      -2.282  -3.614  -6.615  0.00  0.00     0.086 H 
BRANCH  65  67
ATOM     67  OG1 THR d   1      -0.766  -4.795  -7.377  0.00  0.00    -0.393 OA
ATOM     68  H24 THR d   1      -1.195  -5.601  -7.114  0.00  0.00     0.210 HD
ENDBRANCH  65  67
BRANCH  65  69
ATOM     69  CG2 THR d   1      -2.735  -4.211  -8.649  0.00  0.00    -0.050 C 
ATOM     70  H25 THR d   1      -3.232  -5.143  -8.342  0.00  0.00     0.031 H 
ATOM     71  H26 THR d   1      -2.194  -4.377  -9.592  0.00  0.00     0.031 H 
ATOM     72  H27 THR d   1      -3.489  -3.423  -8.792  0.00  0.00     0.031 H 
ENDBRANCH  65  69
ENDBRANCH  25  65
ENDBRANCH  22  25
ENDBRANCH  19  21
BRANCH  19  73
ATOM     73  CB  M3L d   1      -2.732   1.260 -10.247  0.00  0.00    -0.038 C 
ATOM     74  H30 M3L d   1      -3.229   1.240 -11.228  0.00  0.00     0.036 H 
ATOM     75  H31 M3L d   1      -1.662   1.037 -10.373  0.00  0.00     0.036 H 
BRANCH  73  76
ATOM     76  CG  M3L d   1      -2.884   2.652  -9.638  0.00  0.00    -0.061 C 
ATOM     77  H32 M3L d   1      -2.200   2.755  -8.782  0.00  0.00     0.033 H 
ATOM     78  H33 M3L d   1      -3.921   2.793  -9.298  0.00  0.00     0.033 H 
BRANCH  76  79
ATOM     79  CD  M3L d   1      -2.543   3.713 -10.697  0.00  0.00    -0.042 C 
ATOM     80  H34 M3L d   1      -1.770   3.320 -11.373  0.00  0.00     0.035 H 
ATOM     81  H35 M3L d   1      -2.168   4.620 -10.200  0.00  0.00     0.035 H 
BRANCH  79  82
ATOM     82  CE  M3L d   1      -3.803   4.057 -11.506  0.00  0.00     0.084 C 
ATOM     83  H36 M3L d   1      -4.456   4.696 -10.894  0.00  0.00     0.076 H 
ATOM     84  H37 M3L d   1      -4.332   3.125 -11.756  0.00  0.00     0.076 H 
BRANCH  82  85
ATOM     85  NZ  M3L d   1      -3.464   4.785 -12.784  0.00  0.00    -0.079 N 
BRANCH  85  86
ATOM     86  CM1 M3L d   1      -3.048   3.818 -13.838  0.00  0.00     0.067 C 
ATOM     87  H38 M3L d   1      -2.805   4.364 -14.761  0.00  0.00     0.068 H 
ATOM     88  H39 M3L d   1      -3.870   3.114 -14.034  0.00  0.00     0.068 H 
ATOM     89  H40 M3L d   1      -2.162   3.262 -13.497  0.00  0.00     0.068 H 
ENDBRANCH  85  86
BRANCH  85  90
ATOM     90  CM2 M3L d   1      -2.409   5.807 -12.557  0.00  0.00     0.067 C 
ATOM     91  H41 M3L d   1      -2.739   6.508 -11.776  0.00  0.00     0.068 H 
ATOM     92  H42 M3L d   1      -2.226   6.359 -13.491  0.00  0.00     0.068 H 
ATOM     93  H43 M3L d   1      -1.481   5.311 -12.236  0.00  0.00     0.068 H 
ENDBRANCH  85  90
BRANCH  85  94
ATOM     94  CM3 M3L d   1      -4.668   5.473 -13.268  0.00  0.00     0.067 C 
ATOM     95  H44 M3L d   1      -5.466   4.736 -13.444  0.00  0.00     0.068 H 
ATOM     96  H45 M3L d   1      -4.439   5.996 -14.208  0.00  0.00     0.068 H 
ATOM     97  H46 M3L d   1      -5.002   6.202 -12.515  0.00  0.00     0.068 H 
ENDBRANCH  85  94
ENDBRANCH  82  85
ENDBRANCH  79  82
ENDBRANCH  76  79
ENDBRANCH  73  76
ENDBRANCH  19  73
ENDBRANCH  16  19
ENDBRANCH  13  15
BRANCH  13  98
ATOM     98  CB  GLN d   1      -7.062  -2.609  -9.077  0.00  0.00    -0.030 C 
ATOM     99  H49 GLN d   1      -6.215  -3.196  -9.462  0.00  0.00     0.037 H 
ATOM    100  H50 GLN d   1      -8.003  -3.028  -9.462  0.00  0.00     0.037 H 
BRANCH  98 101
ATOM    101  CG  GLN d   1      -7.068  -2.673  -7.537  0.00  0.00     0.011 C 
ATOM    102  H51 GLN d   1      -7.912  -3.294  -7.204  0.00  0.00     0.047 H 
ATOM    103  H52 GLN d   1      -7.178  -1.656  -7.133  0.00  0.00     0.047 H 
BRANCH 101 104
ATOM    104  CD  GLN d   1      -5.765  -3.279  -7.024  0.00  0.00     0.215 C 
ATOM    105  OE1 GLN d   1      -5.643  -4.500  -6.927  0.00  0.00    -0.274 OA
ATOM    106  NE2 GLN d   1      -4.779  -2.492  -6.690  0.00  0.00    -0.370 N 
ATOM    107  H53 GLN d   1      -3.921  -2.880  -6.353  0.00  0.00     0.159 HD
ATOM    108  H54 GLN d   1      -4.881  -1.500  -6.771  0.00  0.00     0.159 HD
ENDBRANCH 101 104
ENDBRANCH  98 101
ENDBRANCH  13  98
ENDBRANCH  10  13
ENDBRANCH   7   9
BRANCH   7 109
ATOM    109  CB  THR d   1     -11.108   0.720 -10.167  0.00  0.00     0.060 C 
ATOM    110  H57 THR d   1     -10.300   1.267 -10.675  0.00  0.00     0.086 H 
BRANCH 109 111
ATOM    111  OG1 THR d   1     -12.076   1.646  -9.691  0.00  0.00    -0.393 OA
ATOM    112  H58 THR d   1     -12.437   2.130 -10.424  0.00  0.00     0.210 HD
ENDBRANCH 109 111
BRANCH 109 113
ATOM    113  CG2 THR d   1     -11.763  -0.247 -11.156  0.00  0.00    -0.050 C 
ATOM    114  H59 THR d   1     -12.179   0.320 -12.002  0.00  0.00     0.031 H 
ATOM    115  H60 THR d   1     -12.570  -0.797 -10.651  0.00  0.00     0.031 H 
ATOM    116  H61 THR d   1     -11.010  -0.958 -11.527  0.00  0.00     0.031 H 
ENDBRANCH 109 113
ENDBRANCH   7 109
ENDBRANCH   4   7
ENDBRANCH   1   3
BRANCH   1 117
ATOM    117  C   ALA d   1     -14.832  -0.635  -6.897  0.00  0.00     0.240 C 
ATOM    118  O   ALA d   1     -15.550  -0.847  -5.919  0.00  0.00    -0.271 OA
ATOM    119  N   ARG d   1     -15.109   0.285  -7.814  0.00  0.00    -0.346 N 
ATOM    120  H67 ARG d   1     -14.486   0.408  -8.586  0.00  0.00     0.163 HD
BRANCH 119 121
ATOM    121  CA  ARG d   1     -16.303   1.121  -7.720  0.00  0.00     0.089 C 
ATOM    122  H68 ARG d   1     -16.226   1.747  -6.819  0.00  0.00     0.087 H 
BRANCH 121 123
ATOM    123  C   ARG d   1     -17.563   0.266  -7.618  0.00  0.00     0.241 C 
ATOM    124  O   ARG d   1     -18.520   0.636  -6.939  0.00  0.00    -0.271 OA
ATOM    125  N   LYS d   1     -17.561  -0.871  -8.307  0.00  0.00    -0.346 N 
ATOM    126  H80 LYS d   1     -16.753  -1.121  -8.841  0.00  0.00     0.163 HD
BRANCH 125 127
ATOM    127  CA  LYS d   1     -18.718  -1.759  -8.296  0.00  0.00     0.089 C 
ATOM    128  H81 LYS d   1     -19.573  -1.228  -8.740  0.00  0.00     0.087 H 
BRANCH 127 129
ATOM    129  C   LYS d   1     -19.083  -2.167  -6.871  0.00  0.00     0.241 C 
ATOM    130  O   LYS d   1     -20.260  -2.306  -6.541  0.00  0.00    -0.271 OA
ATOM    131  N   SER d   1     -18.072  -2.360  -6.029  0.00  0.00    -0.344 N 
ATOM    132  H93 SER d   1     -17.133  -2.233  -6.348  0.00  0.00     0.163 HD
BRANCH 131 133
ATOM    133  CA  SER d   1     -18.315  -2.754  -4.645  0.00  0.00     0.109 C 
ATOM    134  H94 SER d   1     -19.156  -3.462  -4.622  0.00  0.00     0.090 H 
BRANCH 133 135
ATOM    135  C   SER d   1     -18.670  -1.539  -3.792  0.00  0.00     0.243 C 
ATOM    136  O   SER d   1     -18.206  -0.429  -4.050  0.00  0.00    -0.271 OA
ATOM    137  N   THR d   1     -19.492  -1.763  -2.769  0.00  0.00    -0.344 N 
ATOM    138  H98 THR d   1     -19.836  -2.688  -2.610  0.00  0.00     0.163 HD
BRANCH 137 139
ATOM    139  CA  THR d   1     -19.900  -0.683  -1.876  0.00  0.00     0.113 C 
ATOM    140  H99 THR d   1     -19.772   0.277  -2.397  0.00  0.00     0.091 H 
BRANCH 139 141
ATOM    141  C   THR d   1     -19.042  -0.680  -0.616  0.00  0.00     0.243 C 
ATOM    142  O   THR d   1     -18.219   0.213  -0.413  0.00  0.00    -0.271 OA
ATOM    143  N   GLY d   1     -19.242  -1.688   0.227  0.00  0.00    -0.350 N 
ATOM    144 5H10 GLY d   1     -19.926  -2.383   0.006  0.00  0.00     0.163 HD
BRANCH 143 145
ATOM    145  CA  GLY d   1     -18.484  -1.802   1.468  0.00  0.00     0.069 C 
ATOM    146 6H10 GLY d   1     -18.449  -0.819   1.961  0.00  0.00     0.078 H 
ATOM    147 7H10 GLY d   1     -17.461  -2.133   1.237  0.00  0.00     0.078 H 
BRANCH 145 148
ATOM    148  C   GLY d   1     -19.135  -2.810   2.409  0.00  0.00     0.235 C 
ATOM    149  O   GLY d   1     -20.122  -2.504   3.076  0.00  0.00    -0.272 OA
ATOM    150  N   GLY d   1     -18.577  -4.016   2.455  0.00  0.00    -0.351 N 
ATOM    151 8H10 GLY d   1     -17.775  -4.208   1.889  0.00  0.00     0.163 HD
BRANCH 150 152
ATOM    152  CA  GLY d   1     -19.115  -5.064   3.317  0.00  0.00     0.069 C 
ATOM    153 9H10 GLY d   1     -18.759  -6.042   2.960  0.00  0.00     0.078 H 
ATOM    154 0H11 GLY d   1     -20.214  -5.036   3.274  0.00  0.00     0.078 H 
BRANCH 152 155
ATOM    155  C   GLY d   1     -18.667  -4.867   4.761  0.00  0.00     0.236 C 
ATOM    156  O   GLY d   1     -17.490  -4.624   5.028  0.00  0.00    -0.272 OA
ATOM    157  N   LYS d   1     -19.612  -4.979   5.690  0.00  0.00    -0.346 N 
ATOM    158 1H11 LYS d   1     -20.552  -5.180   5.413  0.00  0.00     0.163 HD
BRANCH 157 159
ATOM    159  CA  LYS d   1     -19.302  -4.814   7.105  0.00  0.00     0.089 C 
ATOM    160 2H11 LYS d   1     -18.891  -3.806   7.263  0.00  0.00     0.087 H 
BRANCH 159 161
ATOM    161  C   LYS d   1     -18.268  -5.845   7.551  0.00  0.00     0.241 C 
ATOM    162  O   LYS d   1     -17.412  -5.560   8.386  0.00  0.00    -0.271 OA
ATOM    163  N   ALA d   1     -18.358  -7.046   6.985  0.00  0.00    -0.345 N 
ATOM    164 4H12 ALA d   1     -19.076  -7.217   6.311  0.00  0.00     0.163 HD
BRANCH 163 165
ATOM    165  CA  ALA d   1     -17.429  -8.121   7.328  0.00  0.00     0.093 C 
ATOM    166 5H12 ALA d   1     -16.890  -7.846   8.246  0.00  0.00     0.089 H 
BRANCH 165 167
ATOM    167  C   ALA d   1     -16.420  -8.332   6.205  0.00  0.00     0.196 C 
ATOM    168  O   ALA d   1     -15.922  -9.439   6.083  0.00  0.00    -0.646 OA
ATOM    169  OXT ALA d   1     -16.160  -7.384   5.483  0.00  0.00    -0.646 OA
ENDBRANCH 165 167
BRANCH 165 170
ATOM    170  CB  ALA d   1     -18.200  -9.419   7.571  0.00  0.00    -0.048 C 
ATOM    171 6H12 ALA d   1     -17.494 -10.222   7.828  0.00  0.00     0.030 H 
ATOM    172 7H12 ALA d   1     -18.752  -9.694   6.660  0.00  0.00     0.030 H 
ATOM    173 8H12 ALA d   1     -18.909  -9.275   8.399  0.00  0.00     0.030 H 
ENDBRANCH 165 170
ENDBRANCH 163 165
ENDBRANCH 159 161
BRANCH 159 174
ATOM    174  CB  LYS d   1     -20.572  -4.970   7.942  0.00  0.00    -0.038 C 
ATOM    175 3H11 LYS d   1     -20.316  -4.920   9.011  0.00  0.00     0.036 H 
ATOM    176 4H11 LYS d   1     -21.040  -5.941   7.722  0.00  0.00     0.036 H 
BRANCH 174 177
ATOM    177  CG  LYS d   1     -21.550  -3.843   7.599  0.00  0.00    -0.061 C 
ATOM    178 5H11 LYS d   1     -21.797  -3.886   6.528  0.00  0.00     0.033 H 
ATOM    179 6H11 LYS d   1     -21.086  -2.873   7.830  0.00  0.00     0.033 H 
BRANCH 177 180
ATOM    180  CD  LYS d   1     -22.831  -4.004   8.424  0.00  0.00    -0.043 C 
ATOM    181 7H11 LYS d   1     -23.222  -5.024   8.294  0.00  0.00     0.035 H 
ATOM    182 8H11 LYS d   1     -23.581  -3.277   8.079  0.00  0.00     0.035 H 
BRANCH 180 183
ATOM    183  CE  LYS d   1     -22.533  -3.760   9.908  0.00  0.00     0.080 C 
ATOM    184 9H11 LYS d   1     -21.765  -2.979  10.005  0.00  0.00     0.075 H 
ATOM    185 0H12 LYS d   1     -22.170  -4.691  10.368  0.00  0.00     0.075 H 
BRANCH 183 186
ATOM    186  NZ  LYS d   1     -23.781  -3.319  10.594  0.00  0.00    -0.079 N 
ATOM    187 1H12 LYS d   1     -23.589  -3.158  11.570  0.00  0.00     0.274 HD
ATOM    188 2H12 LYS d   1     -24.485  -4.035  10.504  0.00  0.00     0.274 HD
ATOM    189 3H12 LYS d   1     -24.113  -2.466  10.172  0.00  0.00     0.274 HD
ENDBRANCH 183 186
ENDBRANCH 180 183
ENDBRANCH 177 180
ENDBRANCH 174 177
ENDBRANCH 159 174
ENDBRANCH 157 159
ENDBRANCH 152 155
ENDBRANCH 150 152
ENDBRANCH 145 148
ENDBRANCH 143 145
ENDBRANCH 139 141
BRANCH 139 190
ATOM    190  CB  THR d   1     -21.373  -0.852  -1.493  0.00  0.00     0.060 C 
ATOM    191 0H10 THR d   1     -21.518  -1.835  -1.021  0.00  0.00     0.086 H 
BRANCH 190 192
ATOM    192  OG1 THR d   1     -22.178  -0.765  -2.661  0.00  0.00    -0.393 OA
ATOM    193 1H10 THR d   1     -23.092  -0.870  -2.423  0.00  0.00     0.210 HD
ENDBRANCH 190 192
BRANCH 190 194
ATOM    194  CG2 THR d   1     -21.776   0.248  -0.510  0.00  0.00    -0.050 C 
ATOM    195 2H10 THR d   1     -22.834   0.125  -0.236  0.00  0.00     0.031 H 
ATOM    196 3H10 THR d   1     -21.631   1.232  -0.981  0.00  0.00     0.031 H 
ATOM    197 4H10 THR d   1     -21.153   0.178   0.394  0.00  0.00     0.031 H 
ENDBRANCH 190 194
ENDBRANCH 139 190
ENDBRANCH 137 139
ENDBRANCH 133 135
BRANCH 133 198
ATOM    198  CB  SER d   1     -17.075  -3.436  -4.069  0.00  0.00     0.044 C 
ATOM    199  H95 SER d   1     -16.688  -4.168  -4.793  0.00  0.00     0.077 H 
ATOM    200  H96 SER d   1     -17.339  -3.950  -3.133  0.00  0.00     0.077 H 
BRANCH 198 201
ATOM    201  OG  SER d   1     -16.080  -2.455  -3.807  0.00  0.00    -0.398 OA
ATOM    202  H97 SER d   1     -15.853  -2.011  -4.616  0.00  0.00     0.209 HD
ENDBRANCH 198 201
ENDBRANCH 133 198
ENDBRANCH 131 133
ENDBRANCH 127 129
BRANCH 127 203
ATOM    203  CB  LYS d   1     -18.424  -3.011  -9.130  0.00  0.00    -0.038 C 
ATOM    204  H82 LYS d   1     -18.058  -2.711 -10.123  0.00  0.00     0.036 H 
ATOM    205  H83 LYS d   1     -19.346  -3.600  -9.242  0.00  0.00     0.036 H 
BRANCH 203 206
ATOM    206  CG  LYS d   1     -17.359  -3.861  -8.431  0.00  0.00    -0.061 C 
ATOM    207  H84 LYS d   1     -17.762  -4.248  -7.484  0.00  0.00     0.033 H 
ATOM    208  H85 LYS d   1     -16.473  -3.243  -8.226  0.00  0.00     0.033 H 
BRANCH 206 209
ATOM    209  CD  LYS d   1     -16.967  -5.031  -9.335  0.00  0.00    -0.043 C 
ATOM    210  H86 LYS d   1     -16.346  -4.661 -10.164  0.00  0.00     0.035 H 
ATOM    211  H87 LYS d   1     -17.875  -5.502  -9.739  0.00  0.00     0.035 H 
BRANCH 209 212
ATOM    212  CE  LYS d   1     -16.177  -6.060  -8.527  0.00  0.00     0.080 C 
ATOM    213  H88 LYS d   1     -15.729  -6.797  -9.210  0.00  0.00     0.075 H 
ATOM    214  H89 LYS d   1     -16.852  -6.572  -7.826  0.00  0.00     0.075 H 
BRANCH 212 215
ATOM    215  NZ  LYS d   1     -15.098  -5.371  -7.763  0.00  0.00    -0.079 N 
ATOM    216  H90 LYS d   1     -14.577  -6.050  -7.230  0.00  0.00     0.274 HD
ATOM    217  H91 LYS d   1     -15.508  -4.696  -7.137  0.00  0.00     0.274 HD
ATOM    218  H92 LYS d   1     -14.479  -4.901  -8.405  0.00  0.00     0.274 HD
ENDBRANCH 212 215
ENDBRANCH 209 212
ENDBRANCH 206 209
ENDBRANCH 203 206
ENDBRANCH 127 203
ENDBRANCH 125 127
ENDBRANCH 121 123
BRANCH 121 219
ATOM    219  CB  ARG d   1     -16.400   2.026  -8.949  0.00  0.00    -0.036 C 
ATOM    220  H69 ARG d   1     -16.570   1.410  -9.845  0.00  0.00     0.036 H 
ATOM    221  H70 ARG d   1     -15.462   2.590  -9.064  0.00  0.00     0.036 H 
BRANCH 219 222
ATOM    222  CG  ARG d   1     -17.564   3.004  -8.775  0.00  0.00    -0.048 C 
ATOM    223  H71 ARG d   1     -17.404   3.606  -7.868  0.00  0.00     0.035 H 
ATOM    224  H72 ARG d   1     -18.504   2.441  -8.680  0.00  0.00     0.035 H 
BRANCH 222 225
ATOM    225  CD  ARG d   1     -17.646   3.929  -9.991  0.00  0.00     0.009 C 
ATOM    226  H73 ARG d   1     -16.647   4.338 -10.204  0.00  0.00     0.064 H 
ATOM    227  H74 ARG d   1     -18.341   4.753  -9.774  0.00  0.00     0.064 H 
BRANCH 225 228
ATOM    228  NE  ARG d   1     -18.123   3.191 -11.157  0.00  0.00    -0.227 N 
ATOM    229  CZ  ARG d   1     -17.279   2.618 -12.010  0.00  0.00     0.665 C 
ATOM    230  NH1 ARG d   1     -15.991   2.697 -11.813  0.00  0.00    -0.235 N 
ATOM    231  NH2 ARG d   1     -17.739   1.969 -13.045  0.00  0.00    -0.235 N 
ATOM    232  H76 ARG d   1     -15.340   2.252 -12.476  0.00  0.00     0.174 HD
ATOM    233  H77 ARG d   1     -15.625   3.204 -10.995  0.00  0.00     0.174 HD
ATOM    234  H78 ARG d   1     -18.755   1.905 -13.203  0.00  0.00     0.174 HD
ATOM    235  H79 ARG d   1     -17.086   1.521 -13.704  0.00  0.00     0.174 HD
ATOM    236  H75 ARG d   1     -19.137   3.112 -11.323  0.00  0.00     0.177 HD
ENDBRANCH 225 228
ENDBRANCH 222 225
ENDBRANCH 219 222
ENDBRANCH 121 219
ENDBRANCH 119 121
ENDBRANCH   1 117
BRANCH   1 237
ATOM    237  CB  ALA d   1     -13.085  -2.034  -5.790  0.00  0.00    -0.049 C 
ATOM    238  H64 ALA d   1     -13.878  -2.678  -5.382  0.00  0.00     0.030 H 
ATOM    239  H65 ALA d   1     -12.867  -1.225  -5.077  0.00  0.00     0.030 H 
ATOM    240  H66 ALA d   1     -12.177  -2.632  -5.956  0.00  0.00     0.030 H 
ENDBRANCH   1 237
TORSDOF 73
