REMARK  10 active torsions:
REMARK  status: ('A' for Active; 'I' for Inactive)
REMARK    1  A    between atoms: C5_9  and  C4_8 
REMARK    2  A    between atoms: C8_12  and  C7_11 
REMARK    3  A    between atoms: O2_14  and  C8_12 
REMARK    4  A    between atoms: C9_13  and  O2_14 
REMARK    5  A    between atoms: C16_21  and  C12_17 
REMARK    6  A    between atoms: C16_21  and  C17_22 
REMARK    7  A    between atoms: C23_26  and  C24_27 
REMARK    8  A    between atoms: C23_26  and  C25_31 
REMARK    9  A    between atoms: C23_26  and  N3_32 
REMARK       I    between atoms: C24_27  and  N2_28 
REMARK   10  A    between atoms: N2_28  and  O1_29 
ROOT
ATOM      1  C9  541 d   1       8.276   8.372  28.381  0.00  0.00     0.069 A 
ATOM      2  C10 541 d   1       6.950   8.763  28.049  0.00  0.00    -0.050 A 
ATOM      3  C11 541 d   1       6.363   8.348  26.821  0.00  0.00    -0.073 A 
ATOM      4  C12 541 d   1       7.100   7.541  25.900  0.00  0.00    -0.040 A 
ATOM      5  C13 541 d   1       8.429   7.144  26.229  0.00  0.00    -0.073 A 
ATOM      6  C14 541 d   1       9.015   7.561  27.456  0.00  0.00    -0.050 A 
ATOM      7  H11 541 d   1       6.383   9.381  28.735  0.00  0.00     0.087 H 
ATOM      8  H12 541 d   1       5.349   8.646  26.582  0.00  0.00     0.084 H 
ATOM      9  H13 541 d   1       8.994   6.523  25.543  0.00  0.00     0.084 H 
ATOM     10  H14 541 d   1      10.030   7.263  27.695  0.00  0.00     0.087 H 
ENDROOT
BRANCH   4  11
ATOM     11  C16 541 d   1       6.472   7.126  24.582  0.00  0.00     0.066 C 
ATOM     12  C15 541 d   1       7.485   7.244  23.402  0.00  0.00    -0.031 C 
ATOM     13  C19 541 d   1       7.048   8.476  22.584  0.00  0.00    -0.000 C 
ATOM     14  H15 541 d   1       7.450   6.339  22.777  0.00  0.00     0.037 H 
ATOM     15  H16 541 d   1       8.505   7.384  23.788  0.00  0.00     0.037 H 
ATOM     16  N3  541 d   1       5.871   8.946  23.291  0.00  0.00    -0.338 N 
ATOM     17  H20 541 d   1       6.800   8.195  21.550  0.00  0.00     0.064 H 
ATOM     18  H21 541 d   1       7.836   9.244  22.576  0.00  0.00     0.064 H 
ATOM     19  C18 541 d   1       5.372   8.115  24.216  0.00  0.00     0.233 C 
ATOM     20  O3  541 d   1       4.237   8.120  24.669  0.00  0.00    -0.272 OA
BRANCH  16  21
ATOM     21  C23 541 d   1       5.368  10.291  23.105  0.00  0.00     0.090 C 
ATOM     22  H22 541 d   1       4.406  10.394  23.629  0.00  0.00     0.087 H 
BRANCH  21  23
ATOM     23  C24 541 d   1       6.354  11.277  23.695  0.00  0.00     0.263 C 
ATOM     24  N2  541 d   1       5.789  12.220  24.448  0.00  0.00    -0.236 N 
ATOM     25  H23 541 d   1       4.798  12.240  24.580  0.00  0.00     0.197 HD
ATOM     26  O4  541 d   1       7.560  11.172  23.483  0.00  0.00    -0.269 OA
BRANCH  24  27
ATOM     27  O1  541 d   1       6.598  13.171  25.044  0.00  0.00    -0.287 OA
ATOM     28  H24 541 d   1       6.061  13.773  25.546  0.00  0.00     0.244 HD
ENDBRANCH  24  27
ENDBRANCH  21  23
BRANCH  21  29
ATOM     29  C25 541 d   1       5.147  10.548  21.617  0.00  0.00    -0.049 C 
ATOM     30  H25 541 d   1       4.765  11.569  21.474  0.00  0.00     0.030 H 
ATOM     31  H26 541 d   1       4.417   9.825  21.224  0.00  0.00     0.030 H 
ATOM     32  H27 541 d   1       6.100  10.435  21.080  0.00  0.00     0.030 H 
ENDBRANCH  21  29
ENDBRANCH  16  21
BRANCH  11  33
ATOM     33  C17 541 d   1       5.821   5.764  24.702  0.00  0.00    -0.057 C 
ATOM     34  H17 541 d   1       5.125   5.764  25.553  0.00  0.00     0.029 H 
ATOM     35  H18 541 d   1       6.596   5.000  24.862  0.00  0.00     0.029 H 
ATOM     36  H19 541 d   1       5.269   5.538  23.777  0.00  0.00     0.029 H 
ENDBRANCH  11  33
ENDBRANCH   4  11
BRANCH   1  37
ATOM     37  O2  541 d   1       8.812   8.794  29.618  0.00  0.00    -0.347 OA
BRANCH  37  38
ATOM     38  C8  541 d   1      10.096   8.230  29.975  0.00  0.00     0.051 C 
ATOM     39  H9  541 d   1      10.682   8.081  29.056  0.00  0.00     0.082 H 
ATOM     40  H10 541 d   1      10.620   8.939  30.633  0.00  0.00     0.082 H 
BRANCH  38  41
ATOM     41  C7  541 d   1       9.975   6.873  30.708  0.00  0.00    -0.020 A 
ATOM     42  C21 541 d   1      11.142   6.078  30.941  0.00  0.00     0.001 A 
ATOM     43  C3  541 d   1      12.434   6.518  30.522  0.00  0.00    -0.070 A 
ATOM     44  C22 541 d   1      11.023   4.794  31.633  0.00  0.00     0.068 A 
ATOM     45  C2  541 d   1      13.585   5.712  30.766  0.00  0.00    -0.082 A 
ATOM     46  H4  541 d   1      12.541   7.470  30.015  0.00  0.00     0.084 H 
ATOM     47  C1  541 d   1      13.457   4.461  31.435  0.00  0.00    -0.081 A 
ATOM     48  H3  541 d   1      14.561   6.053  30.441  0.00  0.00     0.083 H 
ATOM     49  C20 541 d   1      12.182   3.998  31.867  0.00  0.00    -0.054 A 
ATOM     50  H2  541 d   1      14.338   3.856  31.617  0.00  0.00     0.083 H 
ATOM     51  H1  541 d   1      12.093   3.043  32.372  0.00  0.00     0.087 H 
ATOM     52  N1  541 d   1       9.754   4.372  32.037  0.00  0.00    -0.253 NA
ATOM     53  C5  541 d   1       8.627   5.120  31.821  0.00  0.00     0.032 A 
ATOM     54  C6  541 d   1       8.706   6.374  31.154  0.00  0.00    -0.051 A 
ATOM     55  H8  541 d   1       7.806   6.953  30.983  0.00  0.00     0.087 H 
BRANCH  53  56
ATOM     56  C4  541 d   1       7.320   4.624  32.272  0.00  0.00    -0.035 C 
ATOM     57  H5  541 d   1       6.541   5.356  32.012  0.00  0.00     0.035 H 
ATOM     58  H6  541 d   1       7.339   4.480  33.362  0.00  0.00     0.035 H 
ATOM     59  H7  541 d   1       7.102   3.665  31.779  0.00  0.00     0.035 H 
ENDBRANCH  53  56
ENDBRANCH  38  41
ENDBRANCH  37  38
ENDBRANCH   1  37
TORSDOF 10
