REMARK  18 active torsions:
REMARK  status: ('A' for Active; 'I' for Inactive)
REMARK    1  A    between atoms: C1_1  and  C2_2 
REMARK    2  A    between atoms: C1_1  and  C6_6 
REMARK    3  A    between atoms: N3_13  and  C1_1 
REMARK    4  A    between atoms: C2_2  and  C3_3 
REMARK    5  A    between atoms: C2_2  and  C12_12 
REMARK    6  A    between atoms: C3_3  and  C4_4 
REMARK       I    between atoms: C5_5  and  N3_13 
REMARK    7  A    between atoms: C22_22  and  C5_5 
REMARK       I    between atoms: C6_6  and  N2_25 
REMARK    8  A    between atoms: C7_7  and  C8_8 
REMARK    9  A    between atoms: C7_7  and  C11_11 
REMARK   10  A    between atoms: N2_25  and  C7_7 
REMARK   11  A    between atoms: C8_8  and  C13_17 
REMARK   12  A    between atoms: C10_10  and  C9_9 
REMARK       I    between atoms: C9_9  and  N1_20 
REMARK   13  A    between atoms: C10_10  and  C22_22 
REMARK   14  A    between atoms: N1_20  and  O2_16 
REMARK   15  A    between atoms: C13_17  and  C20_18 
REMARK   16  A    between atoms: C13_17  and  C21_19 
REMARK   17  A    between atoms: C22_22  and  C23_23 
REMARK   18  A    between atoms: C23_23  and  C14_27 
ROOT
ATOM      1  C1  MOL d   1      46.822  28.736  39.606  0.00  0.00     0.092 C 
ATOM      2  H1  MOL d   1      45.842  29.177  39.370  0.00  0.00     0.088 H 
ENDROOT
BRANCH   1   3
ATOM      3  C2  MOL d   1      47.362  28.034  38.343  0.00  0.00    -0.030 C 
ATOM      4  H2  MOL d   1      48.322  27.553  38.582  0.00  0.00     0.043 H 
BRANCH   3   5
ATOM      5  C3  MOL d   1      47.592  29.054  37.227  0.00  0.00    -0.063 C 
ATOM      6  H3  MOL d   1      48.123  29.921  37.647  0.00  0.00     0.033 H 
ATOM      7  H4  MOL d   1      46.615  29.376  36.837  0.00  0.00     0.033 H 
BRANCH   5   8
ATOM      8  C4  MOL d   1      48.413  28.490  36.077  0.00  0.00    -0.076 C 
ATOM      9  H5  MOL d   1      48.546  29.264  35.307  0.00  0.00     0.027 H 
ATOM     10  H6  MOL d   1      47.889  27.626  35.642  0.00  0.00     0.027 H 
ATOM     11  H7  MOL d   1      49.397  28.172  36.451  0.00  0.00     0.027 H 
ENDBRANCH   5   8
ENDBRANCH   3   5
BRANCH   3  12
ATOM     12  C12 MOL d   1      46.362  26.955  37.909  0.00  0.00    -0.071 C 
ATOM     13  H13 MOL d   1      46.217  26.238  38.730  0.00  0.00     0.028 H 
ATOM     14  H14 MOL d   1      46.752  26.428  37.026  0.00  0.00     0.028 H 
ATOM     15  H15 MOL d   1      45.400  27.426  37.660  0.00  0.00     0.028 H 
ENDBRANCH   3  12
ENDBRANCH   1   3
BRANCH   1  16
ATOM     16  C6  MOL d   1      46.616  27.699  40.714  0.00  0.00     0.241 C 
ATOM     17  O6  MOL d   1      47.572  27.258  41.353  0.00  0.00    -0.271 OA
ATOM     18  N2  MOL d   1      45.328  27.357  40.908  0.00  0.00    -0.345 N 
ATOM     19  H29 MOL d   1      44.589  27.930  40.553  0.00  0.00     0.163 HD
BRANCH  18  20
ATOM     20  C7  MOL d   1      45.033  26.134  41.646  0.00  0.00     0.096 C 
ATOM     21  H8  MOL d   1      45.979  25.724  42.030  0.00  0.00     0.089 H 
BRANCH  20  22
ATOM     22  C8  MOL d   1      44.110  26.453  42.830  0.00  0.00    -0.034 C 
ATOM     23  H9  MOL d   1      43.630  25.518  43.155  0.00  0.00     0.037 H 
ATOM     24  H10 MOL d   1      43.341  27.161  42.487  0.00  0.00     0.037 H 
BRANCH  22  25
ATOM     25  C13 MOL d   1      44.829  27.070  44.037  0.00  0.00    -0.059 C 
ATOM     26  H18 MOL d   1      45.144  28.090  43.770  0.00  0.00     0.038 H 
BRANCH  25  27
ATOM     27  C20 MOL d   1      46.070  26.260  44.416  0.00  0.00    -0.073 C 
ATOM     28  H19 MOL d   1      46.562  26.727  45.282  0.00  0.00     0.028 H 
ATOM     29  H20 MOL d   1      46.768  26.238  43.566  0.00  0.00     0.028 H 
ATOM     30  H21 MOL d   1      45.773  25.232  44.673  0.00  0.00     0.028 H 
ENDBRANCH  25  27
BRANCH  25  31
ATOM     31  C21 MOL d   1      43.884  27.145  45.240  0.00  0.00    -0.073 C 
ATOM     32  H22 MOL d   1      42.991  27.727  44.969  0.00  0.00     0.028 H 
ATOM     33  H23 MOL d   1      44.399  27.633  46.081  0.00  0.00     0.028 H 
ATOM     34  H24 MOL d   1      43.584  26.129  45.534  0.00  0.00     0.028 H 
ENDBRANCH  25  31
ENDBRANCH  22  25
ENDBRANCH  20  22
BRANCH  20  35
ATOM     35  C11 MOL d   1      44.371  25.081  40.768  0.00  0.00     0.196 C 
ATOM     36  O1  MOL d   1      44.776  23.902  40.843  0.00  0.00    -0.646 OA
ATOM     37  O5  MOL d   1      43.450  25.442  40.002  0.00  0.00    -0.646 OA
ENDBRANCH  20  35
ENDBRANCH  18  20
ENDBRANCH   1  16
BRANCH   1  38
ATOM     38  N3  MOL d   1      47.721  29.826  39.993  0.00  0.00    -0.347 N 
ATOM     39  C5  MOL d   1      47.164  31.038  40.170  0.00  0.00     0.223 C 
ATOM     40  O4  MOL d   1      45.963  31.279  40.109  0.00  0.00    -0.273 OA
ATOM     41  H16 MOL d   1      48.702  29.677  40.120  0.00  0.00     0.163 HD
BRANCH  39  42
ATOM     42  C22 MOL d   1      48.164  32.160  40.439  0.00  0.00     0.035 C 
ATOM     43  H26 MOL d   1      49.150  31.720  40.650  0.00  0.00     0.055 H 
BRANCH  42  44
ATOM     44  C10 MOL d   1      48.267  33.014  39.174  0.00  0.00     0.023 C 
ATOM     45  H11 MOL d   1      48.584  32.371  38.340  0.00  0.00     0.048 H 
ATOM     46  H12 MOL d   1      47.276  33.438  38.954  0.00  0.00     0.048 H 
BRANCH  44  47
ATOM     47  C9  MOL d   1      49.255  34.145  39.314  0.00  0.00     0.241 C 
ATOM     48  N1  MOL d   1      48.758  35.374  39.517  0.00  0.00    -0.237 N 
ATOM     49  H25 MOL d   1      47.785  35.603  39.490  0.00  0.00     0.197 HD
ATOM     50  O3  MOL d   1      50.462  33.928  39.241  0.00  0.00    -0.271 OA
BRANCH  48  51
ATOM     51  O2  MOL d   1      49.764  36.278  39.767  0.00  0.00    -0.287 OA
ATOM     52  H17 MOL d   1      49.387  37.139  39.907  0.00  0.00     0.244 HD
ENDBRANCH  48  51
ENDBRANCH  44  47
ENDBRANCH  42  44
BRANCH  42  53
ATOM     53  C23 MOL d   1      47.734  32.989  41.662  0.00  0.00    -0.029 C 
ATOM     54  H27 MOL d   1      46.684  33.294  41.540  0.00  0.00     0.041 H 
ATOM     55  H28 MOL d   1      48.370  33.884  41.732  0.00  0.00     0.041 H 
BRANCH  53  56
ATOM     56  C14 MOL d   1      47.872  32.180  42.937  0.00  0.00    -0.057 A 
ATOM     57  C15 MOL d   1      49.078  32.236  43.691  0.00  0.00    -0.077 A 
ATOM     58  C16 MOL d   1      49.197  31.509  44.911  0.00  0.00    -0.082 A 
ATOM     59  H30 MOL d   1      49.909  32.834  43.336  0.00  0.00     0.084 H 
ATOM     60  C17 MOL d   1      48.108  30.717  45.376  0.00  0.00    -0.083 A 
ATOM     61  H31 MOL d   1      50.115  31.559  45.485  0.00  0.00     0.083 H 
ATOM     62  C18 MOL d   1      46.912  30.633  44.610  0.00  0.00    -0.082 A 
ATOM     63  H32 MOL d   1      48.191  30.178  46.313  0.00  0.00     0.083 H 
ATOM     64  C19 MOL d   1      46.792  31.365  43.390  0.00  0.00    -0.077 A 
ATOM     65  H33 MOL d   1      46.092  30.013  44.953  0.00  0.00     0.083 H 
ATOM     66  H34 MOL d   1      45.880  31.302  42.808  0.00  0.00     0.084 H 
ENDBRANCH  53  56
ENDBRANCH  42  53
ENDBRANCH  39  42
ENDBRANCH   1  38
TORSDOF 18
