REMARK  7 active torsions:
REMARK  status: ('A' for Active; 'I' for Inactive)
REMARK    1  A    between atoms: C13_9  and  C15_11 
REMARK    2  A    between atoms: C16_12  and  O29_21 
REMARK    3  A    between atoms: N19_15  and  C31_23 
REMARK    4  A    between atoms: C31_23  and  C32_24 
REMARK    5  A    between atoms: C32_24  and  C35_25 
REMARK    6  A    between atoms: C35_25  and  C38_26 
REMARK    7  A    between atoms: C35_25  and  C7_29 
ROOT
ATOM      1  C15 888 d   1       9.996  44.703  50.285  0.00  0.00     0.113 A 
ATOM      2  C16 888 d   1      10.860  45.433  51.077  0.00  0.00     0.097 A 
ATOM      3  C17 888 d   1      10.931  45.133  52.523  0.00  0.00     0.025 A 
ATOM      4  C18 888 d   1      10.103  44.099  53.096  0.00  0.00     0.050 A 
ATOM      5  N19 888 d   1       9.189  43.358  52.283  0.00  0.00    -0.313 N 
ATOM      6  C20 888 d   1       9.117  43.621  50.909  0.00  0.00     0.265 A 
ATOM      7  C21 888 d   1      11.840  45.867  53.340  0.00  0.00    -0.068 A 
ATOM      8  C22 888 d   1      11.954  45.601  54.713  0.00  0.00    -0.082 A 
ATOM      9  C23 888 d   1      11.162  44.595  55.288  0.00  0.00    -0.081 A 
ATOM     10  C24 888 d   1      10.247  43.859  54.498  0.00  0.00    -0.056 A 
ATOM     11  O30 888 d   1       8.373  43.006  50.148  0.00  0.00    -0.267 OA
ATOM     12  H6  888 d   1      12.452  46.642  52.894  0.00  0.00     0.085 H 
ATOM     13  H7  888 d   1      12.648  46.167  55.324  0.00  0.00     0.083 H 
ATOM     14  H8  888 d   1      11.252  44.380  56.347  0.00  0.00     0.083 H 
ATOM     15  H9  888 d   1       9.640  43.094  54.968  0.00  0.00     0.087 H 
ENDROOT
BRANCH   1  16
ATOM     16  C13 888 d   1       9.956  44.968  48.802  0.00  0.00     0.156 C 
ATOM     17  N12 888 d   1      10.420  46.122  48.246  0.00  0.00    -0.263 N 
ATOM     18  S11 888 d   1      10.782  46.233  46.665  0.00  0.00     0.266 S 
ATOM     19  H5  888 d   1      10.542  46.926  48.828  0.00  0.00     0.180 HD
ATOM     20  C6  888 d   1       9.992  44.863  45.854  0.00  0.00     0.108 A 
ATOM     21  O46 888 d   1      10.189  47.450  46.213  0.00  0.00    -0.200 OA
ATOM     22  O47 888 d   1      12.191  46.073  46.517  0.00  0.00    -0.200 OA
ATOM     23  C1  888 d   1       9.422  43.866  46.673  0.00  0.00     0.082 A 
ATOM     24  C5  888 d   1       9.940  44.769  44.450  0.00  0.00    -0.058 A 
ATOM     25  C2  888 d   1       8.781  42.753  46.070  0.00  0.00    -0.054 A 
ATOM     26  N14 888 d   1       9.499  43.948  48.019  0.00  0.00    -0.228 NA
ATOM     27  C3  888 d   1       8.718  42.647  44.661  0.00  0.00    -0.081 A 
ATOM     28  H1  888 d   1       8.339  41.982  46.691  0.00  0.00     0.087 H 
ATOM     29  C4  888 d   1       9.297  43.651  43.848  0.00  0.00    -0.081 A 
ATOM     30  H2  888 d   1       8.226  41.796  44.203  0.00  0.00     0.083 H 
ATOM     31  H3  888 d   1       9.251  43.568  42.768  0.00  0.00     0.083 H 
ATOM     32  H4  888 d   1      10.386  45.541  43.833  0.00  0.00     0.086 H 
ENDBRANCH   1  16
BRANCH   2  33
ATOM     33  O29 888 d   1      11.686  46.431  50.594  0.00  0.00    -0.359 OA
ATOM     34  H10 888 d   1      11.549  46.529  49.659  0.00  0.00     0.217 HD
ENDBRANCH   2  33
BRANCH   5  35
ATOM     35  C31 888 d   1       8.317  42.277  52.879  0.00  0.00     0.004 C 
ATOM     36  H11 888 d   1       8.929  41.760  53.633  0.00  0.00     0.065 H 
ATOM     37  H12 888 d   1       8.076  41.581  52.062  0.00  0.00     0.065 H 
BRANCH  35  38
ATOM     38  C32 888 d   1       6.965  42.637  53.572  0.00  0.00    -0.047 C 
ATOM     39  H13 888 d   1       7.194  43.132  54.527  0.00  0.00     0.035 H 
ATOM     40  H14 888 d   1       6.423  41.700  53.766  0.00  0.00     0.035 H 
BRANCH  38  41
ATOM     41  C35 888 d   1       6.032  43.571  52.761  0.00  0.00    -0.060 C 
ATOM     42  H15 888 d   1       6.629  44.411  52.377  0.00  0.00     0.038 H 
BRANCH  41  43
ATOM     43  C38 888 d   1       4.923  44.122  53.669  0.00  0.00    -0.073 C 
ATOM     44  H16 888 d   1       4.266  44.783  53.085  0.00  0.00     0.028 H 
ATOM     45  H17 888 d   1       5.374  44.690  54.496  0.00  0.00     0.028 H 
ATOM     46  H18 888 d   1       4.334  43.287  54.077  0.00  0.00     0.028 H 
ENDBRANCH  41  43
BRANCH  41  47
ATOM     47  C7  888 d   1       5.393  42.833  51.565  0.00  0.00    -0.073 C 
ATOM     48  H19 888 d   1       6.185  42.437  50.913  0.00  0.00     0.028 H 
ATOM     49  H20 888 d   1       4.765  43.533  50.995  0.00  0.00     0.028 H 
ATOM     50  H21 888 d   1       4.774  42.003  51.935  0.00  0.00     0.028 H 
ENDBRANCH  41  47
ENDBRANCH  38  41
ENDBRANCH  35  38
ENDBRANCH   5  35
TORSDOF 7
