REMARK  22 active torsions:
REMARK  status: ('A' for Active; 'I' for Inactive)
REMARK    1  A    between atoms: C3_2  and  C2_4 
REMARK    2  A    between atoms: C2_4  and  C5_5 
REMARK    3  A    between atoms: C5_5  and  C10_6 
REMARK    4  A    between atoms: C5_5  and  N4_11 
REMARK    5  A    between atoms: C10_6  and  N6_7 
REMARK    6  A    between atoms: N6_7  and  C14_8 
REMARK    7  A    between atoms: N6_7  and  C13_9 
REMARK    8  A    between atoms: N6_7  and  C12_10 
REMARK       I    between atoms: N4_11  and  C1_12 
REMARK       I    between atoms: C1_12  and  N11_14 
REMARK    9  A    between atoms: N11_14  and  C15_15 
REMARK   10  A    between atoms: C15_15  and  C16_16 
REMARK   11  A    between atoms: C16_16  and  C24_17 
REMARK   12  A    between atoms: C24_17  and  C26_18 
REMARK   13  A    between atoms: C26_18  and  C27_19 
REMARK   14  A    between atoms: C27_19  and  C19_20 
REMARK   15  A    between atoms: C19_20  and  C20_21 
REMARK   16  A    between atoms: C20_21  and  C21_22 
REMARK   17  A    between atoms: C21_22  and  C22_23 
REMARK   18  A    between atoms: C22_23  and  C23_24 
REMARK   19  A    between atoms: C23_24  and  C25_25 
REMARK   20  A    between atoms: C25_25  and  C18_26 
REMARK   21  A    between atoms: C18_26  and  C17_27 
REMARK   22  A    between atoms: C17_27  and  C28_28 
ROOT
ATOM      1  C24 BUI d   1      18.953   4.875  33.430  0.00  0.00    -0.064 C 
ATOM      2  H21 BUI d   1      18.854   5.923  33.751  0.00  0.00     0.033 H 
ATOM      3  H22 BUI d   1      18.345   4.232  34.083  0.00  0.00     0.033 H 
ENDROOT
BRANCH   1   4
ATOM      4  C16 BUI d   1      20.429   4.458  33.569  0.00  0.00    -0.050 C 
ATOM      5  H19 BUI d   1      20.764   4.767  34.570  0.00  0.00     0.035 H 
ATOM      6  H20 BUI d   1      20.469   3.361  33.491  0.00  0.00     0.035 H 
BRANCH   4   7
ATOM      7  C15 BUI d   1      21.428   5.023  32.559  0.00  0.00    -0.003 C 
ATOM      8  H17 BUI d   1      22.052   4.218  32.145  0.00  0.00     0.064 H 
ATOM      9  H18 BUI d   1      20.900   5.535  31.741  0.00  0.00     0.064 H 
BRANCH   7  10
ATOM     10  N11 BUI d   1      22.250   5.972  33.309  0.00  0.00    -0.343 N 
ATOM     11  C1  BUI d   1      22.839   7.114  32.852  0.00  0.00     0.316 C 
ATOM     12  N4  BUI d   1      23.584   7.908  33.669  0.00  0.00    -0.336 N 
ATOM     13  O7  BUI d   1      22.692   7.456  31.674  0.00  0.00    -0.247 OA
ATOM     14  H15 BUI d   1      23.723   7.662  34.628  0.00  0.00     0.164 HD
ATOM     15  H16 BUI d   1      22.398   5.757  34.274  0.00  0.00     0.164 HD
BRANCH  12  16
ATOM     16  C5  BUI d   1      24.179   9.131  33.118  0.00  0.00     0.046 C 
ATOM     17  H3  BUI d   1      23.746   9.372  32.136  0.00  0.00     0.075 H 
BRANCH  16  18
ATOM     18  C2  BUI d   1      25.690   8.830  32.956  0.00  0.00     0.036 C 
ATOM     19  H1  BUI d   1      26.123   8.695  33.958  0.00  0.00     0.052 H 
ATOM     20  H2  BUI d   1      25.795   7.897  32.382  0.00  0.00     0.052 H 
BRANCH  18  21
ATOM     21  C3  BUI d   1      26.476   9.922  32.240  0.00  0.00     0.174 C 
ATOM     22  O9  BUI d   1      27.737  10.001  32.404  0.00  0.00    -0.648 OA
ATOM     23  O8  BUI d   1      25.854  10.719  31.491  0.00  0.00    -0.648 OA
ENDBRANCH  18  21
ENDBRANCH  16  18
BRANCH  16  24
ATOM     24  C10 BUI d   1      23.860  10.271  34.108  0.00  0.00     0.103 C 
ATOM     25  H4  BUI d   1      24.622  11.053  33.974  0.00  0.00     0.079 H 
ATOM     26  H5  BUI d   1      23.931   9.860  35.126  0.00  0.00     0.079 H 
BRANCH  24  27
ATOM     27  N6  BUI d   1      22.508  10.921  33.970  0.00  0.00    -0.077 N 
BRANCH  27  28
ATOM     28  C14 BUI d   1      21.362  10.035  34.279  0.00  0.00     0.067 C 
ATOM     29  H6  BUI d   1      20.422  10.593  34.152  0.00  0.00     0.068 H 
ATOM     30  H7  BUI d   1      21.441   9.682  35.318  0.00  0.00     0.068 H 
ATOM     31  H8  BUI d   1      21.371   9.172  33.597  0.00  0.00     0.068 H 
ENDBRANCH  27  28
BRANCH  27  32
ATOM     32  C13 BUI d   1      22.286  11.517  32.632  0.00  0.00     0.067 C 
ATOM     33  H9  BUI d   1      23.127  12.180  32.382  0.00  0.00     0.068 H 
ATOM     34  H10 BUI d   1      21.352  12.097  32.639  0.00  0.00     0.068 H 
ATOM     35  H11 BUI d   1      22.215  10.716  31.881  0.00  0.00     0.068 H 
ENDBRANCH  27  32
BRANCH  27  36
ATOM     36  C12 BUI d   1      22.424  11.988  34.973  0.00  0.00     0.067 C 
ATOM     37  H12 BUI d   1      22.587  11.563  35.975  0.00  0.00     0.068 H 
ATOM     38  H13 BUI d   1      21.429  12.454  34.930  0.00  0.00     0.068 H 
ATOM     39  H14 BUI d   1      23.194  12.746  34.767  0.00  0.00     0.068 H 
ENDBRANCH  27  36
ENDBRANCH  24  27
ENDBRANCH  16  24
ENDBRANCH  12  16
ENDBRANCH   7  10
ENDBRANCH   4   7
ENDBRANCH   1   4
BRANCH   1  40
ATOM     40  C26 BUI d   1      18.431   4.753  32.011  0.00  0.00    -0.065 C 
ATOM     41  H23 BUI d   1      18.645   3.741  31.637  0.00  0.00     0.033 H 
ATOM     42  H24 BUI d   1      18.940   5.494  31.377  0.00  0.00     0.033 H 
BRANCH  40  43
ATOM     43  C27 BUI d   1      16.915   4.999  31.948  0.00  0.00    -0.065 C 
ATOM     44  H25 BUI d   1      16.711   6.012  32.325  0.00  0.00     0.033 H 
ATOM     45  H26 BUI d   1      16.416   4.260  32.593  0.00  0.00     0.033 H 
BRANCH  43  46
ATOM     46  C19 BUI d   1      16.331   4.882  30.535  0.00  0.00    -0.065 C 
ATOM     47  H27 BUI d   1      17.152   4.768  29.812  0.00  0.00     0.033 H 
ATOM     48  H28 BUI d   1      15.761   5.793  30.302  0.00  0.00     0.033 H 
BRANCH  46  49
ATOM     49  C20 BUI d   1      15.403   3.668  30.439  0.00  0.00    -0.065 C 
ATOM     50  H29 BUI d   1      14.948   3.493  31.425  0.00  0.00     0.033 H 
ATOM     51  H30 BUI d   1      15.999   2.790  30.150  0.00  0.00     0.033 H 
BRANCH  49  52
ATOM     52  C21 BUI d   1      14.287   3.863  29.411  0.00  0.00    -0.065 C 
ATOM     53  H31 BUI d   1      13.886   2.878  29.131  0.00  0.00     0.033 H 
ATOM     54  H32 BUI d   1      14.706   4.355  28.521  0.00  0.00     0.033 H 
BRANCH  52  55
ATOM     55  C22 BUI d   1      13.146   4.724  29.961  0.00  0.00    -0.065 C 
ATOM     56  H33 BUI d   1      13.147   5.699  29.453  0.00  0.00     0.033 H 
ATOM     57  H34 BUI d   1      13.290   4.873  31.041  0.00  0.00     0.033 H 
BRANCH  55  58
ATOM     58  C23 BUI d   1      11.808   4.028  29.719  0.00  0.00    -0.065 C 
ATOM     59  H35 BUI d   1      11.794   3.093  30.299  0.00  0.00     0.033 H 
ATOM     60  H36 BUI d   1      11.727   3.796  28.647  0.00  0.00     0.033 H 
BRANCH  58  61
ATOM     61  C25 BUI d   1      10.594   4.865  30.124  0.00  0.00    -0.065 C 
ATOM     62  H37 BUI d   1      10.679   5.873  29.693  0.00  0.00     0.033 H 
ATOM     63  H38 BUI d   1      10.543   4.938  31.220  0.00  0.00     0.033 H 
BRANCH  61  64
ATOM     64  C18 BUI d   1       9.337   4.186  29.597  0.00  0.00    -0.065 C 
ATOM     65  H39 BUI d   1       9.233   3.210  30.094  0.00  0.00     0.033 H 
ATOM     66  H40 BUI d   1       9.450   4.035  28.513  0.00  0.00     0.033 H 
BRANCH  64  67
ATOM     67  C17 BUI d   1       8.064   4.993  29.843  0.00  0.00    -0.069 C 
ATOM     68  H41 BUI d   1       7.582   5.199  28.876  0.00  0.00     0.032 H 
ATOM     69  H42 BUI d   1       8.335   5.943  30.328  0.00  0.00     0.032 H 
BRANCH  67  70
ATOM     70  C28 BUI d   1       7.085   4.257  30.727  0.00  0.00    -0.077 C 
ATOM     71  H43 BUI d   1       6.188   4.876  30.875  0.00  0.00     0.027 H 
ATOM     72  H44 BUI d   1       7.553   4.051  31.701  0.00  0.00     0.027 H 
ATOM     73  H45 BUI d   1       6.801   3.308  30.249  0.00  0.00     0.027 H 
ENDBRANCH  67  70
ENDBRANCH  64  67
ENDBRANCH  61  64
ENDBRANCH  58  61
ENDBRANCH  55  58
ENDBRANCH  52  55
ENDBRANCH  49  52
ENDBRANCH  46  49
ENDBRANCH  43  46
ENDBRANCH  40  43
ENDBRANCH   1  40
TORSDOF 22
