REMARK  6 active torsions:
REMARK  status: ('A' for Active; 'I' for Inactive)
REMARK    1  A    between atoms: C1_1  and  C2_4 
REMARK    2  A    between atoms: C2_4  and  C3_5 
REMARK    3  A    between atoms: C3_5  and  O7_6 
REMARK    4  A    between atoms: C3_5  and  C4_7 
REMARK    5  A    between atoms: C3_5  and  C6_11 
REMARK    6  A    between atoms: C4_7  and  C5_8 
ROOT
ATOM      1  C3  CIT d   1      36.234  65.796-151.156  0.00  0.00     0.164 C 
ENDROOT
BRANCH   1   2
ATOM      2  C2  CIT d   1      35.705  64.902-150.025  0.00  0.00     0.054 C 
ATOM      3  H1  CIT d   1      35.142  64.068-150.470  0.00  0.00     0.054 H 
ATOM      4  H2  CIT d   1      36.562  64.506-149.460  0.00  0.00     0.054 H 
BRANCH   2   5
ATOM      5  C1  CIT d   1      34.792  65.647-149.064  0.00  0.00     0.176 C 
ATOM      6  O1  CIT d   1      34.092  66.585-149.507  0.00  0.00    -0.648 OA
ATOM      7  O2  CIT d   1      34.759  65.279-147.869  0.00  0.00    -0.648 OA
ENDBRANCH   2   5
ENDBRANCH   1   2
BRANCH   1   8
ATOM      8  O7  CIT d   1      35.130  66.379-151.859  0.00  0.00    -0.378 OA
ATOM      9  H3  CIT d   1      34.613  66.901-151.257  0.00  0.00     0.211 HD
ENDBRANCH   1   8
BRANCH   1  10
ATOM     10  C4  CIT d   1      37.072  64.952-152.123  0.00  0.00     0.054 C 
ATOM     11  H4  CIT d   1      37.722  64.287-151.536  0.00  0.00     0.054 H 
ATOM     12  H5  CIT d   1      37.691  65.626-152.733  0.00  0.00     0.054 H 
BRANCH  10  13
ATOM     13  C5  CIT d   1      36.217  64.102-153.053  0.00  0.00     0.176 C 
ATOM     14  O3  CIT d   1      36.148  64.429-154.255  0.00  0.00    -0.648 OA
ATOM     15  O4  CIT d   1      35.610  63.117-152.584  0.00  0.00    -0.648 OA
ENDBRANCH  10  13
ENDBRANCH   1  10
BRANCH   1  16
ATOM     16  C6  CIT d   1      37.099  66.919-150.595  0.00  0.00     0.210 C 
ATOM     17  O5  CIT d   1      38.089  66.606-149.906  0.00  0.00    -0.646 OA
ATOM     18  O6  CIT d   1      36.777  68.098-150.860  0.00  0.00    -0.646 OA
ENDBRANCH   1  16
TORSDOF 6
