REMARK  10 active torsions:
REMARK  status: ('A' for Active; 'I' for Inactive)
REMARK    1  A    between atoms: C97_1  and  C95_2 
REMARK    2  A    between atoms: C95_2  and  C96_3 
REMARK    3  A    between atoms: C95_2  and  N94_4 
REMARK    4  A    between atoms: N94_4  and  C93_5 
REMARK    5  A    between atoms: C93_5  and  C92_6 
REMARK    6  A    between atoms: C92_6  and  C91_7 
REMARK    7  A    between atoms: C91_7  and  N9_8 
REMARK    8  A    between atoms: C6_13  and  N6_14 
REMARK    9  A    between atoms: C8_17  and  S_18 
REMARK   10  A    between atoms: S_18  and  C1'_19 
ROOT
ATOM      1  N9  H64 d   1       2.079   9.915  25.220  0.00  0.00    -0.308 N 
ATOM      2  C4  H64 d   1       0.861   9.949  25.753  0.00  0.00     0.166 A 
ATOM      3  N3  H64 d   1       0.333   9.522  26.907  0.00  0.00    -0.222 NA
ATOM      4  C2  H64 d   1      -0.950   9.705  27.166  0.00  0.00     0.091 A 
ATOM      5  N1  H64 d   1      -1.752  10.310  26.307  0.00  0.00    -0.222 NA
ATOM      6  C6  H64 d   1      -1.292  10.759  25.131  0.00  0.00     0.155 A 
ATOM      7  C5  H64 d   1       0.050  10.585  24.819  0.00  0.00     0.151 A 
ATOM      8  N7  H64 d   1       0.795  10.901  23.764  0.00  0.00    -0.216 NA
ATOM      9  C8  H64 d   1       2.032  10.482  24.018  0.00  0.00     0.176 A 
ATOM     10  H16 H64 d   1      -1.355   9.350  28.107  0.00  0.00     0.146 H 
ENDROOT
BRANCH   1  11
ATOM     11  C91 H64 d   1       3.300   9.433  25.880  0.00  0.00     0.005 C 
ATOM     12  H14 H64 d   1       4.154  10.030  25.526  0.00  0.00     0.065 H 
ATOM     13  H15 H64 d   1       3.189   9.560  26.967  0.00  0.00     0.065 H 
BRANCH  11  14
ATOM     14  C92 H64 d   1       3.571   7.956  25.580  0.00  0.00    -0.027 C 
ATOM     15  H12 H64 d   1       3.559   7.803  24.491  0.00  0.00     0.037 H 
ATOM     16  H13 H64 d   1       4.560   7.685  25.978  0.00  0.00     0.037 H 
BRANCH  14  17
ATOM     17  C93 H64 d   1       2.512   7.057  26.221  0.00  0.00     0.084 C 
ATOM     18  H10 H64 d   1       2.312   7.408  27.244  0.00  0.00     0.075 H 
ATOM     19  H11 H64 d   1       1.587   7.109  25.628  0.00  0.00     0.075 H 
BRANCH  17  20
ATOM     20  N94 H64 d   1       2.976   5.662  26.271  0.00  0.00    -0.072 N 
ATOM     21  H8  H64 d   1       2.189   5.058  26.451  0.00  0.00     0.277 HD
ATOM     22  H9  H64 d   1       3.391   5.419  25.385  0.00  0.00     0.277 HD
BRANCH  20  23
ATOM     23  C95 H64 d   1       3.974   5.486  27.337  0.00  0.00     0.095 C 
ATOM     24  H4  H64 d   1       3.739   6.165  28.170  0.00  0.00     0.083 H 
BRANCH  23  25
ATOM     25  C97 H64 d   1       5.373   5.807  26.806  0.00  0.00    -0.050 C 
ATOM     26  H1  H64 d   1       6.111   5.672  27.611  0.00  0.00     0.030 H 
ATOM     27  H2  H64 d   1       5.401   6.849  26.453  0.00  0.00     0.030 H 
ATOM     28  H3  H64 d   1       5.613   5.131  25.972  0.00  0.00     0.030 H 
ENDBRANCH  23  25
BRANCH  23  29
ATOM     29  C96 H64 d   1       3.930   4.040  27.835  0.00  0.00    -0.050 C 
ATOM     30  H5  H64 d   1       2.923   3.814  28.216  0.00  0.00     0.030 H 
ATOM     31  H6  H64 d   1       4.665   3.908  28.642  0.00  0.00     0.030 H 
ATOM     32  H7  H64 d   1       4.170   3.359  27.005  0.00  0.00     0.030 H 
ENDBRANCH  23  29
ENDBRANCH  20  23
ENDBRANCH  17  20
ENDBRANCH  14  17
ENDBRANCH  11  14
ENDBRANCH   1  11
BRANCH   9  33
ATOM     33  S   H64 d   1       3.393  10.644  22.930  0.00  0.00    -0.051 SA
BRANCH  33  34
ATOM     34  C1' H64 d   1       4.323  11.888  23.736  0.00  0.00     0.028 A 
ATOM     35  C6' H64 d   1       3.662  12.987  24.274  0.00  0.00    -0.030 A 
ATOM     36  C5' H64 d   1       4.384  14.011  24.877  0.00  0.00     0.106 A 
ATOM     37  H19 H64 d   1       2.581  13.046  24.223  0.00  0.00     0.090 H 
ATOM     38  O3' H64 d   1       4.004  15.181  25.458  0.00  0.00    -0.323 OA
ATOM     39  C4' H64 d   1       5.772  13.937  24.937  0.00  0.00     0.106 A 
ATOM     40  C'2 H64 d   1       5.162  16.004  25.260  0.00  0.00     0.115 C 
ATOM     41  O1' H64 d   1       6.222  15.076  25.530  0.00  0.00    -0.323 OA
ATOM     42  H20 H64 d   1       5.179  16.849  25.964  0.00  0.00     0.118 H 
ATOM     43  H21 H64 d   1       5.213  16.384  24.229  0.00  0.00     0.118 H 
ATOM     44  C3' H64 d   1       6.431  12.838  24.401  0.00  0.00    -0.030 A 
ATOM     45  C2' H64 d   1       5.711  11.809  23.802  0.00  0.00     0.031 A 
ATOM     46  H22 H64 d   1       7.512  12.782  24.450  0.00  0.00     0.090 H 
ATOM     47 BR   H64 d   1       6.638  10.297  23.134  0.00  0.00    -0.050 Br
ENDBRANCH  33  34
ENDBRANCH   9  33
BRANCH   6  48
ATOM     48  N6  H64 d   1      -2.107  11.364  24.271  0.00  0.00    -0.382 N 
ATOM     49  H17 H64 d   1      -1.743  11.705  23.370  0.00  0.00     0.157 HD
ATOM     50  H18 H64 d   1      -3.102  11.491  24.506  0.00  0.00     0.157 HD
ENDBRANCH   6  48
TORSDOF 10
