REMARK  10 active torsions:
REMARK  status: ('A' for Active; 'I' for Inactive)
REMARK    1  A    between atoms: C96_1  and  C95_2 
REMARK    2  A    between atoms: C95_2  and  C97_3 
REMARK    3  A    between atoms: C95_2  and  N94_4 
REMARK    4  A    between atoms: N94_4  and  C93_5 
REMARK    5  A    between atoms: C93_5  and  C92_6 
REMARK    6  A    between atoms: C92_6  and  C91_7 
REMARK    7  A    between atoms: C91_7  and  N9_8 
REMARK    8  A    between atoms: C6_13  and  N6_14 
REMARK    9  A    between atoms: C8_17  and  S_18 
REMARK   10  A    between atoms: S_18  and  C1'_19 
ROOT
ATOM      1  N9  H71 d   1       2.165  10.023  25.282  0.00  0.00    -0.308 N 
ATOM      2  C4  H71 d   1       0.950  10.070  25.835  0.00  0.00     0.166 A 
ATOM      3  N3  H71 d   1       0.431   9.626  26.986  0.00  0.00    -0.222 NA
ATOM      4  C2  H71 d   1      -0.847   9.818  27.261  0.00  0.00     0.091 A 
ATOM      5  N1  H71 d   1      -1.649  10.448  26.422  0.00  0.00    -0.222 NA
ATOM      6  C6  H71 d   1      -1.193  10.917  25.250  0.00  0.00     0.155 A 
ATOM      7  C5  H71 d   1       0.144  10.734  24.926  0.00  0.00     0.151 A 
ATOM      8  N7  H71 d   1       0.887  11.063  23.863  0.00  0.00    -0.216 NA
ATOM      9  C8  H71 d   1       2.117  10.617  24.104  0.00  0.00     0.176 A 
ATOM     10  H16 H71 d   1      -1.247   9.449  28.198  0.00  0.00     0.146 H 
ENDROOT
BRANCH   1  11
ATOM     11  C91 H71 d   1       3.381   9.455  25.888  0.00  0.00     0.005 C 
ATOM     12  H14 H71 d   1       4.261   9.986  25.495  0.00  0.00     0.065 H 
ATOM     13  H15 H71 d   1       3.333   9.584  26.979  0.00  0.00     0.065 H 
BRANCH  11  14
ATOM     14  C92 H71 d   1       3.509   7.966  25.565  0.00  0.00    -0.027 C 
ATOM     15  H12 H71 d   1       3.374   7.816  24.484  0.00  0.00     0.037 H 
ATOM     16  H13 H71 d   1       4.508   7.614  25.862  0.00  0.00     0.037 H 
BRANCH  14  17
ATOM     17  C93 H71 d   1       2.446   7.169  26.323  0.00  0.00     0.084 C 
ATOM     18  H10 H71 d   1       2.521   7.394  27.397  0.00  0.00     0.075 H 
ATOM     19  H11 H71 d   1       1.449   7.454  25.957  0.00  0.00     0.075 H 
BRANCH  17  20
ATOM     20  N94 H71 d   1       2.646   5.728  26.114  0.00  0.00    -0.072 N 
ATOM     21  H8  H71 d   1       2.359   5.483  25.180  0.00  0.00     0.277 HD
ATOM     22  H9  H71 d   1       3.622   5.505  26.235  0.00  0.00     0.277 HD
BRANCH  20  23
ATOM     23  C95 H71 d   1       1.848   4.966  27.085  0.00  0.00     0.095 C 
ATOM     24  H4  H71 d   1       1.947   3.893  26.866  0.00  0.00     0.083 H 
BRANCH  23  25
ATOM     25  C96 H71 d   1       2.367   5.230  28.499  0.00  0.00    -0.050 C 
ATOM     26  H1  H71 d   1       1.767   4.658  29.222  0.00  0.00     0.030 H 
ATOM     27  H2  H71 d   1       2.287   6.304  28.724  0.00  0.00     0.030 H 
ATOM     28  H3  H71 d   1       3.420   4.918  28.567  0.00  0.00     0.030 H 
ENDBRANCH  23  25
BRANCH  23  29
ATOM     29  C97 H71 d   1       0.373   5.359  26.965  0.00  0.00    -0.050 C 
ATOM     30  H5  H71 d   1       0.023   5.160  25.941  0.00  0.00     0.030 H 
ATOM     31  H6  H71 d   1       0.259   6.430  27.190  0.00  0.00     0.030 H 
ATOM     32  H7  H71 d   1      -0.223   4.769  27.677  0.00  0.00     0.030 H 
ENDBRANCH  23  29
ENDBRANCH  20  23
ENDBRANCH  17  20
ENDBRANCH  14  17
ENDBRANCH  11  14
ENDBRANCH   1  11
BRANCH   9  33
ATOM     33  S   H71 d   1       3.495  10.799  23.033  0.00  0.00    -0.051 SA
BRANCH  33  34
ATOM     34  C1' H71 d   1       4.393  12.043  23.867  0.00  0.00     0.028 A 
ATOM     35  C6' H71 d   1       3.731  13.155  24.364  0.00  0.00    -0.030 A 
ATOM     36  C5' H71 d   1       4.435  14.162  25.002  0.00  0.00     0.106 A 
ATOM     37  H19 H71 d   1       2.656  13.236  24.252  0.00  0.00     0.090 H 
ATOM     38  O3' H71 d   1       4.054  15.348  25.550  0.00  0.00    -0.323 OA
ATOM     39  C4' H71 d   1       5.822  14.061  25.146  0.00  0.00     0.106 A 
ATOM     40  C'2 H71 d   1       5.237  16.146  25.420  0.00  0.00     0.115 C 
ATOM     41  O1' H71 d   1       6.253  15.193  25.763  0.00  0.00    -0.323 OA
ATOM     42  H20 H71 d   1       5.229  16.996  26.118  0.00  0.00     0.118 H 
ATOM     43  H21 H71 d   1       5.362  16.517  24.392  0.00  0.00     0.118 H 
ATOM     44  C3' H71 d   1       6.487  12.946  24.652  0.00  0.00    -0.031 A 
ATOM     45  C2' H71 d   1       5.784  11.936  24.015  0.00  0.00     0.026 A 
ATOM     46  H22 H71 d   1       7.562  12.866  24.765  0.00  0.00     0.089 H 
ATOM     47  I   H71 d   1       6.804  10.236  23.302  0.00  0.00    -0.043 I 
ENDBRANCH  33  34
ENDBRANCH   9  33
BRANCH   6  48
ATOM     48  N6  H71 d   1      -2.021  11.534  24.412  0.00  0.00    -0.382 N 
ATOM     49  H17 H71 d   1      -1.670  11.894  23.513  0.00  0.00     0.157 HD
ATOM     50  H18 H71 d   1      -3.013  11.652  24.662  0.00  0.00     0.157 HD
ENDBRANCH   6  48
TORSDOF 10
