REMARK WARNING: 32 MAX_TORS EXCEEDED!!!
REMARK  84 active torsions:
REMARK  status: ('A' for Active; 'I' for Inactive)
REMARK    1  A    between atoms: N_1  and  CA_2 
REMARK    2  A    between atoms: CA_2  and  C_3 
REMARK    3  A    between atoms: CA_2  and  CB_5 
REMARK       I    between atoms: C_3  and  N_9 
REMARK    4  A    between atoms: CB_5  and  CG_6 
REMARK       I    between atoms: CG_6  and  ND2_8 
REMARK    5  A    between atoms: N_9  and  CA_10 
REMARK    6  A    between atoms: CA_10  and  C_11 
REMARK    7  A    between atoms: CA_10  and  CB_13 
REMARK       I    between atoms: C_11  and  N_23 
REMARK    8  A    between atoms: CB_13  and  CG_14 
REMARK    9  A    between atoms: N_23  and  CA_24 
REMARK   10  A    between atoms: CA_24  and  C_25 
REMARK   11  A    between atoms: CA_24  and  CB_27 
REMARK       I    between atoms: C_25  and  N_34 
REMARK   12  A    between atoms: CB_27  and  CG_28 
REMARK   13  A    between atoms: N_34  and  CA_35 
REMARK   14  A    between atoms: CA_35  and  C_36 
REMARK   15  A    between atoms: CA_35  and  CB_38 
REMARK       I    between atoms: C_36  and  N_42 
REMARK   16  A    between atoms: CB_38  and  CG_39 
REMARK   17  A    between atoms: N_42  and  CA_43 
REMARK   18  A    between atoms: CA_43  and  C_44 
REMARK   19  A    between atoms: CA_43  and  CB_46 
REMARK       I    between atoms: C_44  and  N_50 
REMARK   20  A    between atoms: CB_46  and  CG1_47 
REMARK   21  A    between atoms: CB_46  and  CG2_48 
REMARK   22  A    between atoms: CG1_47  and  CD1_49 
REMARK   23  A    between atoms: N_50  and  CA_51 
REMARK   24  A    between atoms: CA_51  and  C_52 
REMARK   25  A    between atoms: CA_51  and  CB_54 
REMARK       I    between atoms: C_52  and  N_57 
REMARK   26  A    between atoms: CB_54  and  OG1_55 
REMARK   27  A    between atoms: CB_54  and  CG2_56 
REMARK   28  A    between atoms: N_57  and  CA_58 
REMARK   29  A    between atoms: CA_58  and  C_59 
REMARK   30  A    between atoms: CA_58  and  CB_61 
REMARK       I    between atoms: C_59  and  N_65 
REMARK   31  A    between atoms: CB_61  and  CG_62 
REMARK       I    between atoms: CG_62  and  ND2_64 
REMARK   32  A    between atoms: N_65  and  CA_66 
REMARK   33  A    between atoms: CA_66  and  C_67 
REMARK   34  A    between atoms: CA_66  and  CB_69 
REMARK       I    between atoms: C_67  and  N_79 
REMARK   35  A    between atoms: CB_69  and  CG_70 
REMARK   36  A    between atoms: N_79  and  CA_80 
REMARK   37  A    between atoms: CA_80  and  C_81 
REMARK   38  A    between atoms: CA_80  and  CB_83 
REMARK       I    between atoms: C_81  and  N_87 
REMARK   39  A    between atoms: CB_83  and  CG_84 
REMARK   40  A    between atoms: CG_84  and  CD1_85 
REMARK   41  A    between atoms: CG_84  and  CD2_86 
REMARK   42  A    between atoms: N_87  and  CA_88 
REMARK   43  A    between atoms: CA_88  and  C_89 
REMARK   44  A    between atoms: CA_88  and  CB_91 
REMARK       I    between atoms: C_89  and  N_101 
REMARK   45  A    between atoms: CB_91  and  CG_92 
REMARK   46  A    between atoms: N_101  and  CA_102 
REMARK   47  A    between atoms: CA_102  and  C_103 
REMARK   48  A    between atoms: CA_102  and  CB_105 
REMARK       I    between atoms: C_103  and  N_113 
REMARK   49  A    between atoms: CB_105  and  CG_106 
REMARK   50  A    between atoms: CZ_111  and  OH_112 
REMARK   51  A    between atoms: N_113  and  CA_114 
REMARK   52  A    between atoms: CA_114  and  C_115 
REMARK   53  A    between atoms: CA_114  and  CB_117 
REMARK       I    between atoms: C_115  and  N_121 
REMARK   54  A    between atoms: CB_117  and  CG1_118 
REMARK   55  A    between atoms: CB_117  and  CG2_119 
REMARK   56  A    between atoms: CG1_118  and  CD1_120 
REMARK   57  A    between atoms: N_121  and  CA_122 
REMARK   58  A    between atoms: CA_122  and  C_123 
REMARK   59  A    between atoms: CA_122  and  CB_125 
REMARK       I    between atoms: C_123  and  N_130 
REMARK   60  A    between atoms: CB_125  and  CG_126 
REMARK   61  A    between atoms: CG_126  and  CD_127 
REMARK   62  A    between atoms: CD_127  and  CE_128 
REMARK   63  A    between atoms: CE_128  and  NZ_129 
REMARK   64  A    between atoms: N_130  and  CA_131 
REMARK   65  A    between atoms: CA_131  and  C_132 
REMARK   66  A    between atoms: CA_131  and  CB_134 
REMARK       I    between atoms: C_132  and  N_139 
REMARK   67  A    between atoms: CB_134  and  CG_135 
REMARK   68  A    between atoms: CG_135  and  CD_136 
REMARK   69  A    between atoms: CD_136  and  CE_137 
REMARK   70  A    between atoms: CE_137  and  NZ_138 
REMARK   71  A    between atoms: N_139  and  CA_140 
REMARK   72  A    between atoms: CA_140  and  C_141 
REMARK   73  A    between atoms: CA_140  and  CB_143 
REMARK       I    between atoms: C_141  and  N_148 
REMARK   74  A    between atoms: CB_143  and  CG_144 
REMARK   75  A    between atoms: CG_144  and  CD_145 
REMARK   76  A    between atoms: CD_145  and  CE_146 
REMARK   77  A    between atoms: CE_146  and  NZ_147 
REMARK   78  A    between atoms: N_148  and  CA_149 
REMARK   79  A    between atoms: CA_149  and  C_150 
REMARK   80  A    between atoms: CA_149  and  CB_152 
REMARK   81  A    between atoms: CB_152  and  CG_153 
REMARK   82  A    between atoms: CG_153  and  CD_154 
REMARK   83  A    between atoms: CD_154  and  CE_155 
REMARK   84  A    between atoms: CE_155  and  NZ_156 
ROOT
ATOM      1  CA  LEU d   1      40.562  -4.400  76.797  0.00  0.00     0.089 C 
ATOM      2  H67 LEU d   1      41.050  -4.298  77.777  0.00  0.00     0.087 H 
ENDROOT
BRANCH   1   3
ATOM      3  N   LEU d   1      40.931  -5.689  76.224  0.00  0.00    -0.346 N 
ATOM      4  C   TRP d   1      40.645  -6.839  76.832  0.00  0.00     0.241 C 
ATOM      5  O   TRP d   1      40.063  -6.898  77.917  0.00  0.00    -0.271 OA
ATOM      6  H66 LEU d   1      41.413  -5.710  75.348  0.00  0.00     0.163 HD
BRANCH   4   7
ATOM      7  CA  TRP d   1      41.083  -8.114  76.112  0.00  0.00     0.093 C 
ATOM      8  H57 TRP d   1      40.562  -8.974  76.558  0.00  0.00     0.088 H 
BRANCH   7   9
ATOM      9  N   TRP d   1      40.747  -8.036  74.698  0.00  0.00    -0.346 N 
ATOM     10  C   ASN d   1      39.494  -7.925  74.275  0.00  0.00     0.241 C 
ATOM     11  O   ASN d   1      38.528  -7.872  75.035  0.00  0.00    -0.271 OA
ATOM     12  H56 TRP d   1      41.484  -8.067  74.023  0.00  0.00     0.163 HD
BRANCH  10  13
ATOM     13  CA  ASN d   1      39.315  -7.849  72.763  0.00  0.00     0.097 C 
ATOM     14  H51 ASN d   1      38.312  -7.468  72.523  0.00  0.00     0.088 H 
BRANCH  13  15
ATOM     15  N   ASN d   1      40.327  -6.932  72.247  0.00  0.00    -0.345 N 
ATOM     16  C   THR d   1      40.281  -5.637  72.548  0.00  0.00     0.243 C 
ATOM     17  O   THR d   1      39.394  -5.151  73.249  0.00  0.00    -0.271 OA
ATOM     18  H50 ASN d   1      41.060  -7.280  71.663  0.00  0.00     0.163 HD
BRANCH  16  19
ATOM     19  CA  THR d   1      41.393  -4.751  71.990  0.00  0.00     0.113 C 
ATOM     20  H44 THR d   1      41.584  -3.959  72.729  0.00  0.00     0.091 H 
BRANCH  19  21
ATOM     21  N   THR d   1      42.648  -5.460  71.789  0.00  0.00    -0.344 N 
ATOM     22  C   ILE d   1      43.290  -5.975  72.832  0.00  0.00     0.241 C 
ATOM     23  O   ILE d   1      42.844  -5.899  73.981  0.00  0.00    -0.271 OA
ATOM     24  H43 THR d   1      43.026  -5.559  70.868  0.00  0.00     0.163 HD
BRANCH  22  25
ATOM     25  CA  ILE d   1      44.618  -6.683  72.565  0.00  0.00     0.092 C 
ATOM     26  H33 ILE d   1      44.872  -7.243  73.477  0.00  0.00     0.088 H 
BRANCH  25  27
ATOM     27  N   ILE d   1      44.601  -7.651  71.469  0.00  0.00    -0.346 N 
ATOM     28  C   ASP d   1      43.776  -8.693  71.479  0.00  0.00     0.241 C 
ATOM     29  O   ASP d   1      42.968  -8.888  72.384  0.00  0.00    -0.271 OA
ATOM     30  H32 ILE d   1      45.223  -7.526  70.696  0.00  0.00     0.163 HD
BRANCH  28  31
ATOM     31  CA  ASP d   1      43.864  -9.659  70.298  0.00  0.00     0.098 C 
ATOM     32  H29 ASP d   1      42.855  -9.785  69.878  0.00  0.00     0.088 H 
BRANCH  31  33
ATOM     33  N   ASP d   1      44.733  -9.158  69.235  0.00  0.00    -0.345 N 
ATOM     34  C   PHE d   1      44.219  -8.647  68.120  0.00  0.00     0.241 C 
ATOM     35  O   PHE d   1      43.009  -8.579  67.928  0.00  0.00    -0.271 OA
ATOM     36  H28 ASP d   1      45.726  -9.200  69.347  0.00  0.00     0.163 HD
BRANCH  34  37
ATOM     37  CA  PHE d   1      45.199  -8.128  67.064  0.00  0.00     0.093 C 
ATOM     38  H20 PHE d   1      44.956  -7.069  66.892  0.00  0.00     0.088 H 
BRANCH  37  39
ATOM     39  N   PHE d   1      46.601  -8.181  67.465  0.00  0.00    -0.346 N 
ATOM     40  C   TRP d   1      47.062  -7.376  68.418  0.00  0.00     0.241 C 
ATOM     41  O   TRP d   1      46.342  -6.570  69.007  0.00  0.00    -0.271 OA
ATOM     42  H19 PHE d   1      47.220  -8.828  67.020  0.00  0.00     0.163 HD
BRANCH  40  43
ATOM     43  CA  TRP d   1      48.547  -7.491  68.759  0.00  0.00     0.093 C 
ATOM     44  H10 TRP d   1      48.698  -7.159  69.797  0.00  0.00     0.088 H 
BRANCH  43  45
ATOM     45  N   TRP d   1      49.018  -8.868  68.632  0.00  0.00    -0.346 N 
ATOM     46  C   ASN d   1      48.431  -9.893  69.243  0.00  0.00     0.249 C 
ATOM     47  O   ASN d   1      47.454  -9.767  69.984  0.00  0.00    -0.271 OA
ATOM     48  H9  TRP d   1      49.818  -9.048  68.060  0.00  0.00     0.163 HD
BRANCH  46  49
ATOM     49  CA  ASN d   1      49.056 -11.263  68.990  0.00  0.00     0.183 C 
ATOM     50  H4  ASN d   1      49.895 -11.143  68.289  0.00  0.00     0.099 H 
BRANCH  49  51
ATOM     51  N   ASN d   1      49.571 -11.844  70.261  0.00  0.00    -0.066 N 
ATOM     52  H1  ASN d   1      49.980 -12.747  70.076  0.00  0.00     0.275 HD
ATOM     53  H2  ASN d   1      48.811 -11.947  70.916  0.00  0.00     0.275 HD
ATOM     54  H3  ASN d   1      50.270 -11.232  70.651  0.00  0.00     0.275 HD
ENDBRANCH  49  51
BRANCH  49  55
ATOM     55  CB  ASN d   1      48.028 -12.218  68.373  0.00  0.00     0.044 C 
ATOM     56  H5  ASN d   1      47.195 -12.342  69.080  0.00  0.00     0.051 H 
ATOM     57  H6  ASN d   1      48.511 -13.191  68.201  0.00  0.00     0.051 H 
BRANCH  55  58
ATOM     58  CG  ASN d   1      47.474 -11.713  67.055  0.00  0.00     0.217 C 
ATOM     59  OD1 ASN d   1      47.953 -10.722  66.504  0.00  0.00    -0.274 OA
ATOM     60  ND2 ASN d   1      46.463 -12.403  66.539  0.00  0.00    -0.370 N 
ATOM     61  H7  ASN d   1      46.055 -12.119  65.671  0.00  0.00     0.159 HD
ATOM     62  H8  ASN d   1      46.110 -13.207  67.018  0.00  0.00     0.159 HD
ENDBRANCH  55  58
ENDBRANCH  49  55
ENDBRANCH  46  49
ENDBRANCH  43  45
BRANCH  43  63
ATOM     63  CB  TRP d   1      49.359  -6.594  67.821  0.00  0.00    -0.012 C 
ATOM     64  H11 TRP d   1      49.231  -6.976  66.797  0.00  0.00     0.044 H 
ATOM     65  H12 TRP d   1      50.417  -6.673  68.113  0.00  0.00     0.044 H 
BRANCH  63  66
ATOM     66  CG  TRP d   1      48.991  -5.131  67.816  0.00  0.00    -0.028 A 
ATOM     67  CD1 TRP d   1      49.493  -4.154  68.631  0.00  0.00    -0.015 A 
ATOM     68  NE1 TRP d   1      48.984  -2.928  68.272  0.00  0.00    -0.365 N 
ATOM     69  H13 TRP d   1      50.195  -4.323  69.447  0.00  0.00     0.112 H 
ATOM     70  CE2 TRP d   1      48.131  -3.093  67.213  0.00  0.00     0.042 A 
ATOM     71  H14 TRP d   1      49.208  -2.031  68.726  0.00  0.00     0.165 HD
ATOM     72  CD2 TRP d   1      48.106  -4.470  66.900  0.00  0.00    -0.002 A 
ATOM     73  CZ2 TRP d   1      47.378  -2.148  66.504  0.00  0.00    -0.056 A 
ATOM     74  CE3 TRP d   1      47.297  -4.909  65.842  0.00  0.00    -0.070 A 
ATOM     75  CZ3 TRP d   1      46.544  -3.968  65.137  0.00  0.00    -0.082 A 
ATOM     76  H15 TRP d   1      47.257  -5.959  65.576  0.00  0.00     0.084 H 
ATOM     77  CH2 TRP d   1      46.593  -2.604  65.474  0.00  0.00    -0.081 A 
ATOM     78  H17 TRP d   1      45.913  -4.294  64.318  0.00  0.00     0.083 H 
ATOM     79  H18 TRP d   1      45.998  -1.897  64.908  0.00  0.00     0.083 H 
ATOM     80  H16 TRP d   1      47.414  -1.095  66.759  0.00  0.00     0.086 H 
ENDBRANCH  63  66
ENDBRANCH  43  63
ENDBRANCH  40  43
ENDBRANCH  37  39
BRANCH  37  81
ATOM     81  CB  PHE d   1      44.988  -8.880  65.740  0.00  0.00    -0.014 C 
ATOM     82  H21 PHE d   1      43.907  -8.967  65.559  0.00  0.00     0.043 H 
ATOM     83  H22 PHE d   1      45.425  -9.884  65.838  0.00  0.00     0.043 H 
BRANCH  81  84
ATOM     84  CG  PHE d   1      45.617  -8.201  64.549  0.00  0.00    -0.056 A 
ATOM     85  CD1 PHE d   1      46.907  -8.527  64.138  0.00  0.00    -0.077 A 
ATOM     86  CE1 PHE d   1      47.495  -7.884  63.052  0.00  0.00    -0.082 A 
ATOM     87  H23 PHE d   1      47.461  -9.292  64.671  0.00  0.00     0.084 H 
ATOM     88  CZ  PHE d   1      46.788  -6.899  62.360  0.00  0.00    -0.083 A 
ATOM     89  H25 PHE d   1      48.500  -8.148  62.744  0.00  0.00     0.083 H 
ATOM     90  CE2 PHE d   1      45.500  -6.568  62.761  0.00  0.00    -0.082 A 
ATOM     91  H27 PHE d   1      47.242  -6.395  61.514  0.00  0.00     0.083 H 
ATOM     92  CD2 PHE d   1      44.921  -7.219  63.850  0.00  0.00    -0.077 A 
ATOM     93  H26 PHE d   1      44.945  -5.804  62.228  0.00  0.00     0.083 H 
ATOM     94  H24 PHE d   1      43.915  -6.957  64.156  0.00  0.00     0.084 H 
ENDBRANCH  81  84
ENDBRANCH  37  81
ENDBRANCH  34  37
ENDBRANCH  31  33
BRANCH  31  95
ATOM     95  CB  ASP d   1      44.353 -11.021  70.815  0.00  0.00     0.043 C 
ATOM     96  H30 ASP d   1      43.795 -11.270  71.730  0.00  0.00     0.052 H 
ATOM     97  H31 ASP d   1      45.425 -10.943  71.049  0.00  0.00     0.052 H 
BRANCH  95  98
ATOM     98  CG  ASP d   1      44.157 -12.141  69.810  0.00  0.00     0.175 C 
ATOM     99  OD1 ASP d   1      43.116 -12.147  69.119  0.00  0.00    -0.648 OA
ATOM    100  OD2 ASP d   1      45.037 -13.026  69.725  0.00  0.00    -0.648 OA
ENDBRANCH  95  98
ENDBRANCH  31  95
ENDBRANCH  28  31
ENDBRANCH  25  27
BRANCH  25 101
ATOM    101  CB  ILE d   1      45.721  -5.619  72.336  0.00  0.00    -0.030 C 
ATOM    102  H34 ILE d   1      45.559  -5.141  71.359  0.00  0.00     0.043 H 
BRANCH 101 103
ATOM    103  CG1 ILE d   1      47.092  -6.306  72.333  0.00  0.00    -0.063 C 
ATOM    104  H35 ILE d   1      47.084  -7.088  71.560  0.00  0.00     0.033 H 
ATOM    105  H36 ILE d   1      47.248  -6.767  73.319  0.00  0.00     0.033 H 
BRANCH 103 106
ATOM    106  CD1 ILE d   1      48.252  -5.379  72.055  0.00  0.00    -0.076 C 
ATOM    107  H40 ILE d   1      49.191  -5.952  72.072  0.00  0.00     0.027 H 
ATOM    108  H41 ILE d   1      48.287  -4.595  72.825  0.00  0.00     0.027 H 
ATOM    109  H42 ILE d   1      48.122  -4.916  71.066  0.00  0.00     0.027 H 
ENDBRANCH 103 106
ENDBRANCH 101 103
BRANCH 101 110
ATOM    110  CG2 ILE d   1      45.664  -4.541  73.428  0.00  0.00    -0.071 C 
ATOM    111  H37 ILE d   1      44.675  -4.059  73.416  0.00  0.00     0.028 H 
ATOM    112  H38 ILE d   1      46.442  -3.787  73.239  0.00  0.00     0.028 H 
ATOM    113  H39 ILE d   1      45.834  -5.005  74.411  0.00  0.00     0.028 H 
ENDBRANCH 101 110
ENDBRANCH  25 101
ENDBRANCH  22  25
ENDBRANCH  19  21
BRANCH  19 114
ATOM    114  CB  THR d   1      40.915  -4.076  70.690  0.00  0.00     0.060 C 
ATOM    115  H45 THR d   1      39.919  -3.640  70.857  0.00  0.00     0.086 H 
BRANCH 114 116
ATOM    116  OG1 THR d   1      40.831  -5.047  69.643  0.00  0.00    -0.393 OA
ATOM    117  H46 THR d   1      40.536  -4.625  68.844  0.00  0.00     0.210 HD
ENDBRANCH 114 116
BRANCH 114 118
ATOM    118  CG2 THR d   1      41.884  -2.964  70.290  0.00  0.00    -0.050 C 
ATOM    119  H47 THR d   1      41.534  -2.489  69.362  0.00  0.00     0.031 H 
ATOM    120  H48 THR d   1      42.885  -3.390  70.129  0.00  0.00     0.031 H 
ATOM    121  H49 THR d   1      41.930  -2.212  71.092  0.00  0.00     0.031 H 
ENDBRANCH 114 118
ENDBRANCH  19 114
ENDBRANCH  16  19
ENDBRANCH  13  15
BRANCH  13 122
ATOM    122  CB  ASN d   1      39.485  -9.241  72.153  0.00  0.00     0.036 C 
ATOM    123  H52 ASN d   1      40.513  -9.585  72.340  0.00  0.00     0.051 H 
ATOM    124  H53 ASN d   1      39.312  -9.175  71.069  0.00  0.00     0.051 H 
BRANCH 122 125
ATOM    125  CG  ASN d   1      38.519 -10.252  72.739  0.00  0.00     0.217 C 
ATOM    126  OD1 ASN d   1      38.929 -11.231  73.363  0.00  0.00    -0.274 OA
ATOM    127  ND2 ASN d   1      37.227 -10.016  72.549  0.00  0.00    -0.370 N 
ATOM    128  H54 ASN d   1      36.544 -10.649  72.913  0.00  0.00     0.159 HD
ATOM    129  H55 ASN d   1      36.936  -9.205  72.041  0.00  0.00     0.159 HD
ENDBRANCH 122 125
ENDBRANCH  13 122
ENDBRANCH  10  13
ENDBRANCH   7   9
BRANCH   7 130
ATOM    130  CB  TRP d   1      42.588  -8.305  76.270  0.00  0.00    -0.012 C 
ATOM    131  H58 TRP d   1      43.087  -7.367  75.984  0.00  0.00     0.044 H 
ATOM    132  H59 TRP d   1      42.907  -9.112  75.593  0.00  0.00     0.044 H 
BRANCH 130 133
ATOM    133  CG  TRP d   1      43.016  -8.659  77.655  0.00  0.00    -0.028 A 
ATOM    134  CD1 TRP d   1      42.937  -9.884  78.251  0.00  0.00    -0.015 A 
ATOM    135  NE1 TRP d   1      43.473  -9.831  79.516  0.00  0.00    -0.365 N 
ATOM    136  H60 TRP d   1      42.511 -10.775  77.791  0.00  0.00     0.112 H 
ATOM    137  CE2 TRP d   1      43.907  -8.554  79.760  0.00  0.00     0.042 A 
ATOM    138  H61 TRP d   1      43.538 -10.622  80.173  0.00  0.00     0.165 HD
ATOM    139  CD2 TRP d   1      43.631  -7.787  78.608  0.00  0.00    -0.002 A 
ATOM    140  CZ2 TRP d   1      44.518  -8.010  80.895  0.00  0.00    -0.056 A 
ATOM    141  CE3 TRP d   1      43.977  -6.430  78.599  0.00  0.00    -0.070 A 
ATOM    142  CZ3 TRP d   1      44.587  -5.888  79.728  0.00  0.00    -0.082 A 
ATOM    143  H62 TRP d   1      43.774  -5.814  77.731  0.00  0.00     0.084 H 
ATOM    144  CH2 TRP d   1      44.851  -6.680  80.859  0.00  0.00    -0.081 A 
ATOM    145  H64 TRP d   1      44.862  -4.840  79.734  0.00  0.00     0.083 H 
ATOM    146  H65 TRP d   1      45.328  -6.230  81.722  0.00  0.00     0.083 H 
ATOM    147  H63 TRP d   1      44.721  -8.617  81.770  0.00  0.00     0.086 H 
ENDBRANCH 130 133
ENDBRANCH   7 130
ENDBRANCH   4   7
ENDBRANCH   1   3
BRANCH   1 148
ATOM    148  C   LEU d   1      39.053  -4.314  76.986  0.00  0.00     0.241 C 
ATOM    149  O   LEU d   1      38.571  -3.796  77.993  0.00  0.00    -0.271 OA
ATOM    150  N   TRP d   1      38.317  -4.821  76.004  0.00  0.00    -0.346 N 
ATOM    151  H77 TRP d   1      38.777  -5.220  75.211  0.00  0.00     0.163 HD
BRANCH 150 152
ATOM    152  CA  TRP d   1      36.861  -4.814  76.045  0.00  0.00     0.093 C 
ATOM    153  H78 TRP d   1      36.510  -3.772  76.063  0.00  0.00     0.088 H 
BRANCH 152 154
ATOM    154  C   TRP d   1      36.357  -5.529  77.298  0.00  0.00     0.241 C 
ATOM    155  O   TRP d   1      35.507  -5.011  78.020  0.00  0.00    -0.271 OA
ATOM    156  N   TYR d   1      36.882  -6.724  77.547  0.00  0.00    -0.346 N 
ATOM    157  H87 TYR d   1      37.567  -7.099  76.922  0.00  0.00     0.163 HD
BRANCH 156 158
ATOM    158  CA  TYR d   1      36.478  -7.500  78.715  0.00  0.00     0.093 C 
ATOM    159  H88 TYR d   1      35.388  -7.643  78.669  0.00  0.00     0.088 H 
BRANCH 158 160
ATOM    160  C   TYR d   1      36.810  -6.784  80.017  0.00  0.00     0.241 C 
ATOM    161  O   TYR d   1      36.129  -6.965  81.023  0.00  0.00    -0.271 OA
ATOM    162  N   ILE d   1      37.857  -5.967  79.993  0.00  0.00    -0.346 N 
ATOM    163  H96 ILE d   1      38.372  -5.858  79.142  0.00  0.00     0.163 HD
BRANCH 162 164
ATOM    164  CA  ILE d   1      38.274  -5.225  81.177  0.00  0.00     0.092 C 
ATOM    165  H97 ILE d   1      38.381  -5.947  82.000  0.00  0.00     0.088 H 
BRANCH 164 166
ATOM    166  C   ILE d   1      37.263  -4.168  81.603  0.00  0.00     0.241 C 
ATOM    167  O   ILE d   1      36.739  -4.217  82.716  0.00  0.00    -0.271 OA
ATOM    168  N   LYS d   1      37.000  -3.209  80.723  0.00  0.00    -0.346 N 
ATOM    169 7H10 LYS d   1      37.455  -3.220  79.833  0.00  0.00     0.163 HD
BRANCH 168 170
ATOM    170  CA  LYS d   1      36.059  -2.142  81.034  0.00  0.00     0.089 C 
ATOM    171 8H10 LYS d   1      36.347  -1.699  81.999  0.00  0.00     0.087 H 
BRANCH 170 172
ATOM    172  C   LYS d   1      34.635  -2.674  81.157  0.00  0.00     0.241 C 
ATOM    173  O   LYS d   1      33.729  -1.955  81.577  0.00  0.00    -0.271 OA
ATOM    174  N   LYS d   1      34.446  -3.937  80.791  0.00  0.00    -0.346 N 
ATOM    175 0H12 LYS d   1      35.222  -4.469  80.453  0.00  0.00     0.163 HD
BRANCH 174 176
ATOM    176  CA  LYS d   1      33.134  -4.565  80.871  0.00  0.00     0.089 C 
ATOM    177 1H12 LYS d   1      32.365  -3.786  80.762  0.00  0.00     0.087 H 
BRANCH 176 178
ATOM    178  C   LYS d   1      32.950  -5.250  82.221  0.00  0.00     0.241 C 
ATOM    179  O   LYS d   1      31.825  -5.432  82.684  0.00  0.00    -0.271 OA
ATOM    180  N   LYS d   1      34.059  -5.624  82.850  0.00  0.00    -0.346 N 
ATOM    181 3H13 LYS d   1      34.947  -5.442  82.427  0.00  0.00     0.163 HD
BRANCH 180 182
ATOM    182  CA  LYS d   1      34.009  -6.294  84.144  0.00  0.00     0.089 C 
ATOM    183 4H13 LYS d   1      33.065  -6.856  84.198  0.00  0.00     0.087 H 
BRANCH 182 184
ATOM    184  C   LYS d   1      34.035  -5.310  85.309  0.00  0.00     0.241 C 
ATOM    185  O   LYS d   1      33.248  -5.433  86.247  0.00  0.00    -0.271 OA
ATOM    186  N   LYS d   1      34.939  -4.338  85.253  0.00  0.00    -0.345 N 
ATOM    187 6H14 LYS d   1      35.563  -4.294  84.473  0.00  0.00     0.163 HD
BRANCH 186 188
ATOM    188  CA  LYS d   1      35.040  -3.333  86.308  0.00  0.00     0.096 C 
ATOM    189 7H14 LYS d   1      34.037  -3.179  86.732  0.00  0.00     0.089 H 
BRANCH 188 190
ATOM    190  C   LYS d   1      35.541  -2.001  85.763  0.00  0.00     0.196 C 
ATOM    191  O   LYS d   1      35.807  -1.926  84.544  0.00  0.00    -0.646 OA
ATOM    192  OXT LYS d   1      35.660  -1.048  86.563  0.00  0.00    -0.646 OA
ENDBRANCH 188 190
BRANCH 188 193
ATOM    193  CB  LYS d   1      35.973  -3.812  87.427  0.00  0.00    -0.037 C 
ATOM    194 8H14 LYS d   1      36.103  -2.987  88.143  0.00  0.00     0.036 H 
ATOM    195 9H14 LYS d   1      36.945  -4.066  86.980  0.00  0.00     0.036 H 
BRANCH 193 196
ATOM    196  CG  LYS d   1      35.468  -5.027  88.187  0.00  0.00    -0.061 C 
ATOM    197 0H15 LYS d   1      35.411  -5.881  87.496  0.00  0.00     0.033 H 
ATOM    198 1H15 LYS d   1      34.466  -4.808  88.584  0.00  0.00     0.033 H 
BRANCH 196 199
ATOM    199  CD  LYS d   1      36.387  -5.389  89.343  0.00  0.00    -0.043 C 
ATOM    200 2H15 LYS d   1      36.522  -4.507  89.987  0.00  0.00     0.035 H 
ATOM    201 3H15 LYS d   1      37.362  -5.704  88.944  0.00  0.00     0.035 H 
BRANCH 199 202
ATOM    202  CE  LYS d   1      35.795  -6.521  90.165  0.00  0.00     0.080 C 
ATOM    203 4H15 LYS d   1      35.701  -7.411  89.525  0.00  0.00     0.075 H 
ATOM    204 5H15 LYS d   1      34.799  -6.217  90.520  0.00  0.00     0.075 H 
BRANCH 202 205
ATOM    205  NZ  LYS d   1      36.637  -6.865  91.341  0.00  0.00    -0.079 N 
ATOM    206 6H15 LYS d   1      36.206  -7.618  91.854  0.00  0.00     0.274 HD
ATOM    207 7H15 LYS d   1      36.725  -6.058  91.939  0.00  0.00     0.274 HD
ATOM    208 8H15 LYS d   1      37.551  -7.152  91.028  0.00  0.00     0.274 HD
ENDBRANCH 202 205
ENDBRANCH 199 202
ENDBRANCH 196 199
ENDBRANCH 193 196
ENDBRANCH 188 193
ENDBRANCH 186 188
ENDBRANCH 182 184
BRANCH 182 209
ATOM    209  CB  LYS d   1      35.168  -7.288  84.265  0.00  0.00    -0.038 C 
ATOM    210 5H13 LYS d   1      35.137  -7.741  85.267  0.00  0.00     0.036 H 
ATOM    211 6H13 LYS d   1      36.113  -6.740  84.139  0.00  0.00     0.036 H 
BRANCH 209 212
ATOM    212  CG  LYS d   1      35.113  -8.402  83.228  0.00  0.00    -0.061 C 
ATOM    213 7H13 LYS d   1      35.208  -7.957  82.226  0.00  0.00     0.033 H 
ATOM    214 8H13 LYS d   1      34.143  -8.915  83.311  0.00  0.00     0.033 H 
BRANCH 212 215
ATOM    215  CD  LYS d   1      36.222  -9.423  83.416  0.00  0.00    -0.043 C 
ATOM    216 9H13 LYS d   1      37.191  -8.902  83.426  0.00  0.00     0.035 H 
ATOM    217 0H14 LYS d   1      36.198 -10.136  82.579  0.00  0.00     0.035 H 
BRANCH 215 218
ATOM    218  CE  LYS d   1      36.056 -10.184  84.720  0.00  0.00     0.080 C 
ATOM    219 1H14 LYS d   1      35.031 -10.579  84.773  0.00  0.00     0.075 H 
ATOM    220 2H14 LYS d   1      36.227  -9.493  85.559  0.00  0.00     0.075 H 
BRANCH 218 221
ATOM    221  NZ  LYS d   1      37.014 -11.317  84.827  0.00  0.00    -0.079 N 
ATOM    222 3H14 LYS d   1      36.872 -11.795  85.703  0.00  0.00     0.274 HD
ATOM    223 4H14 LYS d   1      37.957 -10.964  84.785  0.00  0.00     0.274 HD
ATOM    224 5H14 LYS d   1      36.861 -11.959  84.065  0.00  0.00     0.274 HD
ENDBRANCH 218 221
ENDBRANCH 215 218
ENDBRANCH 212 215
ENDBRANCH 209 212
ENDBRANCH 182 209
ENDBRANCH 180 182
ENDBRANCH 176 178
BRANCH 176 225
ATOM    225  CB  LYS d   1      32.962  -5.590  79.745  0.00  0.00    -0.038 C 
ATOM    226 2H12 LYS d   1      33.807  -6.293  79.786  0.00  0.00     0.036 H 
ATOM    227 3H12 LYS d   1      32.977  -5.054  78.784  0.00  0.00     0.036 H 
BRANCH 225 228
ATOM    228  CG  LYS d   1      31.667  -6.391  79.827  0.00  0.00    -0.061 C 
ATOM    229 4H12 LYS d   1      31.634  -6.917  80.793  0.00  0.00     0.033 H 
ATOM    230 5H12 LYS d   1      31.650  -7.126  79.008  0.00  0.00     0.033 H 
BRANCH 228 231
ATOM    231  CD  LYS d   1      30.440  -5.493  79.711  0.00  0.00    -0.043 C 
ATOM    232 6H12 LYS d   1      30.578  -4.614  80.358  0.00  0.00     0.035 H 
ATOM    233 7H12 LYS d   1      29.554  -6.055  80.041  0.00  0.00     0.035 H 
BRANCH 231 234
ATOM    234  CE  LYS d   1      30.222  -5.023  78.281  0.00  0.00     0.080 C 
ATOM    235 8H12 LYS d   1      31.151  -4.566  77.908  0.00  0.00     0.075 H 
ATOM    236 9H12 LYS d   1      29.415  -4.276  78.268  0.00  0.00     0.075 H 
BRANCH 234 237
ATOM    237  NZ  LYS d   1      29.848  -6.158  77.392  0.00  0.00    -0.079 N 
ATOM    238 0H13 LYS d   1      29.710  -5.818  76.453  0.00  0.00     0.274 HD
ATOM    239 1H13 LYS d   1      28.995  -6.579  77.725  0.00  0.00     0.274 HD
ATOM    240 2H13 LYS d   1      30.586  -6.845  77.396  0.00  0.00     0.274 HD
ENDBRANCH 234 237
ENDBRANCH 231 234
ENDBRANCH 228 231
ENDBRANCH 225 228
ENDBRANCH 176 225
ENDBRANCH 174 176
ENDBRANCH 170 172
BRANCH 170 241
ATOM    241  CB  LYS d   1      36.120  -1.052  79.961  0.00  0.00    -0.038 C 
ATOM    242 9H10 LYS d   1      37.161  -0.705  79.884  0.00  0.00     0.036 H 
ATOM    243 0H11 LYS d   1      35.478  -0.218  80.282  0.00  0.00     0.036 H 
BRANCH 241 244
ATOM    244  CG  LYS d   1      35.666  -1.495  78.584  0.00  0.00    -0.061 C 
ATOM    245 1H11 LYS d   1      34.594  -1.738  78.620  0.00  0.00     0.033 H 
ATOM    246 2H11 LYS d   1      36.235  -2.389  78.288  0.00  0.00     0.033 H 
BRANCH 244 247
ATOM    247  CD  LYS d   1      35.893  -0.397  77.553  0.00  0.00    -0.043 C 
ATOM    248 3H11 LYS d   1      35.532  -0.747  76.575  0.00  0.00     0.035 H 
ATOM    249 4H11 LYS d   1      36.970  -0.184  77.491  0.00  0.00     0.035 H 
BRANCH 247 250
ATOM    250  CE  LYS d   1      35.157   0.885  77.920  0.00  0.00     0.080 C 
ATOM    251 5H11 LYS d   1      35.490   1.214  78.915  0.00  0.00     0.075 H 
ATOM    252 6H11 LYS d   1      34.076   0.681  77.944  0.00  0.00     0.075 H 
BRANCH 250 253
ATOM    253  NZ  LYS d   1      35.420   1.975  76.938  0.00  0.00    -0.079 N 
ATOM    254 7H11 LYS d   1      34.917   2.804  77.214  0.00  0.00     0.274 HD
ATOM    255 8H11 LYS d   1      35.112   1.685  76.023  0.00  0.00     0.274 HD
ATOM    256 9H11 LYS d   1      36.408   2.174  76.913  0.00  0.00     0.274 HD
ENDBRANCH 250 253
ENDBRANCH 247 250
ENDBRANCH 244 247
ENDBRANCH 241 244
ENDBRANCH 170 241
ENDBRANCH 168 170
ENDBRANCH 164 166
BRANCH 164 257
ATOM    257  CB  ILE d   1      39.635  -4.538  80.951  0.00  0.00    -0.030 C 
ATOM    258  H98 ILE d   1      39.664  -4.142  79.925  0.00  0.00     0.043 H 
BRANCH 257 259
ATOM    259  CG1 ILE d   1      40.756  -5.561  81.109  0.00  0.00    -0.063 C 
ATOM    260  H99 ILE d   1      40.715  -6.259  80.260  0.00  0.00     0.033 H 
ATOM    261 0H10 ILE d   1      40.596  -6.114  82.046  0.00  0.00     0.033 H 
BRANCH 259 262
ATOM    262  CD1 ILE d   1      42.118  -4.939  81.149  0.00  0.00    -0.076 C 
ATOM    263 4H10 ILE d   1      42.877  -5.726  81.264  0.00  0.00     0.027 H 
ATOM    264 5H10 ILE d   1      42.179  -4.244  81.999  0.00  0.00     0.027 H 
ATOM    265 6H10 ILE d   1      42.298  -4.390  80.213  0.00  0.00     0.027 H 
ENDBRANCH 259 262
ENDBRANCH 257 259
BRANCH 257 266
ATOM    266  CG2 ILE d   1      39.812  -3.377  81.920  0.00  0.00    -0.071 C 
ATOM    267 1H10 ILE d   1      38.991  -2.657  81.784  0.00  0.00     0.028 H 
ATOM    268 2H10 ILE d   1      40.773  -2.879  81.724  0.00  0.00     0.028 H 
ATOM    269 3H10 ILE d   1      39.799  -3.756  82.953  0.00  0.00     0.028 H 
ENDBRANCH 257 266
ENDBRANCH 164 257
ENDBRANCH 162 164
ENDBRANCH 158 160
BRANCH 158 270
ATOM    270  CB  TYR d   1      37.149  -8.875  78.699  0.00  0.00    -0.014 C 
ATOM    271  H89 TYR d   1      37.189  -9.253  79.731  0.00  0.00     0.043 H 
ATOM    272  H90 TYR d   1      38.172  -8.757  78.312  0.00  0.00     0.043 H 
BRANCH 270 273
ATOM    273  CG  TYR d   1      36.433  -9.897  77.846  0.00  0.00    -0.056 A 
ATOM    274  CD1 TYR d   1      35.153 -10.339  78.183  0.00  0.00    -0.074 A 
ATOM    275  CE1 TYR d   1      34.492 -11.291  77.408  0.00  0.00    -0.051 A 
ATOM    276  H91 TYR d   1      34.664  -9.935  79.062  0.00  0.00     0.084 H 
ATOM    277  CZ  TYR d   1      35.113 -11.809  76.282  0.00  0.00     0.065 A 
ATOM    278  H93 TYR d   1      33.498 -11.624  77.684  0.00  0.00     0.087 H 
ATOM    279  CE2 TYR d   1      36.383 -11.384  75.925  0.00  0.00    -0.051 A 
ATOM    280  CD2 TYR d   1      37.036 -10.432  76.708  0.00  0.00    -0.074 A 
ATOM    281  H94 TYR d   1      36.866 -11.789  75.043  0.00  0.00     0.087 H 
ATOM    282  H92 TYR d   1      38.030 -10.102  76.427  0.00  0.00     0.084 H 
BRANCH 277 283
ATOM    283  OH  TYR d   1      34.468 -12.759  75.521  0.00  0.00    -0.361 OA
ATOM    284  H95 TYR d   1      33.614 -12.938  75.897  0.00  0.00     0.217 HD
ENDBRANCH 277 283
ENDBRANCH 270 273
ENDBRANCH 158 270
ENDBRANCH 156 158
ENDBRANCH 152 154
BRANCH 152 285
ATOM    285  CB  TRP d   1      36.303  -5.507  74.801  0.00  0.00    -0.012 C 
ATOM    286  H79 TRP d   1      36.547  -6.578  74.860  0.00  0.00     0.044 H 
ATOM    287  H80 TRP d   1      36.784  -5.070  73.914  0.00  0.00     0.044 H 
BRANCH 285 288
ATOM    288  CG  TRP d   1      34.826  -5.368  74.653  0.00  0.00    -0.028 A 
ATOM    289  CD1 TRP d   1      34.148  -4.288  74.167  0.00  0.00    -0.015 A 
ATOM    290  NE1 TRP d   1      32.794  -4.524  74.204  0.00  0.00    -0.365 N 
ATOM    291  H81 TRP d   1      34.612  -3.373  73.803  0.00  0.00     0.112 H 
ATOM    292  CE2 TRP d   1      32.575  -5.773  74.721  0.00  0.00     0.042 A 
ATOM    293  H82 TRP d   1      32.063  -3.868  73.893  0.00  0.00     0.165 HD
ATOM    294  CD2 TRP d   1      33.836  -6.336  75.017  0.00  0.00    -0.002 A 
ATOM    295  CZ2 TRP d   1      31.376  -6.457  74.954  0.00  0.00    -0.056 A 
ATOM    296  CE3 TRP d   1      33.892  -7.625  75.564  0.00  0.00    -0.070 A 
ATOM    297  CZ3 TRP d   1      32.697  -8.305  75.797  0.00  0.00    -0.082 A 
ATOM    298  H83 TRP d   1      34.845  -8.084  75.801  0.00  0.00     0.084 H 
ATOM    299  CH2 TRP d   1      31.457  -7.718  75.491  0.00  0.00    -0.081 A 
ATOM    300  H85 TRP d   1      32.725  -9.302  76.221  0.00  0.00     0.083 H 
ATOM    301  H86 TRP d   1      30.546  -8.273  75.683  0.00  0.00     0.083 H 
ATOM    302  H84 TRP d   1      30.418  -6.007  74.719  0.00  0.00     0.086 H 
ENDBRANCH 285 288
ENDBRANCH 152 285
ENDBRANCH 150 152
ENDBRANCH   1 148
BRANCH   1 303
ATOM    303  CB  LEU d   1      41.027  -3.255  75.889  0.00  0.00    -0.035 C 
ATOM    304  H68 LEU d   1      40.574  -2.326  76.266  0.00  0.00     0.037 H 
ATOM    305  H69 LEU d   1      40.652  -3.461  74.876  0.00  0.00     0.037 H 
BRANCH 303 306
ATOM    306  CG  LEU d   1      42.536  -3.024  75.785  0.00  0.00    -0.059 C 
ATOM    307  H70 LEU d   1      43.013  -3.931  75.385  0.00  0.00     0.038 H 
BRANCH 306 308
ATOM    308  CD1 LEU d   1      42.819  -1.857  74.840  0.00  0.00    -0.073 C 
ATOM    309  H71 LEU d   1      43.905  -1.697  74.770  0.00  0.00     0.028 H 
ATOM    310  H72 LEU d   1      42.338  -0.947  75.227  0.00  0.00     0.028 H 
ATOM    311  H73 LEU d   1      42.417  -2.087  73.842  0.00  0.00     0.028 H 
ENDBRANCH 306 308
BRANCH 306 312
ATOM    312  CD2 LEU d   1      43.100  -2.735  77.173  0.00  0.00    -0.073 C 
ATOM    313  H74 LEU d   1      42.888  -3.584  77.839  0.00  0.00     0.028 H 
ATOM    314  H75 LEU d   1      42.631  -1.826  77.577  0.00  0.00     0.028 H 
ATOM    315  H76 LEU d   1      44.188  -2.587  77.103  0.00  0.00     0.028 H 
ENDBRANCH 306 312
ENDBRANCH 303 306
ENDBRANCH   1 303
TORSDOF 84
