REMARK WARNING: 32 MAX_TORS EXCEEDED!!!
REMARK  57 active torsions:
REMARK  status: ('A' for Active; 'I' for Inactive)
REMARK    1  A    between atoms: N_1  and  CA_2 
REMARK    2  A    between atoms: CA_2  and  C_3 
REMARK    3  A    between atoms: CA_2  and  CB_5 
REMARK       I    between atoms: C_3  and  N_9 
REMARK    4  A    between atoms: CB_5  and  CG_6 
REMARK       I    between atoms: CG_6  and  ND2_8 
REMARK    5  A    between atoms: N_9  and  CA_10 
REMARK    6  A    between atoms: CA_10  and  C_11 
REMARK    7  A    between atoms: CA_10  and  CB_13 
REMARK       I    between atoms: C_11  and  N_23 
REMARK    8  A    between atoms: CB_13  and  CG_14 
REMARK    9  A    between atoms: N_23  and  CA_24 
REMARK   10  A    between atoms: CA_24  and  C_25 
REMARK   11  A    between atoms: CA_24  and  CB_27 
REMARK       I    between atoms: C_25  and  N_34 
REMARK   12  A    between atoms: CB_27  and  CG_28 
REMARK   13  A    between atoms: N_34  and  CA_35 
REMARK   14  A    between atoms: CA_35  and  C_36 
REMARK   15  A    between atoms: CA_35  and  CB_38 
REMARK       I    between atoms: C_36  and  N_42 
REMARK   16  A    between atoms: CB_38  and  CG_39 
REMARK   17  A    between atoms: N_42  and  CA_43 
REMARK   18  A    between atoms: CA_43  and  C_44 
REMARK   19  A    between atoms: CA_43  and  CB_46 
REMARK       I    between atoms: C_44  and  N_50 
REMARK   20  A    between atoms: CB_46  and  CG1_47 
REMARK   21  A    between atoms: CB_46  and  CG2_48 
REMARK   22  A    between atoms: CG1_47  and  CD1_49 
REMARK   23  A    between atoms: N_50  and  CA_51 
REMARK   24  A    between atoms: CA_51  and  C_52 
REMARK   25  A    between atoms: CA_51  and  CB_54 
REMARK       I    between atoms: C_52  and  N_57 
REMARK   26  A    between atoms: CB_54  and  OG1_55 
REMARK   27  A    between atoms: CB_54  and  CG2_56 
REMARK   28  A    between atoms: N_57  and  CA_58 
REMARK   29  A    between atoms: CA_58  and  C_59 
REMARK   30  A    between atoms: CA_58  and  CB_61 
REMARK       I    between atoms: C_59  and  N_65 
REMARK   31  A    between atoms: CB_61  and  CG_62 
REMARK       I    between atoms: CG_62  and  ND2_64 
REMARK   32  A    between atoms: N_65  and  CA_66 
REMARK   33  A    between atoms: CA_66  and  C_67 
REMARK   34  A    between atoms: CA_66  and  CB1_69 
REMARK   35  A    between atoms: CA_66  and  CB2_70 
REMARK       I    between atoms: C_67  and  N_71 
REMARK   36  A    between atoms: N_71  and  CA_72 
REMARK   37  A    between atoms: CA_72  and  C_73 
REMARK   38  A    between atoms: CA_72  and  CB_75 
REMARK       I    between atoms: C_73  and  N_79 
REMARK   39  A    between atoms: CB_75  and  CG_76 
REMARK   40  A    between atoms: CG_76  and  CD1_77 
REMARK   41  A    between atoms: CG_76  and  CD2_78 
REMARK   42  A    between atoms: N_79  and  CA_80 
REMARK   43  A    between atoms: CA_80  and  C_81 
REMARK   44  A    between atoms: CA_80  and  CB_83 
REMARK       I    between atoms: C_81  and  N_93 
REMARK   45  A    between atoms: CB_83  and  CG_84 
REMARK   46  A    between atoms: N_93  and  CA_94 
REMARK   47  A    between atoms: CA_94  and  C_95 
REMARK   48  A    between atoms: CA_94  and  CB_97 
REMARK       I    between atoms: C_95  and  N_104 
REMARK   49  A    between atoms: CB_97  and  CG_98 
REMARK   50  A    between atoms: CG_98  and  CD_99 
REMARK   51  A    between atoms: CD_99  and  NE_100 
REMARK       I    between atoms: NE_100  and  CZ_101 
REMARK       I    between atoms: CZ_101  and  NH1_102 
REMARK       I    between atoms: CZ_101  and  NH2_103 
REMARK   52  A    between atoms: N_104  and  CA_105 
REMARK   53  A    between atoms: CA_105  and  C_106 
REMARK   54  A    between atoms: CA_105  and  CB_108 
REMARK   55  A    between atoms: CB_108  and  CG_109 
REMARK   56  A    between atoms: CG_109  and  CD_110 
REMARK   57  A    between atoms: CD_110  and  NE_111 
REMARK       I    between atoms: NE_111  and  CZ_112 
REMARK       I    between atoms: CZ_112  and  NH1_113 
ROOT
ATOM      1  CA  ASN d   1      29.439  25.019  73.658  0.00  0.00     0.097 C 
ATOM      2  H51 ASN d   1      29.848  24.114  74.130  0.00  0.00     0.088 H 
ENDROOT
BRANCH   1   3
ATOM      3  N   ASN d   1      27.993  24.933  73.653  0.00  0.00    -0.345 N 
ATOM      4  C   THR d   1      27.351  24.577  74.756  0.00  0.00     0.243 C 
ATOM      5  O   THR d   1      27.931  24.307  75.805  0.00  0.00    -0.271 OA
ATOM      6  H50 ASN d   1      27.481  25.142  72.820  0.00  0.00     0.163 HD
BRANCH   4   7
ATOM      7  CA  THR d   1      25.843  24.533  74.674  0.00  0.00     0.113 C 
ATOM      8  H44 THR d   1      25.443  24.932  75.618  0.00  0.00     0.091 H 
BRANCH   7   9
ATOM      9  N   THR d   1      25.340  25.377  73.597  0.00  0.00    -0.344 N 
ATOM     10  C   ILE d   1      25.479  26.701  73.668  0.00  0.00     0.241 C 
ATOM     11  O   ILE d   1      26.043  27.262  74.612  0.00  0.00    -0.271 OA
ATOM     12  H43 THR d   1      24.891  24.963  72.805  0.00  0.00     0.163 HD
BRANCH  10  13
ATOM     13  CA  ILE d   1      24.910  27.539  72.531  0.00  0.00     0.092 C 
ATOM     14  H33 ILE d   1      25.437  28.504  72.572  0.00  0.00     0.088 H 
BRANCH  13  15
ATOM     15  N   ILE d   1      25.091  27.054  71.171  0.00  0.00    -0.346 N 
ATOM     16  C   ASP d   1      26.308  26.815  70.702  0.00  0.00     0.241 C 
ATOM     17  O   ASP d   1      27.320  26.941  71.398  0.00  0.00    -0.271 OA
ATOM     18  H32 ILE d   1      24.294  26.900  70.587  0.00  0.00     0.163 HD
BRANCH  16  19
ATOM     19  CA  ASP d   1      26.416  26.387  69.238  0.00  0.00     0.098 C 
ATOM     20  H29 ASP d   1      27.128  25.552  69.160  0.00  0.00     0.088 H 
BRANCH  19  21
ATOM     21  N   ASP d   1      25.131  25.942  68.681  0.00  0.00    -0.345 N 
ATOM     22  C   PHE d   1      24.818  24.648  68.601  0.00  0.00     0.241 C 
ATOM     23  O   PHE d   1      25.587  23.752  68.955  0.00  0.00    -0.271 OA
ATOM     24  H28 ASP d   1      24.477  26.624  68.355  0.00  0.00     0.163 HD
BRANCH  22  25
ATOM     25  CA  PHE d   1      23.437  24.293  68.044  0.00  0.00     0.093 C 
ATOM     26  H20 PHE d   1      22.952  23.666  68.807  0.00  0.00     0.088 H 
BRANCH  25  27
ATOM     27  N   PHE d   1      22.522  25.409  67.794  0.00  0.00    -0.346 N 
ATOM     28  C   TRP d   1      22.099  26.204  68.773  0.00  0.00     0.241 C 
ATOM     29  O   TRP d   1      22.464  26.084  69.947  0.00  0.00    -0.271 OA
ATOM     30  H19 PHE d   1      22.206  25.578  66.860  0.00  0.00     0.163 HD
BRANCH  28  31
ATOM     31  CA  TRP d   1      21.133  27.312  68.360  0.00  0.00     0.093 C 
ATOM     32  H10 TRP d   1      21.090  28.076  69.150  0.00  0.00     0.088 H 
BRANCH  31  33
ATOM     33  N   TRP d   1      21.606  27.917  67.123  0.00  0.00    -0.346 N 
ATOM     34  C   ASN d   1      22.819  28.437  67.018  0.00  0.00     0.249 C 
ATOM     35  O   ASN d   1      23.610  28.476  67.950  0.00  0.00    -0.271 OA
ATOM     36  H9  TRP d   1      20.997  27.940  66.330  0.00  0.00     0.163 HD
BRANCH  34  37
ATOM     37  CA  ASN d   1      23.189  29.023  65.659  0.00  0.00     0.183 C 
ATOM     38  H4  ASN d   1      22.306  29.007  65.003  0.00  0.00     0.099 H 
BRANCH  37  39
ATOM     39  N   ASN d   1      23.644  30.440  65.836  0.00  0.00    -0.066 N 
ATOM     40  H1  ASN d   1      23.889  30.829  64.939  0.00  0.00     0.275 HD
ATOM     41  H2  ASN d   1      24.449  30.461  66.442  0.00  0.00     0.275 HD
ATOM     42  H3  ASN d   1      22.900  30.983  66.246  0.00  0.00     0.275 HD
ENDBRANCH  37  39
BRANCH  37  43
ATOM     43  CB  ASN d   1      24.305  28.178  65.024  0.00  0.00     0.044 C 
ATOM     44  H5  ASN d   1      25.139  28.104  65.737  0.00  0.00     0.051 H 
ATOM     45  H6  ASN d   1      24.649  28.681  64.109  0.00  0.00     0.051 H 
BRANCH  43  46
ATOM     46  CG  ASN d   1      23.844  26.760  64.660  0.00  0.00     0.217 C 
ATOM     47  OD1 ASN d   1      22.808  26.286  65.128  0.00  0.00    -0.274 OA
ATOM     48  ND2 ASN d   1      24.626  26.081  63.832  0.00  0.00    -0.370 N 
ATOM     49  H7  ASN d   1      24.377  25.152  63.559  0.00  0.00     0.159 HD
ATOM     50  H8  ASN d   1      25.464  26.498  63.481  0.00  0.00     0.159 HD
ENDBRANCH  43  46
ENDBRANCH  37  43
ENDBRANCH  34  37
ENDBRANCH  31  33
BRANCH  31  51
ATOM     51  CB  TRP d   1      19.731  26.720  68.147  0.00  0.00    -0.012 C 
ATOM     52  H11 TRP d   1      19.810  25.907  67.410  0.00  0.00     0.044 H 
ATOM     53  H12 TRP d   1      19.080  27.513  67.750  0.00  0.00     0.044 H 
BRANCH  51  54
ATOM     54  CG  TRP d   1      19.087  26.163  69.398  0.00  0.00    -0.028 A 
ATOM     55  CD1 TRP d   1      18.481  26.875  70.400  0.00  0.00    -0.015 A 
ATOM     56  NE1 TRP d   1      17.987  26.017  71.357  0.00  0.00    -0.365 N 
ATOM     57  H13 TRP d   1      18.402  27.961  70.434  0.00  0.00     0.112 H 
ATOM     58  CE2 TRP d   1      18.272  24.727  70.994  0.00  0.00     0.042 A 
ATOM     59  H14 TRP d   1      17.483  26.300  72.210  0.00  0.00     0.165 HD
ATOM     60  CD2 TRP d   1      18.967  24.777  69.763  0.00  0.00    -0.002 A 
ATOM     61  CZ2 TRP d   1      17.977  23.520  71.643  0.00  0.00    -0.056 A 
ATOM     62  CE3 TRP d   1      19.379  23.574  69.168  0.00  0.00    -0.070 A 
ATOM     63  CZ3 TRP d   1      19.085  22.371  69.813  0.00  0.00    -0.082 A 
ATOM     64  H15 TRP d   1      19.915  23.579  68.226  0.00  0.00     0.084 H 
ATOM     65  CH2 TRP d   1      18.390  22.357  71.039  0.00  0.00    -0.081 A 
ATOM     66  H17 TRP d   1      19.396  21.434  69.364  0.00  0.00     0.083 H 
ATOM     67  H18 TRP d   1      18.177  21.407  71.516  0.00  0.00     0.083 H 
ATOM     68  H16 TRP d   1      17.443  23.505  72.586  0.00  0.00     0.086 H 
ENDBRANCH  51  54
ENDBRANCH  31  51
ENDBRANCH  28  31
ENDBRANCH  25  27
BRANCH  25  69
ATOM     69  CB  PHE d   1      23.586  23.442  66.779  0.00  0.00    -0.014 C 
ATOM     70  H21 PHE d   1      24.380  22.700  66.948  0.00  0.00     0.043 H 
ATOM     71  H22 PHE d   1      23.872  24.101  65.946  0.00  0.00     0.043 H 
BRANCH  69  72
ATOM     72  CG  PHE d   1      22.325  22.716  66.403  0.00  0.00    -0.056 A 
ATOM     73  CD1 PHE d   1      21.416  23.284  65.517  0.00  0.00    -0.077 A 
ATOM     74  CE1 PHE d   1      20.204  22.664  65.249  0.00  0.00    -0.082 A 
ATOM     75  H23 PHE d   1      21.657  24.222  65.030  0.00  0.00     0.084 H 
ATOM     76  CZ  PHE d   1      19.883  21.459  65.868  0.00  0.00    -0.083 A 
ATOM     77  H25 PHE d   1      19.506  23.119  64.556  0.00  0.00     0.083 H 
ATOM     78  CE2 PHE d   1      20.785  20.877  66.753  0.00  0.00    -0.082 A 
ATOM     79  H27 PHE d   1      18.935  20.976  65.661  0.00  0.00     0.083 H 
ATOM     80  CD2 PHE d   1      22.000  21.506  67.013  0.00  0.00    -0.077 A 
ATOM     81  H26 PHE d   1      20.543  19.938  67.238  0.00  0.00     0.083 H 
ATOM     82  H24 PHE d   1      22.703  21.048  67.700  0.00  0.00     0.084 H 
ENDBRANCH  69  72
ENDBRANCH  25  69
ENDBRANCH  22  25
ENDBRANCH  19  21
BRANCH  19  83
ATOM     83  CB  ASP d   1      26.969  27.595  68.477  0.00  0.00     0.043 C 
ATOM     84  H30 ASP d   1      27.813  28.011  69.047  0.00  0.00     0.052 H 
ATOM     85  H31 ASP d   1      26.174  28.351  68.394  0.00  0.00     0.052 H 
BRANCH  83  86
ATOM     86  CG  ASP d   1      27.448  27.252  67.095  0.00  0.00     0.175 C 
ATOM     87  OD1 ASP d   1      27.959  26.130  66.894  0.00  0.00    -0.648 OA
ATOM     88  OD2 ASP d   1      27.332  28.121  66.212  0.00  0.00    -0.648 OA
ENDBRANCH  83  86
ENDBRANCH  19  83
ENDBRANCH  16  19
ENDBRANCH  13  15
BRANCH  13  89
ATOM     89  CB  ILE d   1      23.426  27.812  72.828  0.00  0.00    -0.030 C 
ATOM     90  H34 ILE d   1      22.868  26.865  72.779  0.00  0.00     0.043 H 
BRANCH  89  91
ATOM     91  CG1 ILE d   1      22.862  28.778  71.781  0.00  0.00    -0.063 C 
ATOM     92  H35 ILE d   1      22.966  28.315  70.788  0.00  0.00     0.033 H 
ATOM     93  H36 ILE d   1      23.447  29.709  71.815  0.00  0.00     0.033 H 
BRANCH  91  94
ATOM     94  CD1 ILE d   1      21.420  29.117  71.996  0.00  0.00    -0.076 C 
ATOM     95  H40 ILE d   1      21.085  29.811  71.211  0.00  0.00     0.027 H 
ATOM     96  H41 ILE d   1      21.298  29.591  72.981  0.00  0.00     0.027 H 
ATOM     97  H42 ILE d   1      20.817  28.198  71.954  0.00  0.00     0.027 H 
ENDBRANCH  91  94
ENDBRANCH  89  91
BRANCH  89  98
ATOM     98  CG2 ILE d   1      23.278  28.411  74.247  0.00  0.00    -0.071 C 
ATOM     99  H37 ILE d   1      23.687  27.707  74.987  0.00  0.00     0.028 H 
ATOM    100  H38 ILE d   1      22.214  28.590  74.460  0.00  0.00     0.028 H 
ATOM    101  H39 ILE d   1      23.828  29.362  74.303  0.00  0.00     0.028 H 
ENDBRANCH  89  98
ENDBRANCH  13  89
ENDBRANCH  10  13
ENDBRANCH   7   9
BRANCH   7 102
ATOM    102  CB  THR d   1      25.363  23.056  74.544  0.00  0.00     0.060 C 
ATOM    103  H45 THR d   1      25.913  22.437  75.268  0.00  0.00     0.086 H 
BRANCH 102 104
ATOM    104  OG1 THR d   1      25.621  22.568  73.222  0.00  0.00    -0.393 OA
ATOM    105  H46 THR d   1      25.325  21.668  73.154  0.00  0.00     0.210 HD
ENDBRANCH 102 104
BRANCH 102 106
ATOM    106  CG2 THR d   1      23.878  22.963  74.841  0.00  0.00    -0.050 C 
ATOM    107  H47 THR d   1      23.550  21.917  74.746  0.00  0.00     0.031 H 
ATOM    108  H48 THR d   1      23.321  23.588  74.127  0.00  0.00     0.031 H 
ATOM    109  H49 THR d   1      23.686  23.316  75.865  0.00  0.00     0.031 H 
ENDBRANCH 102 106
ENDBRANCH   7 102
ENDBRANCH   4   7
ENDBRANCH   1   3
BRANCH   1 110
ATOM    110  C   ASN d   1      29.869  26.242  74.469  0.00  0.00     0.241 C 
ATOM    111  O   ASN d   1      30.720  26.145  75.346  0.00  0.00    -0.271 OA
ATOM    112  N   AIB d   1      29.272  27.392  74.169  0.00  0.00    -0.342 N 
ATOM    113  H56 AIB d   1      28.591  27.412  73.437  0.00  0.00     0.163 HD
BRANCH 112 114
ATOM    114  CA  AIB d   1      29.586  28.628  74.883  0.00  0.00     0.106 C 
BRANCH 114 115
ATOM    115  C   AIB d   1      29.313  28.361  76.358  0.00  0.00     0.246 C 
ATOM    116  OXT AIB d   1      30.044  28.811  77.235  0.00  0.00    -0.271 OA
ATOM    117  N   LEU d   1      28.256  27.602  76.615  0.00  0.00    -0.346 N 
ATOM    118  H63 LEU d   1      27.718  27.248  75.850  0.00  0.00     0.163 HD
BRANCH 117 119
ATOM    119  CA  LEU d   1      27.854  27.267  77.972  0.00  0.00     0.089 C 
ATOM    120  H64 LEU d   1      27.771  28.198  78.553  0.00  0.00     0.087 H 
BRANCH 119 121
ATOM    121  C   LEU d   1      28.873  26.361  78.656  0.00  0.00     0.241 C 
ATOM    122  O   LEU d   1      29.161  26.502  79.847  0.00  0.00    -0.271 OA
ATOM    123  N   TRP d   1      29.416  25.429  77.882  0.00  0.00    -0.346 N 
ATOM    124  H74 TRP d   1      29.134  25.376  76.924  0.00  0.00     0.163 HD
BRANCH 123 125
ATOM    125  CA  TRP d   1      30.404  24.483  78.372  0.00  0.00     0.093 C 
ATOM    126  H75 TRP d   1      30.030  24.036  79.305  0.00  0.00     0.088 H 
BRANCH 125 127
ATOM    127  C   TRP d   1      31.742  25.160  78.661  0.00  0.00     0.241 C 
ATOM    128  O   TRP d   1      32.483  24.744  79.552  0.00  0.00    -0.271 OA
ATOM    129  N   ARG d   1      32.054  26.201  77.899  0.00  0.00    -0.346 N 
ATOM    130  H84 ARG d   1      31.417  26.497  77.187  0.00  0.00     0.163 HD
BRANCH 129 131
ATOM    131  CA  ARG d   1      33.308  26.921  78.080  0.00  0.00     0.089 C 
ATOM    132  H85 ARG d   1      34.101  26.181  78.265  0.00  0.00     0.087 H 
BRANCH 131 133
ATOM    133  C   ARG d   1      33.259  27.869  79.267  0.00  0.00     0.241 C 
ATOM    134  O   ARG d   1      34.279  28.424  79.667  0.00  0.00    -0.271 OA
ATOM    135  N   ARG d   1      32.069  28.058  79.824  0.00  0.00    -0.345 N 
ATOM    136  H97 ARG d   1      31.270  27.591  79.446  0.00  0.00     0.163 HD
BRANCH 135 137
ATOM    137  CA  ARG d   1      31.907  28.934  80.977  0.00  0.00     0.096 C 
ATOM    138  H98 ARG d   1      32.488  29.855  80.820  0.00  0.00     0.089 H 
BRANCH 137 139
ATOM    139  C   ARG d   1      32.434  28.205  82.209  0.00  0.00     0.196 C 
ATOM    140  O   ARG d   1      31.637  27.954  83.139  0.00  0.00    -0.646 OA
ATOM    141  OXT ARG d   1      33.643  27.883  82.222  0.00  0.00    -0.646 OA
ENDBRANCH 137 139
BRANCH 137 142
ATOM    142  CB  ARG d   1      30.427  29.303  81.169  0.00  0.00    -0.035 C 
ATOM    143  H99 ARG d   1      30.342  29.936  82.065  0.00  0.00     0.036 H 
ATOM    144 0H10 ARG d   1      29.856  28.375  81.320  0.00  0.00     0.036 H 
BRANCH 142 145
ATOM    145  CG  ARG d   1      29.815  30.057  79.989  0.00  0.00    -0.047 C 
ATOM    146 1H10 ARG d   1      28.734  30.171  80.160  0.00  0.00     0.035 H 
ATOM    147 2H10 ARG d   1      29.982  29.477  79.069  0.00  0.00     0.035 H 
BRANCH 145 148
ATOM    148  CD  ARG d   1      30.438  31.436  79.824  0.00  0.00     0.009 C 
ATOM    149 3H10 ARG d   1      31.533  31.332  79.853  0.00  0.00     0.064 H 
ATOM    150 4H10 ARG d   1      30.107  32.073  80.658  0.00  0.00     0.064 H 
BRANCH 148 151
ATOM    151  NE  ARG d   1      30.064  32.083  78.566  0.00  0.00    -0.227 N 
ATOM    152  CZ  ARG d   1      30.617  31.811  77.385  0.00  0.00     0.665 C 
ATOM    153  NH1 ARG d   1      31.576  30.899  77.291  0.00  0.00    -0.235 N 
ATOM    154  NH2 ARG d   1      30.219  32.460  76.296  0.00  0.00    -0.235 N 
ATOM    155 6H10 ARG d   1      32.001  30.691  76.376  0.00  0.00     0.174 HD
ATOM    156 7H10 ARG d   1      31.895  30.399  78.133  0.00  0.00     0.174 HD
ATOM    157 8H10 ARG d   1      29.475  33.169  76.362  0.00  0.00     0.174 HD
ATOM    158 9H10 ARG d   1      30.654  32.254  75.386  0.00  0.00     0.174 HD
ATOM    159 5H10 ARG d   1      29.323  32.797  78.596  0.00  0.00     0.177 HD
ENDBRANCH 148 151
ENDBRANCH 145 148
ENDBRANCH 142 145
ENDBRANCH 137 142
ENDBRANCH 135 137
ENDBRANCH 131 133
BRANCH 131 160
ATOM    160  CB  ARG d   1      33.659  27.702  76.816  0.00  0.00    -0.036 C 
ATOM    161  H86 ARG d   1      34.549  28.315  77.022  0.00  0.00     0.036 H 
ATOM    162  H87 ARG d   1      32.812  28.358  76.566  0.00  0.00     0.036 H 
BRANCH 160 163
ATOM    163  CG  ARG d   1      33.951  26.823  75.622  0.00  0.00    -0.048 C 
ATOM    164  H88 ARG d   1      33.018  26.353  75.278  0.00  0.00     0.035 H 
ATOM    165  H89 ARG d   1      34.670  26.042  75.912  0.00  0.00     0.035 H 
BRANCH 163 166
ATOM    166  CD  ARG d   1      34.534  27.648  74.506  0.00  0.00     0.009 C 
ATOM    167  H90 ARG d   1      33.748  28.292  74.084  0.00  0.00     0.064 H 
ATOM    168  H91 ARG d   1      34.917  26.977  73.723  0.00  0.00     0.064 H 
BRANCH 166 169
ATOM    169  NE  ARG d   1      35.625  28.483  74.998  0.00  0.00    -0.227 N 
ATOM    170  CZ  ARG d   1      36.350  29.292  74.234  0.00  0.00     0.665 C 
ATOM    171  NH1 ARG d   1      37.322  30.016  74.773  0.00  0.00    -0.235 N 
ATOM    172  NH2 ARG d   1      36.105  29.373  72.932  0.00  0.00    -0.235 N 
ATOM    173  H93 ARG d   1      37.885  30.644  74.182  0.00  0.00     0.174 HD
ATOM    174  H94 ARG d   1      37.514  29.950  75.783  0.00  0.00     0.174 HD
ATOM    175  H95 ARG d   1      35.350  28.811  72.514  0.00  0.00     0.174 HD
ATOM    176  H96 ARG d   1      36.670  29.998  72.340  0.00  0.00     0.174 HD
ATOM    177  H92 ARG d   1      35.847  28.442  76.003  0.00  0.00     0.177 HD
ENDBRANCH 166 169
ENDBRANCH 163 166
ENDBRANCH 160 163
ENDBRANCH 131 160
ENDBRANCH 129 131
ENDBRANCH 125 127
BRANCH 125 178
ATOM    178  CB  TRP d   1      30.596  23.385  77.337  0.00  0.00    -0.012 C 
ATOM    179  H76 TRP d   1      30.729  23.857  76.352  0.00  0.00     0.044 H 
ATOM    180  H77 TRP d   1      29.692  22.759  77.324  0.00  0.00     0.044 H 
BRANCH 178 181
ATOM    181  CG  TRP d   1      31.768  22.509  77.599  0.00  0.00    -0.028 A 
ATOM    182  CD1 TRP d   1      31.848  21.480  78.494  0.00  0.00    -0.015 A 
ATOM    183  NE1 TRP d   1      33.095  20.912  78.451  0.00  0.00    -0.365 N 
ATOM    184  H78 TRP d   1      31.038  21.158  79.147  0.00  0.00     0.112 H 
ATOM    185  CE2 TRP d   1      33.850  21.574  77.517  0.00  0.00     0.042 A 
ATOM    186  H79 TRP d   1      33.413  20.119  79.026  0.00  0.00     0.165 HD
ATOM    187  CD2 TRP d   1      33.042  22.588  76.961  0.00  0.00    -0.002 A 
ATOM    188  CZ2 TRP d   1      35.173  21.367  77.114  0.00  0.00    -0.056 A 
ATOM    189  CE3 TRP d   1      33.581  23.421  75.969  0.00  0.00    -0.070 A 
ATOM    190  CZ3 TRP d   1      34.896  23.216  75.567  0.00  0.00    -0.082 A 
ATOM    191  H80 TRP d   1      32.984  24.209  75.525  0.00  0.00     0.084 H 
ATOM    192  CH2 TRP d   1      35.677  22.196  76.140  0.00  0.00    -0.081 A 
ATOM    193  H82 TRP d   1      35.326  23.851  74.801  0.00  0.00     0.083 H 
ATOM    194  H83 TRP d   1      36.699  22.061  75.806  0.00  0.00     0.083 H 
ATOM    195  H81 TRP d   1      35.778  20.582  77.553  0.00  0.00     0.086 H 
ENDBRANCH 178 181
ENDBRANCH 125 178
ENDBRANCH 123 125
ENDBRANCH 119 121
BRANCH 119 196
ATOM    196  CB  LEU d   1      26.492  26.582  77.936  0.00  0.00    -0.035 C 
ATOM    197  H65 LEU d   1      26.596  25.664  77.339  0.00  0.00     0.037 H 
ATOM    198  H66 LEU d   1      25.788  27.265  77.438  0.00  0.00     0.037 H 
BRANCH 196 199
ATOM    199  CG  LEU d   1      25.886  26.193  79.281  0.00  0.00    -0.059 C 
ATOM    200  H67 LEU d   1      26.554  25.479  79.786  0.00  0.00     0.038 H 
BRANCH 199 201
ATOM    201  CD1 LEU d   1      25.736  27.438  80.170  0.00  0.00    -0.073 C 
ATOM    202  H68 LEU d   1      25.299  27.148  81.137  0.00  0.00     0.028 H 
ATOM    203  H69 LEU d   1      25.078  28.166  79.674  0.00  0.00     0.028 H 
ATOM    204  H70 LEU d   1      26.724  27.891  80.336  0.00  0.00     0.028 H 
ENDBRANCH 199 201
BRANCH 199 205
ATOM    205  CD2 LEU d   1      24.541  25.521  79.033  0.00  0.00    -0.073 C 
ATOM    206  H71 LEU d   1      24.685  24.636  78.395  0.00  0.00     0.028 H 
ATOM    207  H72 LEU d   1      23.865  26.229  78.531  0.00  0.00     0.028 H 
ATOM    208  H73 LEU d   1      24.102  25.213  79.993  0.00  0.00     0.028 H 
ENDBRANCH 199 205
ENDBRANCH 196 199
ENDBRANCH 119 196
ENDBRANCH 117 119
ENDBRANCH 114 115
BRANCH 114 209
ATOM    209  CB1 AIB d   1      28.690  29.763  74.379  0.00  0.00    -0.045 C 
ATOM    210  H57 AIB d   1      28.932  30.689  74.921  0.00  0.00     0.031 H 
ATOM    211  H58 AIB d   1      27.636  29.502  74.552  0.00  0.00     0.031 H 
ATOM    212  H59 AIB d   1      28.859  29.913  73.302  0.00  0.00     0.031 H 
ENDBRANCH 114 209
BRANCH 114 213
ATOM    213  CB2 AIB d   1      31.052  29.000  74.677  0.00  0.00    -0.045 C 
ATOM    214  H60 AIB d   1      31.274  29.931  75.219  0.00  0.00     0.031 H 
ATOM    215  H61 AIB d   1      31.246  29.146  73.604  0.00  0.00     0.031 H 
ATOM    216  H62 AIB d   1      31.693  28.192  75.059  0.00  0.00     0.031 H 
ENDBRANCH 114 213
ENDBRANCH 112 114
ENDBRANCH   1 110
BRANCH   1 217
ATOM    217  CB  ASN d   1      29.981  25.116  72.233  0.00  0.00     0.036 C 
ATOM    218  H52 ASN d   1      29.551  26.006  71.750  0.00  0.00     0.051 H 
ATOM    219  H53 ASN d   1      29.680  24.216  71.677  0.00  0.00     0.051 H 
BRANCH 217 220
ATOM    220  CG  ASN d   1      31.498  25.226  72.202  0.00  0.00     0.217 C 
ATOM    221  OD1 ASN d   1      32.052  26.281  71.877  0.00  0.00    -0.274 OA
ATOM    222  ND2 ASN d   1      32.180  24.139  72.563  0.00  0.00    -0.370 N 
ATOM    223  H54 ASN d   1      33.180  24.153  72.562  0.00  0.00     0.159 HD
ATOM    224  H55 ASN d   1      31.692  23.310  72.835  0.00  0.00     0.159 HD
ENDBRANCH 217 220
ENDBRANCH   1 217
TORSDOF 57
