REMARK WARNING: 32 MAX_TORS EXCEEDED!!!
REMARK  63 active torsions:
REMARK  status: ('A' for Active; 'I' for Inactive)
REMARK    1  A    between atoms: N_1  and  CA_2 
REMARK    2  A    between atoms: CA_2  and  C_3 
REMARK    3  A    between atoms: CA_2  and  CB_5 
REMARK       I    between atoms: C_3  and  N_9 
REMARK    4  A    between atoms: CB_5  and  CG_6 
REMARK       I    between atoms: CG_6  and  ND2_8 
REMARK    5  A    between atoms: N_9  and  CA_10 
REMARK    6  A    between atoms: CA_10  and  C_11 
REMARK    7  A    between atoms: CA_10  and  CB_13 
REMARK       I    between atoms: C_11  and  N_23 
REMARK    8  A    between atoms: CB_13  and  CG_14 
REMARK    9  A    between atoms: N_23  and  CA_24 
REMARK   10  A    between atoms: CA_24  and  C_25 
REMARK   11  A    between atoms: CA_24  and  CB_27 
REMARK       I    between atoms: C_25  and  N_34 
REMARK   12  A    between atoms: CB_27  and  CG_28 
REMARK   13  A    between atoms: N_34  and  CA_35 
REMARK   14  A    between atoms: CA_41  and  CB_44 
REMARK   15  A    between atoms: CB_44  and  CG1_45 
REMARK   16  A    between atoms: CB_44  and  CG2_46 
REMARK   17  A    between atoms: CG1_45  and  CD1_47 
REMARK   18  A    between atoms: CA_49  and  CB_52 
REMARK   19  A    between atoms: CB_52  and  OG1_53 
REMARK   20  A    between atoms: CB_52  and  CG2_54 
REMARK   21  A    between atoms: CA_56  and  C_62 
REMARK       I    between atoms: C_62  and  N_66 
REMARK   22  A    between atoms: N_66  and  CA_67 
REMARK   23  A    between atoms: CA_67  and  C_68 
REMARK   24  A    between atoms: CA_67  and  CB_70 
REMARK       I    between atoms: C_68  and  N_80 
REMARK   25  A    between atoms: CB_70  and  CG_71 
REMARK   26  A    between atoms: N_80  and  CA_81 
REMARK   27  A    between atoms: CA_81  and  C_82 
REMARK   28  A    between atoms: CA_81  and  CB_84 
REMARK       I    between atoms: C_82  and  N_88 
REMARK   29  A    between atoms: CB_84  and  CG_85 
REMARK   30  A    between atoms: CG_85  and  CD1_86 
REMARK   31  A    between atoms: CG_85  and  CD2_87 
REMARK   32  A    between atoms: N_88  and  CA_89 
REMARK   33  A    between atoms: CA_89  and  C_90 
REMARK   34  A    between atoms: CA_89  and  CB_92 
REMARK       I    between atoms: C_90  and  N_102 
REMARK   35  A    between atoms: CB_92  and  CG_93 
REMARK   36  A    between atoms: N_102  and  CA_103 
REMARK   37  A    between atoms: CA_103  and  C_104 
REMARK   38  A    between atoms: CA_103  and  CB_106 
REMARK       I    between atoms: C_104  and  N_111 
REMARK   39  A    between atoms: CB_106  and  CG_107 
REMARK   40  A    between atoms: CG_107  and  CD_108 
REMARK   41  A    between atoms: CD_108  and  CE_109 
REMARK   42  A    between atoms: CE_109  and  NZ_110 
REMARK   43  A    between atoms: N_111  and  CA_112 
REMARK   44  A    between atoms: CA_112  and  C_113 
REMARK   45  A    between atoms: CA_112  and  CB_115 
REMARK       I    between atoms: C_113  and  N_120 
REMARK   46  A    between atoms: CB_115  and  CG_116 
REMARK   47  A    between atoms: CG_116  and  CD_117 
REMARK   48  A    between atoms: CD_117  and  CE_118 
REMARK   49  A    between atoms: CE_118  and  NZ_119 
REMARK   50  A    between atoms: N_120  and  CA_121 
REMARK   51  A    between atoms: CA_121  and  C_122 
REMARK   52  A    between atoms: CA_121  and  CB_124 
REMARK       I    between atoms: C_122  and  N_129 
REMARK   53  A    between atoms: CB_124  and  CG_125 
REMARK   54  A    between atoms: CG_125  and  CD_126 
REMARK   55  A    between atoms: CD_126  and  CE_127 
REMARK   56  A    between atoms: CE_127  and  NZ_128 
REMARK   57  A    between atoms: N_129  and  CA_130 
REMARK   58  A    between atoms: CA_130  and  C_131 
REMARK   59  A    between atoms: CA_130  and  CB_133 
REMARK   60  A    between atoms: CB_133  and  CG_134 
REMARK   61  A    between atoms: CG_134  and  CD_135 
REMARK   62  A    between atoms: CD_135  and  CE_136 
REMARK   63  A    between atoms: CE_136  and  NZ_137 
ROOT
ATOM      1  CA  TRP d   1      23.029  27.080  43.011  0.00  0.00     0.093 C 
ATOM      2  H62 TRP d   1      23.999  27.247  43.502  0.00  0.00     0.088 H 
ENDROOT
BRANCH   1   3
ATOM      3  N   TRP d   1      23.119  25.859  42.226  0.00  0.00    -0.346 N 
ATOM      4  C   ORQ d   1      23.575  24.725  42.755  0.00  0.00     0.241 C 
ATOM      5  O   ORQ d   1      23.919  24.672  43.943  0.00  0.00    -0.271 OA
ATOM      6  H61 TRP d   1      22.832  25.871  41.268  0.00  0.00     0.163 HD
BRANCH   4   7
ATOM      7  CA  ORQ d   1      23.637  23.504  41.833  0.00  0.00     0.089 C 
ATOM      8  N   ORQ d   1      22.382  23.399  41.097  0.00  0.00    -0.346 N 
ATOM      9  C   THR d   1      21.231  23.222  41.727  0.00  0.00     0.243 C 
ATOM     10  H50 ORQ d   1      22.391  23.462  40.099  0.00  0.00     0.163 HD
ATOM     11  CA  THR d   1      19.958  23.161  40.887  0.00  0.00     0.113 C 
ATOM     12  O   THR d   1      21.205  23.130  42.944  0.00  0.00    -0.271 OA
ATOM     13  N   THR d   1      20.098  24.067  39.754  0.00  0.00    -0.344 N 
ATOM     14  H44 THR d   1      19.110  23.499  41.501  0.00  0.00     0.091 H 
ATOM     15  C   ILE d   1      20.184  25.376  39.979  0.00  0.00     0.241 C 
ATOM     16  H43 THR d   1      20.129  23.710  38.820  0.00  0.00     0.163 HD
ATOM     17  CA  ILE d   1      20.335  26.340  38.798  0.00  0.00     0.092 C 
ATOM     18  O   ILE d   1      20.117  25.804  41.133  0.00  0.00    -0.271 OA
ATOM     19  N   ILE d   1      21.327  25.980  37.796  0.00  0.00    -0.346 N 
ATOM     20  H33 ILE d   1      20.660  27.302  39.220  0.00  0.00     0.088 H 
ATOM     21  C   CYS d   1      22.591  25.716  38.111  0.00  0.00     0.241 C 
ATOM     22  H32 ILE d   1      21.048  25.930  36.837  0.00  0.00     0.163 HD
ATOM     23  CA  CYS d   1      23.533  25.399  36.968  0.00  0.00     0.097 C 
ATOM     24  O   CYS d   1      22.981  25.742  39.284  0.00  0.00    -0.271 OA
ATOM     25  CB  CYS d   1      24.367  26.649  36.695  0.00  0.00     0.004 C 
ATOM     26  H29 CYS d   1      24.198  24.577  37.271  0.00  0.00     0.088 H 
ATOM     27  SG  CYS d   1      26.108  26.311  36.074  0.00  0.00    -0.157 SA
ATOM     28  H30 CYS d   1      24.442  27.222  37.631  0.00  0.00     0.052 H 
ATOM     29  H31 CYS d   1      23.844  27.251  35.938  0.00  0.00     0.052 H 
ATOM     30  C2  ORQ d   1      27.164  25.920  37.656  0.00  0.00     0.051 C 
ATOM     31  C1  ORQ d   1      27.165  24.433  37.968  0.00  0.00     0.226 C 
ATOM     32  H59 ORQ d   1      26.741  26.465  38.513  0.00  0.00     0.063 H 
ATOM     33  H60 ORQ d   1      28.199  26.251  37.486  0.00  0.00     0.063 H 
ATOM     34  NE  ORQ d   1      27.056  24.005  39.225  0.00  0.00    -0.360 N 
ATOM     35  O1  ORQ d   1      27.265  23.626  37.051  0.00  0.00    -0.273 OA
ATOM     36  CD  ORQ d   1      26.932  24.856  40.400  0.00  0.00    -0.005 C 
ATOM     37  H58 ORQ d   1      27.060  23.016  39.374  0.00  0.00     0.162 HD
ATOM     38  CG  ORQ d   1      26.118  24.137  41.453  0.00  0.00    -0.048 C 
ATOM     39  H56 ORQ d   1      27.932  25.081  40.798  0.00  0.00     0.064 H 
ATOM     40  H57 ORQ d   1      26.428  25.794  40.123  0.00  0.00     0.064 H 
ATOM     41  CB  ORQ d   1      24.794  23.656  40.846  0.00  0.00    -0.036 C 
ATOM     42  H54 ORQ d   1      26.685  23.271  41.825  0.00  0.00     0.035 H 
ATOM     43  H55 ORQ d   1      25.910  24.824  42.286  0.00  0.00     0.035 H 
ATOM     44  H52 ORQ d   1      24.491  24.381  40.076  0.00  0.00     0.036 H 
ATOM     45  H53 ORQ d   1      24.971  22.677  40.378  0.00  0.00     0.036 H 
ATOM     46  H51 ORQ d   1      23.788  22.596  42.436  0.00  0.00     0.087 H 
BRANCH  11  47
ATOM     47  CB  THR d   1      19.680  21.708  40.440  0.00  0.00     0.060 C 
ATOM     48  H45 THR d   1      19.729  21.047  41.318  0.00  0.00     0.086 H 
BRANCH  47  49
ATOM     49  OG1 THR d   1      20.668  21.294  39.490  0.00  0.00    -0.393 OA
ATOM     50  H46 THR d   1      20.491  20.401  39.220  0.00  0.00     0.210 HD
ENDBRANCH  47  49
BRANCH  47  51
ATOM     51  CG2 THR d   1      18.287  21.610  39.822  0.00  0.00    -0.050 C 
ATOM     52  H47 THR d   1      18.098  20.573  39.507  0.00  0.00     0.031 H 
ATOM     53  H48 THR d   1      18.226  22.276  38.948  0.00  0.00     0.031 H 
ATOM     54  H49 THR d   1      17.534  21.910  40.566  0.00  0.00     0.031 H 
ENDBRANCH  47  51
ENDBRANCH  11  47
BRANCH  17  55
ATOM     55  CB  ILE d   1      18.958  26.559  38.144  0.00  0.00    -0.030 C 
ATOM     56  H34 ILE d   1      18.673  25.650  37.594  0.00  0.00     0.043 H 
BRANCH  55  57
ATOM     57  CG1 ILE d   1      19.034  27.734  37.162  0.00  0.00    -0.063 C 
ATOM     58  H35 ILE d   1      19.874  27.554  36.474  0.00  0.00     0.033 H 
ATOM     59  H36 ILE d   1      19.221  28.652  37.738  0.00  0.00     0.033 H 
BRANCH  57  60
ATOM     60  CD1 ILE d   1      17.771  27.941  36.330  0.00  0.00    -0.076 C 
ATOM     61  H40 ILE d   1      17.912  28.799  35.657  0.00  0.00     0.027 H 
ATOM     62  H41 ILE d   1      16.919  28.135  36.998  0.00  0.00     0.027 H 
ATOM     63  H42 ILE d   1      17.572  27.038  35.735  0.00  0.00     0.027 H 
ENDBRANCH  57  60
ENDBRANCH  55  57
BRANCH  55  64
ATOM     64  CG2 ILE d   1      17.919  26.835  39.207  0.00  0.00    -0.071 C 
ATOM     65  H37 ILE d   1      17.874  25.986  39.905  0.00  0.00     0.028 H 
ATOM     66  H38 ILE d   1      16.936  26.972  38.732  0.00  0.00     0.028 H 
ATOM     67  H39 ILE d   1      18.191  27.748  39.757  0.00  0.00     0.028 H 
ENDBRANCH  55  64
ENDBRANCH  17  55
BRANCH  23  68
ATOM     68  N   CYS d   1      22.819  24.994  35.763  0.00  0.00    -0.345 N 
ATOM     69  C   PHE d   1      22.756  23.732  35.348  0.00  0.00     0.241 C 
ATOM     70  O   PHE d   1      23.315  22.828  35.973  0.00  0.00    -0.271 OA
ATOM     71  H28 CYS d   1      22.355  25.697  35.224  0.00  0.00     0.163 HD
BRANCH  69  72
ATOM     72  CA  PHE d   1      21.962  23.454  34.069  0.00  0.00     0.093 C 
ATOM     73  H20 PHE d   1      21.095  22.832  34.336  0.00  0.00     0.088 H 
BRANCH  72  74
ATOM     74  N   PHE d   1      21.457  24.679  33.446  0.00  0.00    -0.346 N 
ATOM     75  C   TRP d   1      20.456  25.362  33.992  0.00  0.00     0.241 C 
ATOM     76  O   TRP d   1      19.943  24.973  35.032  0.00  0.00    -0.271 OA
ATOM     77  H19 PHE d   1      21.871  25.007  32.597  0.00  0.00     0.163 HD
BRANCH  75  78
ATOM     78  CA  TRP d   1      19.961  26.635  33.295  0.00  0.00     0.093 C 
ATOM     79  H10 TRP d   1      19.497  27.284  34.052  0.00  0.00     0.088 H 
BRANCH  78  80
ATOM     80  N   TRP d   1      21.038  27.377  32.656  0.00  0.00    -0.346 N 
ATOM     81  C   ASN d   1      22.089  27.812  33.336  0.00  0.00     0.249 C 
ATOM     82  O   ASN d   1      22.193  27.605  34.548  0.00  0.00    -0.271 OA
ATOM     83  H9  TRP d   1      20.983  27.564  31.675  0.00  0.00     0.163 HD
BRANCH  81  84
ATOM     84  CA  ASN d   1      23.147  28.574  32.553  0.00  0.00     0.183 C 
ATOM     85  H4  ASN d   1      22.806  28.671  31.512  0.00  0.00     0.099 H 
BRANCH  84  86
ATOM     86  N   ASN d   1      23.359  29.944  33.105  0.00  0.00    -0.066 N 
ATOM     87  H1  ASN d   1      24.064  30.419  32.564  0.00  0.00     0.275 HD
ATOM     88  H2  ASN d   1      23.660  29.877  34.065  0.00  0.00     0.275 HD
ATOM     89  H3  ASN d   1      22.495  30.462  33.060  0.00  0.00     0.275 HD
ENDBRANCH  84  86
BRANCH  84  90
ATOM     90  CB  ASN d   1      24.459  27.789  32.567  0.00  0.00     0.044 C 
ATOM     91  H5  ASN d   1      24.833  27.746  33.600  0.00  0.00     0.051 H 
ATOM     92  H6  ASN d   1      25.190  28.313  31.934  0.00  0.00     0.051 H 
BRANCH  90  93
ATOM     93  CG  ASN d   1      24.296  26.380  32.053  0.00  0.00     0.217 C 
ATOM     94  OD1 ASN d   1      23.265  26.040  31.461  0.00  0.00    -0.274 OA
ATOM     95  ND2 ASN d   1      25.312  25.553  32.260  0.00  0.00    -0.370 N 
ATOM     96  H7  ASN d   1      25.259  24.607  31.941  0.00  0.00     0.159 HD
ATOM     97  H8  ASN d   1      26.131  25.876  32.735  0.00  0.00     0.159 HD
ENDBRANCH  90  93
ENDBRANCH  84  90
ENDBRANCH  81  84
ENDBRANCH  78  80
BRANCH  78  98
ATOM     98  CB  TRP d   1      18.914  26.267  32.251  0.00  0.00    -0.012 C 
ATOM     99  H11 TRP d   1      19.392  25.618  31.502  0.00  0.00     0.044 H 
ATOM    100  H12 TRP d   1      18.573  27.195  31.768  0.00  0.00     0.044 H 
BRANCH  98 101
ATOM    101  CG  TRP d   1      17.713  25.553  32.785  0.00  0.00    -0.028 A 
ATOM    102  CD1 TRP d   1      16.574  26.117  33.290  0.00  0.00    -0.015 A 
ATOM    103  NE1 TRP d   1      15.663  25.137  33.610  0.00  0.00    -0.365 N 
ATOM    104  H13 TRP d   1      16.412  27.186  33.420  0.00  0.00     0.112 H 
ATOM    105  CE2 TRP d   1      16.208  23.913  33.320  0.00  0.00     0.042 A 
ATOM    106  H14 TRP d   1      14.725  25.297  34.003  0.00  0.00     0.165 HD
ATOM    107  CD2 TRP d   1      17.502  24.138  32.801  0.00  0.00    -0.002 A 
ATOM    108  CZ2 TRP d   1      15.669  22.624  33.468  0.00  0.00    -0.056 A 
ATOM    109  CE3 TRP d   1      18.283  23.033  32.420  0.00  0.00    -0.070 A 
ATOM    110  CZ3 TRP d   1      17.746  21.752  32.567  0.00  0.00    -0.082 A 
ATOM    111  H15 TRP d   1      19.281  23.172  32.020  0.00  0.00     0.084 H 
ATOM    112  CH2 TRP d   1      16.450  21.564  33.087  0.00  0.00    -0.081 A 
ATOM    113  H17 TRP d   1      18.335  20.890  32.277  0.00  0.00     0.083 H 
ATOM    114  H18 TRP d   1      16.061  20.557  33.188  0.00  0.00     0.083 H 
ATOM    115  H16 TRP d   1      14.673  22.474  33.868  0.00  0.00     0.086 H 
ENDBRANCH  98 101
ENDBRANCH  78  98
ENDBRANCH  75  78
ENDBRANCH  72  74
BRANCH  72 116
ATOM    116  CB  PHE d   1      22.835  22.666  33.085  0.00  0.00    -0.014 C 
ATOM    117  H21 PHE d   1      23.312  21.838  33.631  0.00  0.00     0.043 H 
ATOM    118  H22 PHE d   1      23.610  23.341  32.693  0.00  0.00     0.043 H 
BRANCH 116 119
ATOM    119  CG  PHE d   1      22.072  22.088  31.917  0.00  0.00    -0.056 A 
ATOM    120  CD1 PHE d   1      22.065  22.731  30.684  0.00  0.00    -0.077 A 
ATOM    121  CE1 PHE d   1      21.361  22.203  29.603  0.00  0.00    -0.082 A 
ATOM    122  H23 PHE d   1      22.615  23.657  30.562  0.00  0.00     0.084 H 
ATOM    123  CZ  PHE d   1      20.645  21.012  29.748  0.00  0.00    -0.083 A 
ATOM    124  H25 PHE d   1      21.369  22.717  28.649  0.00  0.00     0.083 H 
ATOM    125  CE2 PHE d   1      20.642  20.358  30.979  0.00  0.00    -0.082 A 
ATOM    126  H27 PHE d   1      20.096  20.600  28.909  0.00  0.00     0.083 H 
ATOM    127  CD2 PHE d   1      21.356  20.901  32.055  0.00  0.00    -0.077 A 
ATOM    128  H26 PHE d   1      20.090  19.433  31.103  0.00  0.00     0.083 H 
ATOM    129  H24 PHE d   1      21.351  20.389  33.011  0.00  0.00     0.084 H 
ENDBRANCH 116 119
ENDBRANCH  72 116
ENDBRANCH  69  72
ENDBRANCH  23  68
ENDBRANCH   4   7
ENDBRANCH   1   3
BRANCH   1 130
ATOM    130  C   TRP d   1      21.965  26.941  44.086  0.00  0.00     0.241 C 
ATOM    131  O   TRP d   1      22.134  27.416  45.204  0.00  0.00    -0.271 OA
ATOM    132  N   LEU d   1      20.843  26.289  43.787  0.00  0.00    -0.346 N 
ATOM    133  H71 LEU d   1      20.720  25.918  42.867  0.00  0.00     0.163 HD
BRANCH 132 134
ATOM    134  CA  LEU d   1      19.788  26.107  44.782  0.00  0.00     0.089 C 
ATOM    135  H72 LEU d   1      19.509  27.087  45.195  0.00  0.00     0.087 H 
BRANCH 134 136
ATOM    136  C   LEU d   1      20.305  25.209  45.896  0.00  0.00     0.241 C 
ATOM    137  O   LEU d   1      20.037  25.415  47.080  0.00  0.00    -0.271 OA
ATOM    138  N   TRP d   1      21.052  24.174  45.532  0.00  0.00    -0.346 N 
ATOM    139  H82 TRP d   1      21.243  24.029  44.561  0.00  0.00     0.163 HD
BRANCH 138 140
ATOM    140  CA  TRP d   1      21.599  23.248  46.505  0.00  0.00     0.093 C 
ATOM    141  H83 TRP d   1      20.783  22.857  47.130  0.00  0.00     0.088 H 
BRANCH 140 142
ATOM    142  C   TRP d   1      22.609  23.970  47.391  0.00  0.00     0.241 C 
ATOM    143  O   TRP d   1      22.652  23.786  48.606  0.00  0.00    -0.271 OA
ATOM    144  N   LYS d   1      23.452  24.809  46.798  0.00  0.00    -0.346 N 
ATOM    145  H92 LYS d   1      23.399  24.934  45.807  0.00  0.00     0.163 HD
BRANCH 144 146
ATOM    146  CA  LYS d   1      24.452  25.551  47.555  0.00  0.00     0.089 C 
ATOM    147  H93 LYS d   1      25.025  24.847  48.176  0.00  0.00     0.087 H 
BRANCH 146 148
ATOM    148  C   LYS d   1      23.771  26.570  48.463  0.00  0.00     0.241 C 
ATOM    149  O   LYS d   1      24.125  26.733  49.631  0.00  0.00    -0.271 OA
ATOM    150  N   LYS d   1      22.767  27.273  47.947  0.00  0.00    -0.346 N 
ATOM    151 5H10 LYS d   1      22.501  27.111  46.997  0.00  0.00     0.163 HD
BRANCH 150 152
ATOM    152  CA  LYS d   1      22.041  28.273  48.722  0.00  0.00     0.089 C 
ATOM    153 6H10 LYS d   1      22.753  29.048  49.043  0.00  0.00     0.087 H 
BRANCH 152 154
ATOM    154  C   LYS d   1      21.407  27.654  49.963  0.00  0.00     0.241 C 
ATOM    155  O   LYS d   1      21.278  28.297  51.003  0.00  0.00    -0.271 OA
ATOM    156  N   LYS d   1      20.989  26.392  49.888  0.00  0.00    -0.346 N 
ATOM    157 8H11 LYS d   1      21.091  25.891  49.029  0.00  0.00     0.163 HD
BRANCH 156 158
ATOM    158  CA  LYS d   1      20.385  25.728  51.039  0.00  0.00     0.089 C 
ATOM    159 9H11 LYS d   1      19.870  26.481  51.654  0.00  0.00     0.087 H 
BRANCH 158 160
ATOM    160  C   LYS d   1      21.475  25.063  51.873  0.00  0.00     0.241 C 
ATOM    161  O   LYS d   1      21.528  25.196  53.097  0.00  0.00    -0.271 OA
ATOM    162  N   LYS d   1      22.374  24.326  51.226  0.00  0.00    -0.345 N 
ATOM    163 1H13 LYS d   1      22.299  24.232  50.233  0.00  0.00     0.163 HD
BRANCH 162 164
ATOM    164  CA  LYS d   1      23.466  23.651  51.918  0.00  0.00     0.096 C 
ATOM    165 2H13 LYS d   1      23.044  22.916  52.620  0.00  0.00     0.089 H 
BRANCH 164 166
ATOM    166  C   LYS d   1      24.287  24.669  52.704  0.00  0.00     0.196 C 
ATOM    167  O   LYS d   1      24.558  24.407  53.895  0.00  0.00    -0.646 OA
ATOM    168  OXT LYS d   1      24.648  25.714  52.120  0.00  0.00    -0.646 OA
ENDBRANCH 164 166
BRANCH 164 169
ATOM    169  CB  LYS d   1      24.354  22.915  50.906  0.00  0.00    -0.037 C 
ATOM    170 3H13 LYS d   1      24.519  23.583  50.048  0.00  0.00     0.036 H 
ATOM    171 4H13 LYS d   1      23.817  22.015  50.572  0.00  0.00     0.036 H 
BRANCH 169 172
ATOM    172  CG  LYS d   1      25.715  22.483  51.437  0.00  0.00    -0.061 C 
ATOM    173 5H13 LYS d   1      26.274  23.378  51.748  0.00  0.00     0.033 H 
ATOM    174 6H13 LYS d   1      26.262  21.970  50.633  0.00  0.00     0.033 H 
BRANCH 172 175
ATOM    175  CD  LYS d   1      25.596  21.544  52.624  0.00  0.00    -0.043 C 
ATOM    176 7H13 LYS d   1      25.099  20.617  52.302  0.00  0.00     0.035 H 
ATOM    177 8H13 LYS d   1      24.996  22.029  53.408  0.00  0.00     0.035 H 
BRANCH 175 178
ATOM    178  CE  LYS d   1      26.971  21.202  53.188  0.00  0.00     0.080 C 
ATOM    179 9H13 LYS d   1      27.489  22.138  53.444  0.00  0.00     0.075 H 
ATOM    180 0H14 LYS d   1      27.544  20.665  52.418  0.00  0.00     0.075 H 
BRANCH 178 181
ATOM    181  NZ  LYS d   1      26.895  20.348  54.410  0.00  0.00    -0.079 N 
ATOM    182 1H14 LYS d   1      27.827  20.152  54.741  0.00  0.00     0.274 HD
ATOM    183 2H14 LYS d   1      26.429  19.483  54.187  0.00  0.00     0.274 HD
ATOM    184 3H14 LYS d   1      26.379  20.833  55.127  0.00  0.00     0.274 HD
ENDBRANCH 178 181
ENDBRANCH 175 178
ENDBRANCH 172 175
ENDBRANCH 169 172
ENDBRANCH 164 169
ENDBRANCH 162 164
ENDBRANCH 158 160
BRANCH 158 185
ATOM    185  CB  LYS d   1      19.365  24.675  50.590  0.00  0.00    -0.038 C 
ATOM    186 0H12 LYS d   1      18.632  25.166  49.933  0.00  0.00     0.036 H 
ATOM    187 1H12 LYS d   1      18.855  24.290  51.485  0.00  0.00     0.036 H 
BRANCH 185 188
ATOM    188  CG  LYS d   1      19.959  23.491  49.836  0.00  0.00    -0.061 C 
ATOM    189 2H12 LYS d   1      21.056  23.567  49.858  0.00  0.00     0.033 H 
ATOM    190 3H12 LYS d   1      19.611  23.521  48.793  0.00  0.00     0.033 H 
BRANCH 188 191
ATOM    191  CD  LYS d   1      19.542  22.163  50.460  0.00  0.00    -0.043 C 
ATOM    192 4H12 LYS d   1      19.922  21.340  49.837  0.00  0.00     0.035 H 
ATOM    193 5H12 LYS d   1      18.444  22.116  50.499  0.00  0.00     0.035 H 
BRANCH 191 194
ATOM    194  CE  LYS d   1      20.096  22.011  51.874  0.00  0.00     0.080 C 
ATOM    195 6H12 LYS d   1      19.727  22.846  52.488  0.00  0.00     0.075 H 
ATOM    196 7H12 LYS d   1      21.194  22.048  51.827  0.00  0.00     0.075 H 
BRANCH 194 197
ATOM    197  NZ  LYS d   1      19.689  20.730  52.518  0.00  0.00    -0.079 N 
ATOM    198 8H12 LYS d   1      20.080  20.681  53.446  0.00  0.00     0.274 HD
ATOM    199 9H12 LYS d   1      20.028  19.955  51.969  0.00  0.00     0.274 HD
ATOM    200 0H13 LYS d   1      18.683  20.687  52.575  0.00  0.00     0.274 HD
ENDBRANCH 194 197
ENDBRANCH 191 194
ENDBRANCH 188 191
ENDBRANCH 185 188
ENDBRANCH 158 185
ENDBRANCH 156 158
ENDBRANCH 152 154
BRANCH 152 201
ATOM    201  CB  LYS d   1      20.956  28.929  47.861  0.00  0.00    -0.038 C 
ATOM    202 7H10 LYS d   1      20.262  28.144  47.525  0.00  0.00     0.036 H 
ATOM    203 8H10 LYS d   1      21.441  29.389  46.987  0.00  0.00     0.036 H 
BRANCH 201 204
ATOM    204  CG  LYS d   1      20.149  30.003  48.577  0.00  0.00    -0.061 C 
ATOM    205 9H10 LYS d   1      20.814  30.840  48.836  0.00  0.00     0.033 H 
ATOM    206 0H11 LYS d   1      19.721  29.578  49.496  0.00  0.00     0.033 H 
BRANCH 204 207
ATOM    207  CD  LYS d   1      19.021  30.519  47.696  0.00  0.00    -0.043 C 
ATOM    208 1H11 LYS d   1      18.364  29.678  47.430  0.00  0.00     0.035 H 
ATOM    209 2H11 LYS d   1      19.453  30.951  46.781  0.00  0.00     0.035 H 
BRANCH 207 210
ATOM    210  CE  LYS d   1      18.196  31.585  48.402  0.00  0.00     0.080 C 
ATOM    211 3H11 LYS d   1      17.870  31.192  49.376  0.00  0.00     0.075 H 
ATOM    212 4H11 LYS d   1      17.314  31.816  47.786  0.00  0.00     0.075 H 
BRANCH 210 213
ATOM    213  NZ  LYS d   1      18.966  32.839  48.625  0.00  0.00    -0.079 N 
ATOM    214 5H11 LYS d   1      18.381  33.513  49.093  0.00  0.00     0.274 HD
ATOM    215 6H11 LYS d   1      19.265  33.212  47.738  0.00  0.00     0.274 HD
ATOM    216 7H11 LYS d   1      19.773  32.641  49.195  0.00  0.00     0.274 HD
ENDBRANCH 210 213
ENDBRANCH 207 210
ENDBRANCH 204 207
ENDBRANCH 201 204
ENDBRANCH 152 201
ENDBRANCH 150 152
ENDBRANCH 146 148
BRANCH 146 217
ATOM    217  CB  LYS d   1      25.410  26.260  46.596  0.00  0.00    -0.038 C 
ATOM    218  H94 LYS d   1      24.828  26.978  46.000  0.00  0.00     0.036 H 
ATOM    219  H95 LYS d   1      25.851  25.503  45.931  0.00  0.00     0.036 H 
BRANCH 217 220
ATOM    220  CG  LYS d   1      26.542  27.013  47.271  0.00  0.00    -0.061 C 
ATOM    221  H96 LYS d   1      27.086  26.327  47.936  0.00  0.00     0.033 H 
ATOM    222  H97 LYS d   1      26.123  27.841  47.861  0.00  0.00     0.033 H 
BRANCH 220 223
ATOM    223  CD  LYS d   1      27.505  27.574  46.236  0.00  0.00    -0.043 C 
ATOM    224  H98 LYS d   1      26.982  28.338  45.642  0.00  0.00     0.035 H 
ATOM    225  H99 LYS d   1      27.833  26.757  45.576  0.00  0.00     0.035 H 
BRANCH 223 226
ATOM    226  CE  LYS d   1      28.732  28.207  46.882  0.00  0.00     0.080 C 
ATOM    227 0H10 LYS d   1      29.161  27.499  47.607  0.00  0.00     0.075 H 
ATOM    228 1H10 LYS d   1      28.428  29.127  47.403  0.00  0.00     0.075 H 
BRANCH 226 229
ATOM    229  NZ  LYS d   1      29.771  28.547  45.860  0.00  0.00    -0.079 N 
ATOM    230 2H10 LYS d   1      30.568  28.963  46.316  0.00  0.00     0.274 HD
ATOM    231 3H10 LYS d   1      29.387  29.199  45.194  0.00  0.00     0.274 HD
ATOM    232 4H10 LYS d   1      30.058  27.708  45.381  0.00  0.00     0.274 HD
ENDBRANCH 226 229
ENDBRANCH 223 226
ENDBRANCH 220 223
ENDBRANCH 217 220
ENDBRANCH 146 217
ENDBRANCH 144 146
ENDBRANCH 140 142
BRANCH 140 233
ATOM    233  CB  TRP d   1      22.284  22.087  45.792  0.00  0.00    -0.012 C 
ATOM    234  H84 TRP d   1      23.150  22.479  45.239  0.00  0.00     0.044 H 
ATOM    235  H85 TRP d   1      21.569  21.641  45.085  0.00  0.00     0.044 H 
BRANCH 233 236
ATOM    236  CG  TRP d   1      22.759  21.020  46.720  0.00  0.00    -0.028 A 
ATOM    237  CD1 TRP d   1      22.014  20.012  47.268  0.00  0.00    -0.015 A 
ATOM    238  NE1 TRP d   1      22.804  19.227  48.074  0.00  0.00    -0.365 N 
ATOM    239  H86 TRP d   1      20.951  19.855  47.092  0.00  0.00     0.112 H 
ATOM    240  CE2 TRP d   1      24.082  19.722  48.061  0.00  0.00     0.042 A 
ATOM    241  H87 TRP d   1      22.487  18.401  48.602  0.00  0.00     0.165 HD
ATOM    242  CD2 TRP d   1      24.089  20.855  47.217  0.00  0.00    -0.002 A 
ATOM    243  CZ2 TRP d   1      25.228  19.271  48.717  0.00  0.00    -0.056 A 
ATOM    244  CE3 TRP d   1      25.288  21.554  47.031  0.00  0.00    -0.070 A 
ATOM    245  CZ3 TRP d   1      26.429  21.106  47.683  0.00  0.00    -0.082 A 
ATOM    246  H88 TRP d   1      25.325  22.428  46.391  0.00  0.00     0.084 H 
ATOM    247  CH2 TRP d   1      26.389  19.973  48.516  0.00  0.00    -0.081 A 
ATOM    248  H90 TRP d   1      27.364  21.637  47.548  0.00  0.00     0.083 H 
ATOM    249  H91 TRP d   1      27.297  19.647  49.011  0.00  0.00     0.083 H 
ATOM    250  H89 TRP d   1      25.202  18.399  49.361  0.00  0.00     0.086 H 
ENDBRANCH 233 236
ENDBRANCH 140 233
ENDBRANCH 138 140
ENDBRANCH 134 136
BRANCH 134 251
ATOM    251  CB  LEU d   1      18.551  25.449  44.165  0.00  0.00    -0.035 C 
ATOM    252  H73 LEU d   1      17.869  25.212  44.995  0.00  0.00     0.037 H 
ATOM    253  H74 LEU d   1      18.890  24.516  43.691  0.00  0.00     0.037 H 
BRANCH 251 254
ATOM    254  CG  LEU d   1      17.731  26.204  43.120  0.00  0.00    -0.059 C 
ATOM    255  H75 LEU d   1      18.376  26.447  42.263  0.00  0.00     0.038 H 
BRANCH 254 256
ATOM    256  CD1 LEU d   1      16.583  25.317  42.642  0.00  0.00    -0.073 C 
ATOM    257  H76 LEU d   1      15.991  25.858  41.889  0.00  0.00     0.028 H 
ATOM    258  H77 LEU d   1      15.941  25.056  43.496  0.00  0.00     0.028 H 
ATOM    259  H78 LEU d   1      16.991  24.398  42.196  0.00  0.00     0.028 H 
ENDBRANCH 254 256
BRANCH 254 260
ATOM    260  CD2 LEU d   1      17.196  27.502  43.719  0.00  0.00    -0.073 C 
ATOM    261  H79 LEU d   1      18.038  28.125  44.056  0.00  0.00     0.028 H 
ATOM    262  H80 LEU d   1      16.546  27.270  44.575  0.00  0.00     0.028 H 
ATOM    263  H81 LEU d   1      16.619  28.047  42.957  0.00  0.00     0.028 H 
ENDBRANCH 254 260
ENDBRANCH 251 254
ENDBRANCH 134 251
ENDBRANCH 132 134
ENDBRANCH   1 130
BRANCH   1 264
ATOM    264  CB  TRP d   1      22.727  28.290  42.115  0.00  0.00    -0.012 C 
ATOM    265  H63 TRP d   1      22.601  29.174  42.758  0.00  0.00     0.044 H 
ATOM    266  H64 TRP d   1      21.790  28.094  41.574  0.00  0.00     0.044 H 
BRANCH 264 267
ATOM    267  CG  TRP d   1      23.805  28.590  41.103  0.00  0.00    -0.028 A 
ATOM    268  CD1 TRP d   1      25.154  28.411  41.258  0.00  0.00    -0.015 A 
ATOM    269  NE1 TRP d   1      25.824  28.829  40.129  0.00  0.00    -0.365 N 
ATOM    270  H65 TRP d   1      25.629  27.997  42.146  0.00  0.00     0.112 H 
ATOM    271  CE2 TRP d   1      24.911  29.293  39.218  0.00  0.00     0.042 A 
ATOM    272  H66 TRP d   1      26.844  28.798  39.992  0.00  0.00     0.165 HD
ATOM    273  CD2 TRP d   1      23.627  29.157  39.796  0.00  0.00    -0.002 A 
ATOM    274  CZ2 TRP d   1      25.106  29.822  37.933  0.00  0.00    -0.056 A 
ATOM    275  CE3 TRP d   1      22.505  29.568  39.057  0.00  0.00    -0.070 A 
ATOM    276  CZ3 TRP d   1      22.700  30.096  37.778  0.00  0.00    -0.082 A 
ATOM    277  H67 TRP d   1      21.507  29.477  39.471  0.00  0.00     0.084 H 
ATOM    278  CH2 TRP d   1      23.993  30.218  37.231  0.00  0.00    -0.081 A 
ATOM    279  H69 TRP d   1      21.843  30.417  37.197  0.00  0.00     0.083 H 
ATOM    280  H70 TRP d   1      24.112  30.633  36.236  0.00  0.00     0.083 H 
ATOM    281  H68 TRP d   1      26.099  29.915  37.509  0.00  0.00     0.086 H 
ENDBRANCH 264 267
ENDBRANCH   1 264
TORSDOF 63
