REMARK  14 active torsions:
REMARK  status: ('A' for Active; 'I' for Inactive)
REMARK    1  A    between atoms: C3_4  and  C2_1 
REMARK    2  A    between atoms: C5_2  and  O4_5 
REMARK       I    between atoms: N7_9  and  C5_2 
REMARK    3  A    between atoms: O4_5  and  C3_4 
REMARK    4  A    between atoms: C8_7  and  C9_8 
REMARK    5  A    between atoms: C8_7  and  N7_9 
REMARK    6  A    between atoms: C8_7  and  C16_16 
REMARK    7  A    between atoms: C9_8  and  C10_10 
REMARK    8  A    between atoms: C10_10  and  C11_11 
REMARK    9  A    between atoms: C16_16  and  O17_17 
REMARK   10  A    between atoms: C16_16  and  C18_18 
REMARK   11  A    between atoms: C21_21  and  C22_22 
REMARK   12  A    between atoms: C22_22  and  C23_23 
REMARK   13  A    between atoms: C26_26  and  C29_29 
REMARK       I    between atoms: C29_29  and  N31_31 
REMARK   14  A    between atoms: N31_31  and  C32_32 
ROOT
ATOM      1  C18 C3A d   1      -3.404  21.253  69.283  0.00  0.00     0.186 A 
ATOM      2  N19 C3A d   1      -4.430  21.611  70.082  0.00  0.00    -0.108 NA
ATOM      3  O20 C3A d   1      -4.654  20.451  70.858  0.00  0.00    -0.196 OA
ATOM      4  C21 C3A d   1      -3.734  19.520  70.439  0.00  0.00     0.177 A 
ATOM      5  N41 C3A d   1      -2.948  19.957  69.480  0.00  0.00    -0.206 NA
ENDROOT
BRANCH   1   6
ATOM      6  C16 C3A d   1      -2.739  22.142  68.256  0.00  0.00     0.116 C 
ATOM      7  H21 C3A d   1      -2.429  21.540  67.389  0.00  0.00     0.098 H 
BRANCH   6   8
ATOM      8  C8  C3A d   1      -1.450  22.823  68.916  0.00  0.00     0.046 C 
ATOM      9  H6  C3A d   1      -1.750  23.274  69.874  0.00  0.00     0.077 H 
BRANCH   8  10
ATOM     10  C9  C3A d   1      -0.832  23.954  68.042  0.00  0.00    -0.043 C 
ATOM     11  H7  C3A d   1      -1.610  24.706  67.843  0.00  0.00     0.036 H 
ATOM     12  H8  C3A d   1      -0.494  23.515  67.092  0.00  0.00     0.036 H 
BRANCH  10  13
ATOM     13  C10 C3A d   1       0.365  24.656  68.708  0.00  0.00    -0.058 C 
ATOM     14  H10 C3A d   1       1.156  23.912  68.885  0.00  0.00     0.033 H 
ATOM     15  H11 C3A d   1       0.036  25.077  69.669  0.00  0.00     0.033 H 
BRANCH  13  16
ATOM     16  C11 C3A d   1       0.939  25.787  67.848  0.00  0.00    -0.029 C 
ATOM     17  C12 C3A d   1       1.581  25.358  66.529  0.00  0.00    -0.038 C 
ATOM     18  C13 C3A d   1       2.506  26.518  66.173  0.00  0.00     0.082 C 
ATOM     19  H13 C3A d   1       0.817  25.215  65.751  0.00  0.00     0.036 H 
ATOM     20  H14 C3A d   1       2.153  24.427  66.657  0.00  0.00     0.036 H 
ATOM     21  N14 C3A d   1       2.569  27.361  67.406  0.00  0.00    -0.075 N 
ATOM     22  H15 C3A d   1       2.095  27.095  65.332  0.00  0.00     0.075 H 
ATOM     23  H16 C3A d   1       3.507  26.146  65.908  0.00  0.00     0.075 H 
ATOM     24  C15 C3A d   1       2.077  26.503  68.521  0.00  0.00     0.085 C 
ATOM     25  H17 C3A d   1       1.981  28.173  67.305  0.00  0.00     0.277 HD
ATOM     26  H18 C3A d   1       3.518  27.653  67.582  0.00  0.00     0.277 HD
ATOM     27  H19 C3A d   1       2.851  25.800  68.862  0.00  0.00     0.076 H 
ATOM     28  H20 C3A d   1       1.728  27.107  69.372  0.00  0.00     0.076 H 
ATOM     29  H12 C3A d   1       0.119  26.491  67.643  0.00  0.00     0.042 H 
ENDBRANCH  13  16
ENDBRANCH  10  13
ENDBRANCH   8  10
BRANCH   8  30
ATOM     30  N7  C3A d   1      -0.467  21.733  69.189  0.00  0.00    -0.329 N 
ATOM     31  C5  C3A d   1      -0.323  21.154  70.424  0.00  0.00     0.361 C 
ATOM     32  O6  C3A d   1      -0.967  21.472  71.434  0.00  0.00    -0.238 OA
ATOM     33  H9  C3A d   1       0.111  21.411  68.439  0.00  0.00     0.165 HD
BRANCH  31  34
ATOM     34  O4  C3A d   1       0.605  20.157  70.370  0.00  0.00    -0.300 OA
BRANCH  34  35
ATOM     35  C3  C3A d   1       0.788  19.462  71.651  0.00  0.00     0.045 C 
ATOM     36  H4  C3A d   1       1.133  20.178  72.412  0.00  0.00     0.081 H 
ATOM     37  H5  C3A d   1      -0.168  19.021  71.969  0.00  0.00     0.081 H 
BRANCH  35  38
ATOM     38  C2  C3A d   1       1.810  18.377  71.484  0.00  0.00    -0.089 C 
ATOM     39  C1  C3A d   1       3.078  18.593  71.131  0.00  0.00    -0.123 C 
ATOM     40  H2  C3A d   1       3.765  17.754  71.029  0.00  0.00     0.066 H 
ATOM     41  H3  C3A d   1       3.426  19.608  70.945  0.00  0.00     0.066 H 
ATOM     42  H1  C3A d   1       1.497  17.349  71.662  0.00  0.00     0.078 H 
ENDBRANCH  35  38
ENDBRANCH  34  35
ENDBRANCH  31  34
ENDBRANCH   8  30
ENDBRANCH   6   8
BRANCH   6  43
ATOM     43  O17 C3A d   1      -3.620  23.078  67.858  0.00  0.00    -0.386 OA
ATOM     44  H22 C3A d   1      -3.209  23.645  67.216  0.00  0.00     0.210 HD
ENDBRANCH   6  43
ENDBRANCH   1   6
BRANCH   4  45
ATOM     45  C22 C3A d   1      -3.736  18.192  71.103  0.00  0.00     0.022 C 
ATOM     46  H23 C3A d   1      -3.514  18.341  72.170  0.00  0.00     0.052 H 
ATOM     47  H24 C3A d   1      -2.946  17.578  70.646  0.00  0.00     0.052 H 
BRANCH  45  48
ATOM     48  C23 C3A d   1      -5.043  17.436  70.994  0.00  0.00    -0.051 A 
ATOM     49  C24 C3A d   1      -6.154  17.766  71.832  0.00  0.00    -0.075 A 
ATOM     50  C25 C3A d   1      -7.372  17.050  71.730  0.00  0.00    -0.067 A 
ATOM     51  H25 C3A d   1      -6.063  18.571  72.552  0.00  0.00     0.084 H 
ATOM     52  C26 C3A d   1      -7.507  15.982  70.787  0.00  0.00     0.032 A 
ATOM     53  H26 C3A d   1      -8.207  17.313  72.370  0.00  0.00     0.085 H 
ATOM     54  C27 C3A d   1      -6.406  15.645  69.941  0.00  0.00    -0.067 A 
ATOM     55  C28 C3A d   1      -5.188  16.368  70.047  0.00  0.00    -0.075 A 
ATOM     56  H27 C3A d   1      -6.500  14.840  69.221  0.00  0.00     0.085 H 
ATOM     57  H28 C3A d   1      -4.356  16.109  69.403  0.00  0.00     0.084 H 
BRANCH  52  58
ATOM     58  C29 C3A d   1      -8.791  15.253  70.727  0.00  0.00     0.252 C 
ATOM     59  O30 C3A d   1      -9.627  15.458  71.575  0.00  0.00    -0.268 OA
ATOM     60  N31 C3A d   1      -8.948  14.360  69.682  0.00  0.00    -0.352 N 
ATOM     61  H29 C3A d   1      -8.187  14.267  69.040  0.00  0.00     0.163 HD
BRANCH  60  62
ATOM     62  C32 C3A d   1     -10.129  13.544  69.438  0.00  0.00     0.020 C 
ATOM     63  C33 C3A d   1     -10.132  12.871  68.046  0.00  0.00    -0.021 C 
ATOM     64  C34 C3A d   1     -11.075  11.736  68.269  0.00  0.00    -0.050 A 
ATOM     65  H31 C3A d   1      -9.129  12.512  67.770  0.00  0.00     0.043 H 
ATOM     66  H32 C3A d   1     -10.503  13.556  67.269  0.00  0.00     0.043 H 
ATOM     67  C35 C3A d   1     -11.796  10.982  67.307  0.00  0.00    -0.076 A 
ATOM     68  C39 C3A d   1     -11.188  11.461  69.659  0.00  0.00    -0.050 A 
ATOM     69  C36 C3A d   1     -12.640   9.935  67.768  0.00  0.00    -0.082 A 
ATOM     70  H33 C3A d   1     -11.706  11.199  66.249  0.00  0.00     0.084 H 
ATOM     71  C37 C3A d   1     -12.754   9.658  69.169  0.00  0.00    -0.082 A 
ATOM     72  H34 C3A d   1     -13.201   9.342  67.055  0.00  0.00     0.083 H 
ATOM     73  C38 C3A d   1     -12.023  10.426  70.125  0.00  0.00    -0.076 A 
ATOM     74  H35 C3A d   1     -13.402   8.857  69.507  0.00  0.00     0.083 H 
ATOM     75  H36 C3A d   1     -12.108  10.218  71.185  0.00  0.00     0.084 H 
ATOM     76  C40 C3A d   1     -10.329  12.396  70.463  0.00  0.00    -0.021 C 
ATOM     77  H37 C3A d   1     -10.846  12.745  71.369  0.00  0.00     0.043 H 
ATOM     78  H38 C3A d   1      -9.373  11.930  70.743  0.00  0.00     0.043 H 
ATOM     79  H30 C3A d   1     -10.998  14.216  69.500  0.00  0.00     0.073 H 
ENDBRANCH  60  62
ENDBRANCH  52  58
ENDBRANCH  45  48
ENDBRANCH   4  45
TORSDOF 14
