REMARK WARNING: 32 MAX_TORS EXCEEDED!!!
REMARK  55 active torsions:
REMARK  status: ('A' for Active; 'I' for Inactive)
REMARK    1  A    between atoms: CA_2  and  N_1 
REMARK    2  A    between atoms: CA_2  and  CB_5 
REMARK    3  A    between atoms: C_3  and  CA_2 
REMARK       I    between atoms: N_12  and  C_3 
REMARK    4  A    between atoms: CB_5  and  CG_6 
REMARK    5  A    between atoms: CG_6  and  CD_7 
REMARK    6  A    between atoms: CD_7  and  NE_8 
REMARK       I    between atoms: NE_8  and  CZ_9 
REMARK       I    between atoms: CZ_9  and  NH2_11 
REMARK       I    between atoms: CZ_9  and  NH1_10 
REMARK    7  A    between atoms: CA_13  and  N_12 
REMARK    8  A    between atoms: CA_13  and  CB_16 
REMARK    9  A    between atoms: C_14  and  CA_13 
REMARK       I    between atoms: N_23  and  C_14 
REMARK   10  A    between atoms: CB_16  and  CG_17 
REMARK   11  A    between atoms: CG_17  and  CD_18 
REMARK   12  A    between atoms: CD_18  and  NE_19 
REMARK       I    between atoms: NE_19  and  CZ_20 
REMARK       I    between atoms: CZ_20  and  NH2_22 
REMARK       I    between atoms: CZ_20  and  NH1_21 
REMARK   13  A    between atoms: CA_24  and  N_23 
REMARK   14  A    between atoms: CA_24  and  CB_27 
REMARK   15  A    between atoms: C_25  and  CA_24 
REMARK       I    between atoms: N_31  and  C_25 
REMARK   16  A    between atoms: CB_27  and  CG_28 
REMARK   17  A    between atoms: CG_28  and  CD1_29 
REMARK   18  A    between atoms: CG_28  and  CD2_30 
REMARK   19  A    between atoms: CA_32  and  N_31 
REMARK   20  A    between atoms: CA_32  and  CB_35 
REMARK   21  A    between atoms: C_33  and  CA_32 
REMARK       I    between atoms: N_40  and  C_33 
REMARK   22  A    between atoms: CB_35  and  CG_36 
REMARK   23  A    between atoms: CG_36  and  CD_37 
REMARK       I    between atoms: CD_37  and  NE2_39 
REMARK   24  A    between atoms: CA_41  and  N_40 
REMARK   25  A    between atoms: CA_41  and  CB_44 
REMARK   26  A    between atoms: C_42  and  CA_41 
REMARK       I    between atoms: N_49  and  C_42 
REMARK   27  A    between atoms: CB_44  and  CG_45 
REMARK   28  A    between atoms: CG_45  and  CD_46 
REMARK   29  A    between atoms: CD_46  and  CE_47 
REMARK   30  A    between atoms: CE_47  and  NZ_48 
REMARK   31  A    between atoms: CA_50  and  N_49 
REMARK   32  A    between atoms: C_51  and  CA_50 
REMARK       I    between atoms: N_53  and  C_51 
REMARK   33  A    between atoms: CA_54  and  N_53 
REMARK   34  A    between atoms: CA_54  and  CB_57 
REMARK   35  A    between atoms: C_55  and  CA_54 
REMARK       I    between atoms: N_61  and  C_55 
REMARK   36  A    between atoms: CB_57  and  CG_58 
REMARK       I    between atoms: CG_58  and  ND2_60 
REMARK   37  A    between atoms: CA_62  and  N_61 
REMARK   38  A    between atoms: CA_62  and  CB_65 
REMARK   39  A    between atoms: C_63  and  CA_62 
REMARK       I    between atoms: N_69  and  C_63 
REMARK   40  A    between atoms: CB_65  and  CG_66 
REMARK   41  A    between atoms: CG_66  and  CD1_67 
REMARK   42  A    between atoms: CG_66  and  CD2_68 
REMARK   43  A    between atoms: C_71  and  CA_70 
REMARK       I    between atoms: N_76  and  C_71 
REMARK   44  A    between atoms: CA_77  and  N_76 
REMARK   45  A    between atoms: CA_77  and  CB_80 
REMARK   46  A    between atoms: C_78  and  CA_77 
REMARK       I    between atoms: C_78  and  N_83 
REMARK   47  A    between atoms: CB_80  and  CG2_82 
REMARK   48  A    between atoms: CB_80  and  CG1_81 
REMARK   49  A    between atoms: N_83  and  CA_84 
REMARK   50  A    between atoms: CA_84  and  CB_87 
REMARK   51  A    between atoms: CA_84  and  C_85 
REMARK   52  A    between atoms: C_85  and  O1_94 
REMARK   53  A    between atoms: CB_87  and  CG_88 
REMARK   54  A    between atoms: CG_88  and  CD_89 
REMARK   55  A    between atoms: CD_89  and  NE_90 
REMARK       I    between atoms: NE_90  and  CZ_91 
REMARK       I    between atoms: CZ_91  and  NH2_93 
REMARK       I    between atoms: CZ_91  and  NH1_92 
ROOT
ATOM      1  CA  LYS d   1      23.068  10.455  -6.117  0.00  0.00     0.089 C 
ATOM      2  H49 LYS d   1      23.638  10.594  -7.048  0.00  0.00     0.087 H 
ENDROOT
BRANCH   1   3
ATOM      3  N   LYS d   1      21.647  10.537  -6.446  0.00  0.00    -0.346 N 
ATOM      4  C   GLN d   1      20.694  10.712  -5.535  0.00  0.00     0.241 C 
ATOM      5  O   GLN d   1      20.916  10.816  -4.328  0.00  0.00    -0.271 OA
ATOM      6  H48 LYS d   1      21.377  10.457  -7.406  0.00  0.00     0.163 HD
BRANCH   4   7
ATOM      7  CA  GLN d   1      19.271  10.776  -6.079  0.00  0.00     0.090 C 
ATOM      8  H41 GLN d   1      19.049   9.819  -6.573  0.00  0.00     0.087 H 
BRANCH   7   9
ATOM      9  N   GLN d   1      18.279  10.980  -5.027  0.00  0.00    -0.346 N 
ATOM     10  C   LEU d   1      17.067  10.432  -5.084  0.00  0.00     0.241 C 
ATOM     11  O   LEU d   1      16.697   9.715  -6.015  0.00  0.00    -0.271 OA
ATOM     12  H40 GLN d   1      18.517  11.549  -4.240  0.00  0.00     0.163 HD
BRANCH  10  13
ATOM     13  CA  LEU d   1      16.135  10.737  -3.912  0.00  0.00     0.089 C 
ATOM     14  H30 LEU d   1      16.747  10.866  -3.007  0.00  0.00     0.087 H 
BRANCH  13  15
ATOM     15  N   LEU d   1      15.372  11.961  -4.134  0.00  0.00    -0.346 N 
ATOM     16  C   ARG d   1      15.941  13.141  -4.359  0.00  0.00     0.241 C 
ATOM     17  O   ARG d   1      17.163  13.306  -4.409  0.00  0.00    -0.271 OA
ATOM     18  H29 LEU d   1      14.373  11.909  -4.116  0.00  0.00     0.163 HD
BRANCH  16  19
ATOM     19  CA  ARG d   1      14.974  14.307  -4.560  0.00  0.00     0.089 C 
ATOM     20  H17 ARG d   1      14.195  14.232  -3.787  0.00  0.00     0.087 H 
BRANCH  19  21
ATOM     21  N   ARG d   1      15.608  15.613  -4.423  0.00  0.00    -0.346 N 
ATOM     22  C   ARG d   1      16.617  16.010  -5.193  0.00  0.00     0.248 C 
ATOM     23  O   ARG d   1      17.116  15.308  -6.074  0.00  0.00    -0.271 OA
ATOM     24  H16 ARG d   1      15.269  16.238  -3.719  0.00  0.00     0.163 HD
BRANCH  22  25
ATOM     25  CA  ARG d   1      17.144  17.413  -4.912  0.00  0.00     0.176 C 
ATOM     26  H4  ARG d   1      17.622  17.408  -3.921  0.00  0.00     0.099 H 
BRANCH  25  27
ATOM     27  N   ARG d   1      18.160  17.847  -5.913  0.00  0.00    -0.067 N 
ATOM     28  H1  ARG d   1      18.478  18.776  -5.687  0.00  0.00     0.275 HD
ATOM     29  H2  ARG d   1      17.747  17.847  -6.832  0.00  0.00     0.275 HD
ATOM     30  H3  ARG d   1      18.942  17.211  -5.896  0.00  0.00     0.275 HD
ENDBRANCH  25  27
BRANCH  25  31
ATOM     31  CB  ARG d   1      15.973  18.402  -4.885  0.00  0.00    -0.029 C 
ATOM     32  H5  ARG d   1      15.094  17.881  -4.479  0.00  0.00     0.036 H 
ATOM     33  H6  ARG d   1      15.767  18.717  -5.918  0.00  0.00     0.036 H 
BRANCH  31  34
ATOM     34  CG  ARG d   1      16.213  19.653  -4.046  0.00  0.00    -0.047 C 
ATOM     35  H7  ARG d   1      15.421  20.385  -4.262  0.00  0.00     0.035 H 
ATOM     36  H8  ARG d   1      17.191  20.080  -4.314  0.00  0.00     0.035 H 
BRANCH  34  37
ATOM     37  CD  ARG d   1      16.202  19.337  -2.550  0.00  0.00     0.009 C 
ATOM     38  H9  ARG d   1      15.254  18.838  -2.302  0.00  0.00     0.064 H 
ATOM     39  H10 ARG d   1      16.277  20.281  -1.990  0.00  0.00     0.064 H 
BRANCH  37  40
ATOM     40  NE  ARG d   1      17.307  18.467  -2.153  0.00  0.00    -0.227 N 
ATOM     41  CZ  ARG d   1      17.471  17.969  -0.930  0.00  0.00     0.665 C 
ATOM     42  NH2 ARG d   1      18.511  17.191  -0.662  0.00  0.00    -0.235 N 
ATOM     43  NH1 ARG d   1      16.598  18.251   0.028  0.00  0.00    -0.235 N 
ATOM     44  H14 ARG d   1      19.192  16.969  -1.402  0.00  0.00     0.174 HD
ATOM     45  H15 ARG d   1      18.638  16.809   0.286  0.00  0.00     0.174 HD
ATOM     46  H12 ARG d   1      16.728  17.864   0.974  0.00  0.00     0.174 HD
ATOM     47  H13 ARG d   1      15.790  18.857  -0.174  0.00  0.00     0.174 HD
ATOM     48  H11 ARG d   1      18.006  18.223  -2.869  0.00  0.00     0.177 HD
ENDBRANCH  37  40
ENDBRANCH  34  37
ENDBRANCH  31  34
ENDBRANCH  25  31
ENDBRANCH  22  25
ENDBRANCH  19  21
BRANCH  19  49
ATOM     49  CB  ARG d   1      14.304  14.191  -5.933  0.00  0.00    -0.036 C 
ATOM     50  H18 ARG d   1      15.093  14.081  -6.692  0.00  0.00     0.036 H 
ATOM     51  H19 ARG d   1      13.742  15.118  -6.120  0.00  0.00     0.036 H 
BRANCH  49  52
ATOM     52  CG  ARG d   1      13.341  13.014  -6.073  0.00  0.00    -0.048 C 
ATOM     53  H20 ARG d   1      13.784  12.138  -5.576  0.00  0.00     0.035 H 
ATOM     54  H21 ARG d   1      13.204  12.799  -7.143  0.00  0.00     0.035 H 
BRANCH  52  55
ATOM     55  CD  ARG d   1      11.966  13.285  -5.450  0.00  0.00     0.009 C 
ATOM     56  H22 ARG d   1      11.322  12.414  -5.640  0.00  0.00     0.064 H 
ATOM     57  H23 ARG d   1      11.535  14.173  -5.936  0.00  0.00     0.064 H 
BRANCH  55  58
ATOM     58  NE  ARG d   1      12.005  13.523  -4.007  0.00  0.00    -0.227 N 
ATOM     59  CZ  ARG d   1      12.107  14.723  -3.440  0.00  0.00     0.665 C 
ATOM     60  NH2 ARG d   1      12.131  14.831  -2.119  0.00  0.00    -0.235 N 
ATOM     61  NH1 ARG d   1      12.181  15.815  -4.189  0.00  0.00    -0.235 N 
ATOM     62  H27 ARG d   1      12.074  13.986  -1.532  0.00  0.00     0.174 HD
ATOM     63  H28 ARG d   1      12.207  15.759  -1.679  0.00  0.00     0.174 HD
ATOM     64  H25 ARG d   1      12.260  16.741  -3.744  0.00  0.00     0.174 HD
ATOM     65  H26 ARG d   1      12.160  15.738  -5.216  0.00  0.00     0.174 HD
ATOM     66  H24 ARG d   1      11.950  12.704  -3.385  0.00  0.00     0.177 HD
ENDBRANCH  55  58
ENDBRANCH  52  55
ENDBRANCH  49  52
ENDBRANCH  19  49
ENDBRANCH  16  19
ENDBRANCH  13  15
BRANCH  13  67
ATOM     67  CB  LEU d   1      15.165   9.570  -3.691  0.00  0.00    -0.035 C 
ATOM     68  H31 LEU d   1      14.648   9.397  -4.646  0.00  0.00     0.037 H 
ATOM     69  H32 LEU d   1      14.437   9.897  -2.934  0.00  0.00     0.037 H 
BRANCH  67  70
ATOM     70  CG  LEU d   1      15.712   8.220  -3.229  0.00  0.00    -0.059 C 
ATOM     71  H33 LEU d   1      16.362   7.806  -4.014  0.00  0.00     0.038 H 
BRANCH  70  72
ATOM     72  CD1 LEU d   1      16.526   8.389  -1.955  0.00  0.00    -0.073 C 
ATOM     73  H34 LEU d   1      16.913   7.410  -1.635  0.00  0.00     0.028 H 
ATOM     74  H35 LEU d   1      15.886   8.807  -1.164  0.00  0.00     0.028 H 
ATOM     75  H36 LEU d   1      17.367   9.072  -2.145  0.00  0.00     0.028 H 
ENDBRANCH  70  72
BRANCH  70  76
ATOM     76  CD2 LEU d   1      14.546   7.271  -2.996  0.00  0.00    -0.073 C 
ATOM     77  H37 LEU d   1      13.970   7.162  -3.927  0.00  0.00     0.028 H 
ATOM     78  H38 LEU d   1      13.895   7.677  -2.208  0.00  0.00     0.028 H 
ATOM     79  H39 LEU d   1      14.930   6.288  -2.685  0.00  0.00     0.028 H 
ENDBRANCH  70  76
ENDBRANCH  67  70
ENDBRANCH  13  67
ENDBRANCH  10  13
ENDBRANCH   7   9
BRANCH   7  80
ATOM     80  CB  GLN d   1      19.180  11.898  -7.122  0.00  0.00    -0.030 C 
ATOM     81  H42 GLN d   1      20.144  11.955  -7.649  0.00  0.00     0.037 H 
ATOM     82  H43 GLN d   1      18.995  12.844  -6.593  0.00  0.00     0.037 H 
BRANCH  80  83
ATOM     83  CG  GLN d   1      18.082  11.712  -8.159  0.00  0.00     0.011 C 
ATOM     84  H44 GLN d   1      18.041  12.608  -8.795  0.00  0.00     0.047 H 
ATOM     85  H45 GLN d   1      17.121  11.588  -7.638  0.00  0.00     0.047 H 
BRANCH  83  86
ATOM     86  CD  GLN d   1      18.318  10.499  -9.041  0.00  0.00     0.215 C 
ATOM     87  NE2 GLN d   1      17.342   9.600  -9.087  0.00  0.00    -0.370 N 
ATOM     88  H46 GLN d   1      17.443   8.781  -9.652  0.00  0.00     0.159 HD
ATOM     89  H47 GLN d   1      16.506   9.742  -8.557  0.00  0.00     0.159 HD
ATOM     90  OE1 GLN d   1      19.367  10.375  -9.677  0.00  0.00    -0.274 OA
ENDBRANCH  83  86
ENDBRANCH  80  83
ENDBRANCH   7  80
ENDBRANCH   4   7
ENDBRANCH   1   3
BRANCH   1  91
ATOM     91  CB  LYS d   1      23.454  11.575  -5.143  0.00  0.00    -0.038 C 
ATOM     92  H50 LYS d   1      23.078  11.308  -4.144  0.00  0.00     0.036 H 
ATOM     93  H51 LYS d   1      22.973  12.505  -5.480  0.00  0.00     0.036 H 
BRANCH  91  94
ATOM     94  CG  LYS d   1      24.956  11.824  -5.037  0.00  0.00    -0.061 C 
ATOM     95  H52 LYS d   1      25.449  10.890  -4.729  0.00  0.00     0.033 H 
ATOM     96  H53 LYS d   1      25.133  12.599  -4.277  0.00  0.00     0.033 H 
BRANCH  94  97
ATOM     97  CD  LYS d   1      25.562  12.286  -6.361  0.00  0.00    -0.043 C 
ATOM     98  H54 LYS d   1      25.355  11.527  -7.129  0.00  0.00     0.035 H 
ATOM     99  H55 LYS d   1      26.649  12.392  -6.235  0.00  0.00     0.035 H 
BRANCH  97 100
ATOM    100  CE  LYS d   1      24.988  13.623  -6.824  0.00  0.00     0.080 C 
ATOM    101  H56 LYS d   1      25.573  13.974  -7.686  0.00  0.00     0.075 H 
ATOM    102  H57 LYS d   1      25.079  14.346  -6.000  0.00  0.00     0.075 H 
BRANCH 100 103
ATOM    103  NZ  LYS d   1      23.553  13.543  -7.227  0.00  0.00    -0.079 N 
ATOM    104  H58 LYS d   1      23.235  14.453  -7.521  0.00  0.00     0.274 HD
ATOM    105  H59 LYS d   1      23.001  13.231  -6.444  0.00  0.00     0.274 HD
ATOM    106  H60 LYS d   1      23.454  12.890  -7.989  0.00  0.00     0.274 HD
ENDBRANCH 100 103
ENDBRANCH  97 100
ENDBRANCH  94  97
ENDBRANCH  91  94
ENDBRANCH   1  91
BRANCH   1 107
ATOM    107  C   LYS d   1      23.454   9.097  -5.528  0.00  0.00     0.240 C 
ATOM    108  O   LYS d   1      23.745   8.987  -4.336  0.00  0.00    -0.271 OA
ATOM    109  N   GLY d   1      23.455   8.065  -6.372  0.00  0.00    -0.351 N 
ATOM    110  H61 GLY d   1      23.204   8.207  -7.330  0.00  0.00     0.163 HD
BRANCH 109 111
ATOM    111  CA  GLY d   1      23.818   6.736  -5.910  0.00  0.00     0.069 C 
ATOM    112  H62 GLY d   1      23.252   6.533  -4.989  0.00  0.00     0.078 H 
ATOM    113  H63 GLY d   1      24.895   6.740  -5.686  0.00  0.00     0.078 H 
BRANCH 111 114
ATOM    114  C   GLY d   1      23.549   5.597  -6.882  0.00  0.00     0.236 C 
ATOM    115  O   GLY d   1      22.549   5.608  -7.598  0.00  0.00    -0.272 OA
ATOM    116  N   ASN d   1      24.448   4.613  -6.895  0.00  0.00    -0.346 N 
ATOM    117  H64 ASN d   1      25.235   4.682  -6.282  0.00  0.00     0.163 HD
BRANCH 116 118
ATOM    118  CA  ASN d   1      24.344   3.436  -7.761  0.00  0.00     0.097 C 
ATOM    119  H65 ASN d   1      23.339   3.005  -7.641  0.00  0.00     0.088 H 
BRANCH 118 120
ATOM    120  CB  ASN d   1      24.536   3.834  -9.230  0.00  0.00     0.036 C 
ATOM    121  H66 ASN d   1      24.767   2.929  -9.812  0.00  0.00     0.051 H 
ATOM    122  H67 ASN d   1      25.379   4.538  -9.296  0.00  0.00     0.051 H 
BRANCH 120 123
ATOM    123  CG  ASN d   1      23.305   4.494  -9.828  0.00  0.00     0.217 C 
ATOM    124  ND2 ASN d   1      23.462   5.727 -10.296  0.00  0.00    -0.370 N 
ATOM    125  H68 ASN d   1      22.686   6.211 -10.701  0.00  0.00     0.159 HD
ATOM    126  H69 ASN d   1      24.356   6.172 -10.243  0.00  0.00     0.159 HD
ATOM    127  OD1 ASN d   1      22.226   3.899  -9.869  0.00  0.00    -0.274 OA
ENDBRANCH 120 123
ENDBRANCH 118 120
BRANCH 118 128
ATOM    128  C   ASN d   1      25.383   2.367  -7.378  0.00  0.00     0.241 C 
ATOM    129  O   ASN d   1      26.572   2.668  -7.244  0.00  0.00    -0.271 OA
ATOM    130  N   LEU d   1      24.929   1.124  -7.214  0.00  0.00    -0.346 N 
ATOM    131  H70 LEU d   1      23.954   0.946  -7.346  0.00  0.00     0.163 HD
BRANCH 130 132
ATOM    132  CA  LEU d   1      25.808   0.006  -6.846  0.00  0.00     0.090 C 
ATOM    133  H71 LEU d   1      26.719   0.067  -7.459  0.00  0.00     0.087 H 
BRANCH 132 134
ATOM    134  CB  LEU d   1      26.192   0.092  -5.363  0.00  0.00    -0.035 C 
ATOM    135  H72 LEU d   1      26.655  -0.873  -5.111  0.00  0.00     0.037 H 
ATOM    136  H73 LEU d   1      25.248   0.201  -4.809  0.00  0.00     0.037 H 
BRANCH 134 137
ATOM    137  CG  LEU d   1      27.132   1.170  -4.818  0.00  0.00    -0.059 C 
ATOM    138  H74 LEU d   1      26.836   2.146  -5.230  0.00  0.00     0.038 H 
BRANCH 137 139
ATOM    139  CD1 LEU d   1      27.005   1.213  -3.307  0.00  0.00    -0.073 C 
ATOM    140  H75 LEU d   1      27.677   1.985  -2.904  0.00  0.00     0.028 H 
ATOM    141  H76 LEU d   1      27.279   0.234  -2.888  0.00  0.00     0.028 H 
ATOM    142  H77 LEU d   1      25.967   1.451  -3.033  0.00  0.00     0.028 H 
ENDBRANCH 137 139
BRANCH 137 143
ATOM    143  CD2 LEU d   1      28.567   0.884  -5.229  0.00  0.00    -0.073 C 
ATOM    144  H78 LEU d   1      28.636   0.857  -6.327  0.00  0.00     0.028 H 
ATOM    145  H79 LEU d   1      28.879  -0.087  -4.819  0.00  0.00     0.028 H 
ATOM    146  H80 LEU d   1      29.225   1.675  -4.840  0.00  0.00     0.028 H 
ENDBRANCH 137 143
ENDBRANCH 134 137
ENDBRANCH 132 134
BRANCH 132 147
ATOM    147  C   LEU d   1      25.144  -1.356  -7.083  0.00  0.00     0.243 C 
ATOM    148  O   LEU d   1      24.430  -1.856  -6.211  0.00  0.00    -0.271 OA
ATOM    149  N   PRO d   1      25.370  -1.979  -8.256  0.00  0.00    -0.337 N 
ATOM    150  CA  PRO d   1      24.746  -3.284  -8.501  0.00  0.00     0.091 C 
ATOM    151  CD  PRO d   1      26.050  -1.503  -9.471  0.00  0.00    -0.001 C 
ATOM    152  CB  PRO d   1      25.195  -3.616  -9.923  0.00  0.00    -0.036 C 
ATOM    153  H81 PRO d   1      23.650  -3.209  -8.453  0.00  0.00     0.087 H 
ATOM    154  CG  PRO d   1      25.316  -2.255 -10.554  0.00  0.00    -0.048 C 
ATOM    155  H82 PRO d   1      24.445  -4.230 -10.443  0.00  0.00     0.036 H 
ATOM    156  H83 PRO d   1      26.162  -4.141  -9.922  0.00  0.00     0.036 H 
ATOM    157  H84 PRO d   1      25.898  -2.292 -11.486  0.00  0.00     0.035 H 
ATOM    158  H85 PRO d   1      24.329  -1.813 -10.755  0.00  0.00     0.035 H 
ATOM    159  H86 PRO d   1      27.119  -1.762  -9.459  0.00  0.00     0.064 H 
ATOM    160  H87 PRO d   1      25.937  -0.416  -9.592  0.00  0.00     0.064 H 
BRANCH 150 161
ATOM    161  C   PRO d   1      25.217  -4.312  -7.473  0.00  0.00     0.241 C 
ATOM    162  O   PRO d   1      26.419  -4.498  -7.270  0.00  0.00    -0.271 OA
ATOM    163  N   VAL d   1      24.258  -4.969  -6.825  0.00  0.00    -0.346 N 
ATOM    164  H88 VAL d   1      23.302  -4.775  -7.048  0.00  0.00     0.163 HD
BRANCH 163 165
ATOM    165  CA  VAL d   1      24.558  -5.963  -5.800  0.00  0.00     0.092 C 
ATOM    166  H89 VAL d   1      25.602  -6.280  -5.940  0.00  0.00     0.088 H 
BRANCH 165 167
ATOM    167  CB  VAL d   1      24.417  -5.349  -4.386  0.00  0.00    -0.033 C 
ATOM    168  H90 VAL d   1      24.406  -6.160  -3.643  0.00  0.00     0.042 H 
BRANCH 167 169
ATOM    169  CG2 VAL d   1      23.113  -4.568  -4.289  0.00  0.00    -0.071 C 
ATOM    170  H94 VAL d   1      22.267  -5.239  -4.499  0.00  0.00     0.028 H 
ATOM    171  H95 VAL d   1      23.121  -3.748  -5.022  0.00  0.00     0.028 H 
ATOM    172  H96 VAL d   1      23.009  -4.153  -3.276  0.00  0.00     0.028 H 
ENDBRANCH 167 169
BRANCH 167 173
ATOM    173  CG1 VAL d   1      25.593  -4.427  -4.096  0.00  0.00    -0.071 C 
ATOM    174  H91 VAL d   1      25.482  -3.997  -3.090  0.00  0.00     0.028 H 
ATOM    175  H92 VAL d   1      25.616  -3.617  -4.840  0.00  0.00     0.028 H 
ATOM    176  H93 VAL d   1      26.530  -5.000  -4.149  0.00  0.00     0.028 H 
ENDBRANCH 167 173
ENDBRANCH 165 167
BRANCH 165 177
ATOM    177  C   VAL d   1      23.672  -7.205  -5.887  0.00  0.00     0.241 C 
ATOM    178  O   VAL d   1      22.809  -7.311  -6.760  0.00  0.00    -0.271 OA
ATOM    179  N   ARG d   1      23.899  -8.141  -4.968  0.00  0.00    -0.345 N 
ATOM    180  H97 ARG d   1      24.614  -7.982  -4.287  0.00  0.00     0.163 HD
BRANCH 179 181
ATOM    181  CA  ARG d   1      23.145  -9.391  -4.914  0.00  0.00     0.093 C 
ATOM    182  H98 ARG d   1      23.352  -9.961  -5.832  0.00  0.00     0.089 H 
BRANCH 181 183
ATOM    183  CB  ARG d   1      23.593 -10.221  -3.706  0.00  0.00    -0.035 C 
ATOM    184  H99 ARG d   1      23.129 -11.216  -3.778  0.00  0.00     0.036 H 
ATOM    185 0H10 ARG d   1      23.243  -9.719  -2.792  0.00  0.00     0.036 H 
BRANCH 183 186
ATOM    186  CG  ARG d   1      25.103 -10.402  -3.606  0.00  0.00    -0.047 C 
ATOM    187 1H10 ARG d   1      25.574  -9.412  -3.513  0.00  0.00     0.035 H 
ATOM    188 2H10 ARG d   1      25.463 -10.895  -4.521  0.00  0.00     0.035 H 
BRANCH 186 189
ATOM    189  CD  ARG d   1      25.495 -11.250  -2.402  0.00  0.00     0.009 C 
ATOM    190 3H10 ARG d   1      24.908 -10.919  -1.532  0.00  0.00     0.064 H 
ATOM    191 4H10 ARG d   1      26.566 -11.101  -2.200  0.00  0.00     0.064 H 
BRANCH 189 192
ATOM    192  NE  ARG d   1      25.253 -12.676  -2.614  0.00  0.00    -0.227 N 
ATOM    193  CZ  ARG d   1      25.936 -13.434  -3.468  0.00  0.00     0.665 C 
ATOM    194  NH2 ARG d   1      25.647 -14.723  -3.586  0.00  0.00    -0.235 N 
ATOM    195  NH1 ARG d   1      26.912 -12.909  -4.199  0.00  0.00    -0.235 N 
ATOM    196 8H10 ARG d   1      24.891 -15.135  -3.021  0.00  0.00     0.174 HD
ATOM    197 9H10 ARG d   1      26.179 -15.312  -4.243  0.00  0.00     0.174 HD
ATOM    198 6H10 ARG d   1      27.437 -13.501  -4.858  0.00  0.00     0.174 HD
ATOM    199 7H10 ARG d   1      27.144 -11.910  -4.107  0.00  0.00     0.174 HD
ATOM    200 5H10 ARG d   1      24.504 -13.123  -2.066  0.00  0.00     0.177 HD
ENDBRANCH 189 192
ENDBRANCH 186 189
ENDBRANCH 183 186
ENDBRANCH 181 183
BRANCH 181 201
ATOM    201  C   ARG d   1      21.642  -9.135  -4.832  0.00  0.00     0.163 C 
ATOM    202  O   ARG d   1      20.899  -9.728  -5.641  0.00  0.00    -0.648 OA
BRANCH 201 203
ATOM    203  O1  ARG d   1      21.139  -8.304  -3.924  0.00  0.00    -0.775 OA
ATOM    204 0H11 ARG d   1      20.533  -8.776  -3.365  0.00  0.00     0.167 HD
ENDBRANCH 201 203
ENDBRANCH 181 201
ENDBRANCH 179 181
ENDBRANCH 165 177
ENDBRANCH 163 165
ENDBRANCH 150 161
ENDBRANCH 132 147
ENDBRANCH 130 132
ENDBRANCH 118 128
ENDBRANCH 116 118
ENDBRANCH 111 114
ENDBRANCH 109 111
ENDBRANCH   1 107
TORSDOF 55
