REMARK  14 active torsions:
REMARK  status: ('A' for Active; 'I' for Inactive)
REMARK    1  A    between atoms: C1_1  and  O1_2 
REMARK    2  A    between atoms: C2_3  and  O2_4 
REMARK    3  A    between atoms: N4_6  and  C7_10 
REMARK    4  A    between atoms: C5_7  and  C6_8 
REMARK    5  A    between atoms: C6_8  and  O6_9 
REMARK    6  A    between atoms: C7_10  and  C8_11 
REMARK    7  A    between atoms: C8_11  and  O8_12 
REMARK    8  A    between atoms: C8_11  and  C9_13 
REMARK    9  A    between atoms: C9_13  and  O9_14 
REMARK   10  A    between atoms: C9_13  and  C10_15 
REMARK   11  A    between atoms: C10_15  and  O10_16 
REMARK   12  A    between atoms: C10_15  and  C11_17 
REMARK   13  A    between atoms: C11_17  and  O11_18 
REMARK   14  A    between atoms: C11_17  and  C12_19 
ROOT
ATOM      1  C7  W72 d   1      29.721  65.355  10.333  0.00  0.00     0.110 C 
ATOM      2  H12 W72 d   1      28.656  65.411  10.063  0.00  0.00     0.080 H 
ATOM      3  H13 W72 d   1      30.029  66.298  10.808  0.00  0.00     0.080 H 
ENDROOT
BRANCH   1   4
ATOM      4  N4  W72 d   1      30.580  65.033   9.133  0.00  0.00    -0.057 N 
ATOM      5  C3  W72 d   1      31.948  65.557   9.504  0.00  0.00     0.110 C 
ATOM      6  C2  W72 d   1      32.592  66.098   8.244  0.00  0.00     0.085 C 
ATOM      7  H5  W72 d   1      31.852  66.360  10.250  0.00  0.00     0.080 H 
ATOM      8  H6  W72 d   1      32.561  64.743   9.918  0.00  0.00     0.080 H 
ATOM      9  C1  W72 d   1      31.514  66.207   7.175  0.00  0.00     0.091 C 
ATOM     10  H3  W72 d   1      32.880  67.139   8.453  0.00  0.00     0.089 H 
ATOM     11  C5  W72 d   1      30.302  66.038   8.080  0.00  0.00     0.151 C 
ATOM     12  H1  W72 d   1      31.568  65.267   6.607  0.00  0.00     0.090 H 
ATOM     13  H8  W72 d   1      30.193  66.989   8.622  0.00  0.00     0.092 H 
ATOM     14  H7  W72 d   1      30.531  64.070   8.840  0.00  0.00     0.280 HD
BRANCH   6  15
ATOM     15  O2  W72 d   1      33.825  65.439   8.002  0.00  0.00    -0.391 OA
ATOM     16  H4  W72 d   1      34.362  65.476   8.785  0.00  0.00     0.210 HD
ENDBRANCH   6  15
BRANCH   9  17
ATOM     17  O1  W72 d   1      31.623  67.141   6.130  0.00  0.00    -0.391 OA
ATOM     18  H2  W72 d   1      32.413  66.966   5.632  0.00  0.00     0.210 HD
ENDBRANCH   9  17
BRANCH  11  19
ATOM     19  C6  W72 d   1      29.014  65.906   7.282  0.00  0.00     0.046 C 
ATOM     20  H9  W72 d   1      29.037  64.951   6.737  0.00  0.00     0.077 H 
ATOM     21  H10 W72 d   1      28.961  66.737   6.564  0.00  0.00     0.077 H 
BRANCH  19  22
ATOM     22  O6  W72 d   1      27.851  65.935   8.089  0.00  0.00    -0.399 OA
ATOM     23  H11 W72 d   1      27.814  66.759   8.560  0.00  0.00     0.209 HD
ENDBRANCH  19  22
ENDBRANCH  11  19
ENDBRANCH   1   4
BRANCH   1  24
ATOM     24  C8  W72 d   1      30.009  64.155  11.232  0.00  0.00     0.086 C 
ATOM     25  H14 W72 d   1      31.079  64.207  11.482  0.00  0.00     0.089 H 
BRANCH  24  26
ATOM     26  O8  W72 d   1      29.775  62.951  10.502  0.00  0.00    -0.391 OA
ATOM     27  H15 W72 d   1      29.954  62.204  11.060  0.00  0.00     0.210 HD
ENDBRANCH  24  26
BRANCH  24  28
ATOM     28  C9  W72 d   1      29.254  64.049  12.561  0.00  0.00     0.089 C 
ATOM     29  H16 W72 d   1      29.842  63.406  13.232  0.00  0.00     0.091 H 
BRANCH  28  30
ATOM     30  O9  W72 d   1      29.160  65.338  13.166  0.00  0.00    -0.390 OA
ATOM     31  H17 W72 d   1      28.693  65.926  12.584  0.00  0.00     0.210 HD
ENDBRANCH  28  30
BRANCH  28  32
ATOM     32  C10 W72 d   1      27.875  63.386  12.381  0.00  0.00     0.097 C 
ATOM     33  H18 W72 d   1      28.000  62.632  11.590  0.00  0.00     0.091 H 
BRANCH  32  34
ATOM     34  O10 W72 d   1      27.069  64.469  11.918  0.00  0.00    -0.390 OA
ATOM     35  H19 W72 d   1      26.182  64.162  11.773  0.00  0.00     0.210 HD
ENDBRANCH  32  34
BRANCH  32  36
ATOM     36  C11 W72 d   1      27.041  62.706  13.473  0.00  0.00     0.146 C 
ATOM     37  H20 W72 d   1      27.407  61.675  13.592  0.00  0.00     0.104 H 
BRANCH  36  38
ATOM     38  O11 W72 d   1      25.660  62.643  13.108  0.00  0.00    -0.382 OA
ATOM     39  H21 W72 d   1      25.328  63.523  12.977  0.00  0.00     0.210 HD
ENDBRANCH  36  38
BRANCH  36  40
ATOM     40  C12 W72 d   1      27.230  63.441  14.814  0.00  0.00     0.205 C 
ATOM     41  O12 W72 d   1      26.306  64.351  15.368  0.00  0.00    -0.646 OA
ATOM     42  O13 W72 d   1      28.356  63.235  15.299  0.00  0.00    -0.646 OA
ENDBRANCH  36  40
ENDBRANCH  32  36
ENDBRANCH  28  32
ENDBRANCH  24  28
ENDBRANCH   1  24
TORSDOF 14
