REMARK  7 active torsions:
REMARK  status: ('A' for Active; 'I' for Inactive)
REMARK    1  A    between atoms: C2_13  and  N1_7 
REMARK    2  A    between atoms: N4_10  and  C14_23 
REMARK    3  A    between atoms: C7_18  and  C10_21 
REMARK    4  A    between atoms: C17_26  and  C24_29 
REMARK    5  A    between atoms: C25_30  and  C11_31 
REMARK    6  A    between atoms: C11_31  and  N7_32 
REMARK    7  A    between atoms: C27_39  and  O2_41 
ROOT
ATOM      1  C14 5QC d   1      21.905  30.752  60.344  0.00  0.00     0.037 A 
ATOM      2  C15 5QC d   1      22.009  32.173  60.614  0.00  0.00    -0.056 A 
ATOM      3  C16 5QC d   1      21.402  33.115  59.695  0.00  0.00    -0.070 A 
ATOM      4  C17 5QC d   1      20.690  32.628  58.498  0.00  0.00    -0.025 A 
ATOM      5  C18 5QC d   1      20.635  31.185  58.215  0.00  0.00    -0.070 A 
ATOM      6  C19 5QC d   1      21.247  30.233  59.138  0.00  0.00    -0.056 A 
ATOM      7  H6  5QC d   1      22.535  32.527  61.493  0.00  0.00     0.087 H 
ATOM      8  H7  5QC d   1      21.471  34.179  59.887  0.00  0.00     0.084 H 
ATOM      9  H8  5QC d   1      20.139  30.828  57.320  0.00  0.00     0.084 H 
ATOM     10  H9  5QC d   1      21.216  29.168  58.938  0.00  0.00     0.087 H 
ENDROOT
BRANCH   1  11
ATOM     11  N4  5QC d   1      22.387  29.911  61.310  0.00  0.00    -0.312 N 
ATOM     12  C13 5QC d   1      21.559  28.994  61.914  0.00  0.00     0.277 C 
ATOM     13  O1  5QC d   1      20.360  28.907  61.656  0.00  0.00    -0.265 OA
ATOM     14  C9  5QC d   1      22.151  28.145  62.854  0.00  0.00     0.135 A 
ATOM     15  N2  5QC d   1      21.575  27.409  63.850  0.00  0.00    -0.227 N 
ATOM     16  C8  5QC d   1      23.529  27.966  62.973  0.00  0.00     0.013 A 
ATOM     17  N3  5QC d   1      22.558  26.789  64.577  0.00  0.00    -0.162 NA
ATOM     18  C5  5QC d   1      20.265  27.380  64.236  0.00  0.00     0.060 A 
ATOM     19  C7  5QC d   1      23.758  27.116  64.063  0.00  0.00     0.169 A 
ATOM     20  C4  5QC d   1      19.264  26.557  63.528  0.00  0.00    -0.052 A 
ATOM     21  C6  5QC d   1      19.865  28.202  65.393  0.00  0.00    -0.039 A 
ATOM     22  C3  5QC d   1      17.853  26.584  63.985  0.00  0.00    -0.045 A 
ATOM     23  H4  5QC d   1      19.556  25.941  62.685  0.00  0.00     0.087 H 
ATOM     24  C   5QC d   1      17.448  27.418  65.138  0.00  0.00     0.115 A 
ATOM     25  H3  5QC d   1      17.111  25.986  63.469  0.00  0.00     0.088 H 
ATOM     26  O3  5QC d   1      16.280  27.628  65.749  0.00  0.00    -0.211 OA
ATOM     27  C1  5QC d   1      18.464  28.197  65.818  0.00  0.00     0.050 A 
ATOM     28  N   5QC d   1      16.394  28.464  66.781  0.00  0.00    -0.109 NA
ATOM     29  C2  5QC d   1      17.707  28.823  66.843  0.00  0.00     0.162 A 
ATOM     30  H5  5QC d   1      20.598  28.801  65.921  0.00  0.00     0.088 H 
ATOM     31  C31 5QC d   1      24.475  28.663  62.028  0.00  0.00    -0.021 C 
ATOM     32  C29 5QC d   1      23.801  30.025  61.750  0.00  0.00     0.007 C 
ATOM     33  H27 5QC d   1      24.590  28.088  61.097  0.00  0.00     0.042 H 
ATOM     34  H28 5QC d   1      25.460  28.804  62.496  0.00  0.00     0.042 H 
ATOM     35  H25 5QC d   1      23.831  30.622  62.673  0.00  0.00     0.065 H 
ATOM     36  H26 5QC d   1      24.370  30.540  60.962  0.00  0.00     0.065 H 
BRANCH  19  37
ATOM     37  C10 5QC d   1      25.131  26.709  64.561  0.00  0.00     0.436 C 
ATOM     38  F   5QC d   1      25.817  26.386  63.485  0.00  0.00    -0.164 F 
ATOM     39  F1  5QC d   1      25.641  27.775  65.197  0.00  0.00    -0.164 F 
ATOM     40  F2  5QC d   1      25.035  25.654  65.407  0.00  0.00    -0.164 F 
ENDBRANCH  19  37
BRANCH  29  41
ATOM     41  N1  5QC d   1      18.273  29.652  67.721  0.00  0.00    -0.381 N 
ATOM     42  H1  5QC d   1      19.283  29.848  67.667  0.00  0.00     0.157 HD
ATOM     43  H2  5QC d   1      17.700  30.096  68.453  0.00  0.00     0.157 HD
ENDBRANCH  29  41
ENDBRANCH   1  11
BRANCH   4  44
ATOM     44  C24 5QC d   1      19.997  33.623  57.570  0.00  0.00    -0.018 A 
ATOM     45  C25 5QC d   1      20.262  33.728  56.133  0.00  0.00    -0.021 A 
ATOM     46  C22 5QC d   1      19.536  34.676  55.255  0.00  0.00    -0.074 A 
ATOM     47  C26 5QC d   1      18.523  35.556  55.808  0.00  0.00    -0.082 A 
ATOM     48  H19 5QC d   1      19.762  34.712  54.196  0.00  0.00     0.084 H 
ATOM     49  C21 5QC d   1      18.242  35.438  57.225  0.00  0.00    -0.082 A 
ATOM     50  H20 5QC d   1      17.998  36.272  55.187  0.00  0.00     0.083 H 
ATOM     51  C12 5QC d   1      18.948  34.512  58.107  0.00  0.00    -0.072 A 
ATOM     52  H18 5QC d   1      17.470  36.068  57.651  0.00  0.00     0.083 H 
ATOM     53  H17 5QC d   1      18.700  34.477  59.162  0.00  0.00     0.084 H 
BRANCH  45  54
ATOM     54  C11 5QC d   1      21.321  32.853  55.426  0.00  0.00     0.108 C 
ATOM     55  H10 5QC d   1      20.850  32.352  54.568  0.00  0.00     0.083 H 
ATOM     56  H11 5QC d   1      21.687  32.097  56.136  0.00  0.00     0.083 H 
BRANCH  54  57
ATOM     57  N7  5QC d   1      22.471  33.647  54.941  0.00  0.00    -0.065 N 
ATOM     58  C20 5QC d   1      23.570  32.992  54.182  0.00  0.00     0.086 C 
ATOM     59  C28 5QC d   1      24.814  33.795  54.592  0.00  0.00    -0.017 C 
ATOM     60  H13 5QC d   1      23.396  33.062  53.098  0.00  0.00     0.076 H 
ATOM     61  H14 5QC d   1      23.671  31.935  54.469  0.00  0.00     0.076 H 
ATOM     62  C27 5QC d   1      24.488  33.848  56.085  0.00  0.00     0.060 C 
ATOM     63  H22 5QC d   1      24.847  34.792  54.129  0.00  0.00     0.039 H 
ATOM     64  H23 5QC d   1      25.752  33.261  54.381  0.00  0.00     0.039 H 
ATOM     65  C23 5QC d   1      23.088  34.443  56.025  0.00  0.00     0.107 C 
ATOM     66  H21 5QC d   1      24.528  32.860  56.567  0.00  0.00     0.085 H 
ATOM     67  H15 5QC d   1      22.553  34.307  56.977  0.00  0.00     0.080 H 
ATOM     68  H16 5QC d   1      23.117  35.513  55.770  0.00  0.00     0.080 H 
ATOM     69  H12 5QC d   1      22.063  34.304  54.295  0.00  0.00     0.280 HD
BRANCH  62  70
ATOM     70  O2  5QC d   1      25.257  34.717  56.707  0.00  0.00    -0.394 OA
ATOM     71  H24 5QC d   1      25.035  34.731  57.630  0.00  0.00     0.210 HD
ENDBRANCH  62  70
ENDBRANCH  54  57
ENDBRANCH  45  54
ENDBRANCH   4  44
TORSDOF 7
