REMARK  9 active torsions:
REMARK  status: ('A' for Active; 'I' for Inactive)
REMARK    1  A    between atoms: C1_1  and  C2_2 
REMARK    2  A    between atoms: C7_4  and  C10_7 
REMARK    3  A    between atoms: C25_33  and  C11_8 
REMARK    4  A    between atoms: C11_8  and  N7_34 
REMARK    5  A    between atoms: N4_26  and  C14_11 
REMARK    6  A    between atoms: N7_34  and  C20_15 
REMARK    7  A    between atoms: C17_31  and  C27_19 
REMARK    8  A    between atoms: C5_29  and  N2_24 
REMARK    9  A    between atoms: N7_34  and  C23_35 
ROOT
ATOM      1  C14 4QC d   1      21.630   5.212  58.003  0.00  0.00     0.037 A 
ATOM      2  C15 4QC d   1      20.893   5.666  59.216  0.00  0.00    -0.056 A 
ATOM      3  C16 4QC d   1      20.308   4.661  60.101  0.00  0.00    -0.070 A 
ATOM      4  C19 4QC d   1      21.690   3.772  57.653  0.00  0.00    -0.056 A 
ATOM      5  C17 4QC d   1      20.442   3.203  59.806  0.00  0.00    -0.025 A 
ATOM      6  C18 4QC d   1      21.101   2.773  58.543  0.00  0.00    -0.070 A 
ATOM      7  H6  4QC d   1      20.793   6.722  59.438  0.00  0.00     0.087 H 
ATOM      8  H7  4QC d   1      19.768   4.979  60.986  0.00  0.00     0.084 H 
ATOM      9  H8  4QC d   1      22.172   3.459  56.734  0.00  0.00     0.087 H 
ATOM     10  H19 4QC d   1      21.144   1.721  58.283  0.00  0.00     0.084 H 
ENDROOT
BRANCH   1  11
ATOM     11  N4  4QC d   1      22.251   6.133  57.153  0.00  0.00    -0.312 N 
ATOM     12  C12 4QC d   1      23.698   6.419  57.188  0.00  0.00     0.007 C 
ATOM     13  C24 4QC d   1      24.280   6.715  55.814  0.00  0.00    -0.021 C 
ATOM     14  H4  4QC d   1      23.867   7.292  57.836  0.00  0.00     0.065 H 
ATOM     15  H5  4QC d   1      24.218   5.545  57.608  0.00  0.00     0.065 H 
ATOM     16  C8  4QC d   1      23.375   7.690  55.082  0.00  0.00     0.013 A 
ATOM     17  H14 4QC d   1      25.281   7.157  55.927  0.00  0.00     0.042 H 
ATOM     18  H15 4QC d   1      24.355   5.781  55.238  0.00  0.00     0.042 H 
ATOM     19  C7  4QC d   1      23.633   8.604  54.041  0.00  0.00     0.169 A 
ATOM     20  C9  4QC d   1      21.998   7.671  55.332  0.00  0.00     0.135 A 
ATOM     21  N3  4QC d   1      22.425   9.085  53.656  0.00  0.00    -0.162 NA
ATOM     22  N2  4QC d   1      21.413   8.522  54.417  0.00  0.00    -0.227 N 
ATOM     23  C13 4QC d   1      21.430   6.899  56.385  0.00  0.00     0.277 C 
ATOM     24  O1  4QC d   1      20.219   6.892  56.643  0.00  0.00    -0.265 OA
BRANCH  19  25
ATOM     25  C10 4QC d   1      25.034   8.976  53.574  0.00  0.00     0.436 C 
ATOM     26  F   4QC d   1      25.504   7.925  52.982  0.00  0.00    -0.164 F 
ATOM     27  F1  4QC d   1      25.818   9.332  54.580  0.00  0.00    -0.164 F 
ATOM     28  F2  4QC d   1      24.940   9.973  52.720  0.00  0.00    -0.164 F 
ENDBRANCH  19  25
BRANCH  22  29
ATOM     29  C5  4QC d   1      20.042   8.685  54.144  0.00  0.00     0.060 A 
ATOM     30  C4  4QC d   1      19.221   9.668  54.867  0.00  0.00    -0.055 A 
ATOM     31  C3  4QC d   1      17.789   9.860  54.594  0.00  0.00    -0.080 A 
ATOM     32  H17 4QC d   1      19.691  10.276  55.632  0.00  0.00     0.087 H 
ATOM     33  C   4QC d   1      17.129   9.061  53.580  0.00  0.00    -0.069 A 
ATOM     34  H1  4QC d   1      17.226  10.600  55.151  0.00  0.00     0.083 H 
ATOM     35  C1  4QC d   1      17.942   8.090  52.861  0.00  0.00     0.019 A 
ATOM     36  H16 4QC d   1      16.073   9.181  53.366  0.00  0.00     0.085 H 
ATOM     37  C6  4QC d   1      19.381   7.876  53.119  0.00  0.00    -0.041 A 
ATOM     38  H18 4QC d   1      19.937   7.133  52.559  0.00  0.00     0.088 H 
BRANCH  35  39
ATOM     39  C2  4QC d   1      17.335   7.323  51.774  0.00  0.00     0.182 C 
ATOM     40  O2  4QC d   1      15.927   7.236  51.386  0.00  0.00    -0.172 OA
ATOM     41  N1  4QC d   1      18.183   6.663  51.085  0.00  0.00    -0.377 N 
ATOM     42  H24 4QC d   1      17.875   6.103  50.316  0.00  0.00     0.158 HD
ATOM     43  H25 4QC d   1      19.155   6.706  51.314  0.00  0.00     0.158 HD
ENDBRANCH  35  39
ENDBRANCH  22  29
ENDBRANCH   1  11
BRANCH   5  44
ATOM     44  C27 4QC d   1      19.900   2.188  60.822  0.00  0.00    -0.018 A 
ATOM     45  C21 4QC d   1      18.744   1.364  60.419  0.00  0.00    -0.072 A 
ATOM     46  C22 4QC d   1      18.115   0.467  61.398  0.00  0.00    -0.082 A 
ATOM     47  H12 4QC d   1      18.361   1.420  59.406  0.00  0.00     0.084 H 
ATOM     48  C28 4QC d   1      18.579   0.326  62.798  0.00  0.00    -0.082 A 
ATOM     49  H13 4QC d   1      17.265  -0.124  61.078  0.00  0.00     0.083 H 
ATOM     50  C29 4QC d   1      19.738   1.135  63.189  0.00  0.00    -0.074 A 
ATOM     51  H26 4QC d   1      18.087  -0.341  63.497  0.00  0.00     0.083 H 
ATOM     52  C25 4QC d   1      20.401   2.029  62.227  0.00  0.00    -0.021 A 
ATOM     53  H27 4QC d   1      20.113   1.073  64.204  0.00  0.00     0.084 H 
BRANCH  52  54
ATOM     54  C11 4QC d   1      21.710   2.774  62.715  0.00  0.00     0.107 C 
ATOM     55  H2  4QC d   1      21.533   3.839  62.504  0.00  0.00     0.083 H 
ATOM     56  H3  4QC d   1      22.515   2.400  62.065  0.00  0.00     0.083 H 
BRANCH  54  57
ATOM     57  N7  4QC d   1      22.277   2.736  64.110  0.00  0.00    -0.075 N 
ATOM     58  H20 4QC d   1      21.462   2.795  64.701  0.00  0.00     0.279 HD
BRANCH  57  59
ATOM     59  C20 4QC d   1      23.022   1.541  64.582  0.00  0.00     0.066 C 
ATOM     60  H9  4QC d   1      23.355   1.702  65.618  0.00  0.00     0.068 H 
ATOM     61  H10 4QC d   1      23.898   1.377  63.937  0.00  0.00     0.068 H 
ATOM     62  H11 4QC d   1      22.365   0.659  64.540  0.00  0.00     0.068 H 
ENDBRANCH  57  59
BRANCH  57  63
ATOM     63  C23 4QC d   1      23.133   3.891  64.455  0.00  0.00     0.066 C 
ATOM     64  H21 4QC d   1      22.642   4.821  64.133  0.00  0.00     0.068 H 
ATOM     65  H22 4QC d   1      24.103   3.793  63.946  0.00  0.00     0.068 H 
ATOM     66  H23 4QC d   1      23.291   3.918  65.543  0.00  0.00     0.068 H 
ENDBRANCH  57  63
ENDBRANCH  54  57
ENDBRANCH  52  54
ENDBRANCH   5  44
TORSDOF 9
