REMARK  3 active torsions:
REMARK  status: ('A' for Active; 'I' for Inactive)
REMARK    1  A    between atoms: C1_1  and  C2_2 
REMARK    2  A    between atoms: N2_4  and  C3_5 
REMARK    3  A    between atoms: N3_7  and  O1_8 
ROOT
ATOM      1  C2  73Q d   1      25.543  95.270  26.387  0.00  0.00     0.069 A 
ATOM      2  N1  73Q d   1      25.671  94.294  25.456  0.00  0.00    -0.175 NA
ATOM      3  N2  73Q d   1      25.398  93.077  26.044  0.00  0.00    -0.255 N 
ATOM      4  C4  73Q d   1      25.102  93.246  27.307  0.00  0.00     0.167 A 
ATOM      5  N3  73Q d   1      24.748  92.361  28.335  0.00  0.00    -0.205 N 
ATOM      6  C5  73Q d   1      24.472  92.779  29.606  0.00  0.00     0.079 A 
ATOM      7  C6  73Q d   1      24.095  91.941  30.706  0.00  0.00    -0.052 A 
ATOM      8  C7  73Q d   1      23.820  92.401  31.991  0.00  0.00    -0.060 A 
ATOM      9  C8  73Q d   1      23.913  93.810  32.275  0.00  0.00     0.035 A 
ATOM     10 CL   73Q d   1      23.599  94.458  33.810  0.00  0.00    -0.084 Cl
ATOM     11  C9  73Q d   1      24.277  94.670  31.234  0.00  0.00    -0.046 A 
ATOM     12  C10 73Q d   1      24.555  94.197  29.916  0.00  0.00     0.046 A 
ATOM     13  C11 73Q d   1      24.921  95.133  28.868  0.00  0.00     0.200 A 
ATOM     14  O2  73Q d   1      24.995  96.380  29.124  0.00  0.00    -0.286 OA
ATOM     15  C12 73Q d   1      25.189  94.686  27.583  0.00  0.00     0.089 A 
ATOM     16  H8  73Q d   1      24.019  90.875  30.525  0.00  0.00     0.087 H 
ATOM     17  H9  73Q d   1      23.538  91.704  32.772  0.00  0.00     0.086 H 
ATOM     18  H10 73Q d   1      24.351  95.733  31.435  0.00  0.00     0.087 H 
ENDROOT
BRANCH   1  19
ATOM     19  C1  73Q d   1      25.751  96.738  26.143  0.00  0.00    -0.033 C 
ATOM     20  H1  73Q d   1      25.580  97.293  27.077  0.00  0.00     0.035 H 
ATOM     21  H2  73Q d   1      25.044  97.086  25.375  0.00  0.00     0.035 H 
ATOM     22  H3  73Q d   1      26.781  96.910  25.798  0.00  0.00     0.035 H 
ENDBRANCH   1  19
BRANCH   3  23
ATOM     23  C3  73Q d   1      25.435  91.806  25.353  0.00  0.00     0.004 C 
ATOM     24  H4  73Q d   1      25.177  90.999  26.055  0.00  0.00     0.059 H 
ATOM     25  H5  73Q d   1      26.445  91.635  24.953  0.00  0.00     0.059 H 
ATOM     26  H6  73Q d   1      24.711  91.817  24.525  0.00  0.00     0.059 H 
ENDBRANCH   3  23
BRANCH   5  27
ATOM     27  O1  73Q d   1      24.666  91.039  28.080  0.00  0.00    -0.281 OA
ATOM     28  H7  73Q d   1      24.417  90.579  28.873  0.00  0.00     0.245 HD
ENDBRANCH   5  27
TORSDOF 3
