REMARK  5 active torsions:
REMARK  status: ('A' for Active; 'I' for Inactive)
REMARK    1  A    between atoms: C21_7  and  S18_8 
REMARK    2  A    between atoms: S18_8  and  N17_11 
REMARK    3  A    between atoms: N17_11  and  C9_12 
REMARK    4  A    between atoms: C6_14  and  C4_15 
REMARK    5  A    between atoms: N8_21  and  C11_22 
ROOT
ATOM      1  C9  SP0 d   1      11.271  -8.207  36.104  0.00  0.00     0.141 A 
ATOM      2  C10 SP0 d   1      11.930  -7.696  37.141  0.00  0.00    -0.007 A 
ATOM      3  C6  SP0 d   1      11.979  -8.678  38.036  0.00  0.00     0.098 A 
ATOM      4  N7  SP0 d   1      11.367  -9.737  37.506  0.00  0.00    -0.164 NA
ATOM      5  N8  SP0 d   1      10.931  -9.462  36.387  0.00  0.00    -0.216 N 
ATOM      6  H6  SP0 d   1      12.340  -6.692  37.236  0.00  0.00     0.093 H 
ENDROOT
BRANCH   1   7
ATOM      7  N17 SP0 d   1      10.986  -7.579  34.963  0.00  0.00    -0.264 N 
ATOM      8  H5  SP0 d   1      10.595  -8.125  34.222  0.00  0.00     0.180 HD
BRANCH   7   9
ATOM      9  S18 SP0 d   1      11.225  -5.989  34.680  0.00  0.00     0.264 S 
ATOM     10  O19 SP0 d   1      12.576  -5.508  35.134  0.00  0.00    -0.200 OA
ATOM     11  O20 SP0 d   1      10.988  -5.840  33.203  0.00  0.00    -0.200 OA
BRANCH   9  12
ATOM     12  C21 SP0 d   1      10.029  -5.051  35.520  0.00  0.00     0.082 A 
ATOM     13  C22 SP0 d   1       8.788  -4.927  34.914  0.00  0.00    -0.023 A 
ATOM     14  C23 SP0 d   1       7.813  -4.208  35.588  0.00  0.00     0.117 A 
ATOM     15  H1  SP0 d   1       8.587  -5.376  33.948  0.00  0.00     0.090 H 
ATOM     16  F40 SP0 d   1       6.615  -4.084  34.981  0.00  0.00    -0.206 F 
ATOM     17  C24 SP0 d   1       8.089  -3.638  36.828  0.00  0.00    -0.046 A 
ATOM     18  C25 SP0 d   1       9.341  -3.768  37.425  0.00  0.00    -0.079 A 
ATOM     19  H2  SP0 d   1       7.313  -3.081  37.340  0.00  0.00     0.088 H 
ATOM     20  C26 SP0 d   1      10.325  -4.482  36.754  0.00  0.00    -0.060 A 
ATOM     21  H3  SP0 d   1       9.543  -3.322  38.392  0.00  0.00     0.083 H 
ATOM     22  H4  SP0 d   1      11.312  -4.595  37.187  0.00  0.00     0.085 H 
ENDBRANCH   9  12
ENDBRANCH   7   9
ENDBRANCH   1   7
BRANCH   5  23
ATOM     23  C11 SP0 d   1      10.310 -10.319  35.572  0.00  0.00     0.060 A 
ATOM     24  C12 SP0 d   1      10.689 -11.660  35.573  0.00  0.00    -0.052 A 
ATOM     25  C13 SP0 d   1      10.086 -12.573  34.722  0.00  0.00    -0.043 A 
ATOM     26  H10 SP0 d   1      11.467 -11.994  36.250  0.00  0.00     0.087 H 
ATOM     27  C14 SP0 d   1       9.101 -12.116  33.856  0.00  0.00     0.116 A 
ATOM     28  H11 SP0 d   1      10.376 -13.617  34.732  0.00  0.00     0.088 H 
ATOM     29  F27 SP0 d   1       8.495 -12.955  32.997  0.00  0.00    -0.206 F 
ATOM     30  C15 SP0 d   1       8.720 -10.783  33.831  0.00  0.00    -0.043 A 
ATOM     31  C16 SP0 d   1       9.327  -9.882  34.693  0.00  0.00    -0.052 A 
ATOM     32  H12 SP0 d   1       7.953 -10.447  33.142  0.00  0.00     0.088 H 
ATOM     33  H13 SP0 d   1       9.035  -8.838  34.681  0.00  0.00     0.087 H 
ENDBRANCH   5  23
BRANCH   3  34
ATOM     34  C4  SP0 d   1      12.583  -8.624  39.288  0.00  0.00     0.035 A 
ATOM     35  C5  SP0 d   1      13.139  -7.616  39.952  0.00  0.00    -0.064 A 
ATOM     36  C1  SP0 d   1      13.676  -7.889  41.139  0.00  0.00    -0.075 A 
ATOM     37  H7  SP0 d   1      13.155  -6.607  39.542  0.00  0.00     0.085 H 
ATOM     38  C2  SP0 d   1      13.607  -9.152  41.544  0.00  0.00    -0.044 A 
ATOM     39  H8  SP0 d   1      14.147  -7.117  41.746  0.00  0.00     0.084 H 
ATOM     40  S3  SP0 d   1      12.802  -9.981  40.292  0.00  0.00    -0.100 SA
ATOM     41  H9  SP0 d   1      13.984  -9.569  42.477  0.00  0.00     0.095 H 
ENDBRANCH   3  34
TORSDOF 5
