REMARK  7 active torsions:
REMARK  status: ('A' for Active; 'I' for Inactive)
REMARK    1  A    between atoms: C29_7  and  N8_8 
REMARK    2  A    between atoms: C6_10  and  C3_11 
REMARK    3  A    between atoms: C9_17  and  N11_18 
REMARK    4  A    between atoms: N11_18  and  S12_19 
REMARK    5  A    between atoms: S12_19  and  C15_22 
REMARK    6  A    between atoms: C19_25  and  C25_26 
REMARK    7  A    between atoms: C17_31  and  C21_32 
ROOT
ATOM      1  N8  SP3 d   1     -10.445   9.239  36.579  0.00  0.00    -0.216 N 
ATOM      2  N7  SP3 d   1     -10.941   9.571  37.657  0.00  0.00    -0.164 NA
ATOM      3  C6  SP3 d   1     -11.455   8.500  38.268  0.00  0.00     0.098 A 
ATOM      4  C10 SP3 d   1     -11.247   7.443  37.487  0.00  0.00    -0.007 A 
ATOM      5  C9  SP3 d   1     -10.619   7.928  36.418  0.00  0.00     0.141 A 
ATOM      6  H8  SP3 d   1     -11.528   6.409  37.680  0.00  0.00     0.093 H 
ENDROOT
BRANCH   5   7
ATOM      7  N11 SP3 d   1     -10.194   7.238  35.359  0.00  0.00    -0.264 N 
ATOM      8  H9  SP3 d   1      -9.530   7.702  34.772  0.00  0.00     0.180 HD
BRANCH   7   9
ATOM      9  S12 SP3 d   1     -10.622   5.730  34.901  0.00  0.00     0.264 S 
ATOM     10  O13 SP3 d   1     -12.077   5.525  35.185  0.00  0.00    -0.200 OA
ATOM     11  O14 SP3 d   1     -10.300   5.618  33.436  0.00  0.00    -0.200 OA
BRANCH   9  12
ATOM     12  C15 SP3 d   1      -9.595   4.614  35.705  0.00  0.00     0.081 A 
ATOM     13  C16 SP3 d   1      -8.411   4.318  35.056  0.00  0.00    -0.046 A 
ATOM     14  C17 SP3 d   1      -7.522   3.446  35.665  0.00  0.00     0.050 A 
ATOM     15  H10 SP3 d   1      -8.183   4.758  34.092  0.00  0.00     0.087 H 
ATOM     16  C18 SP3 d   1      -7.809   2.890  36.913  0.00  0.00    -0.053 A 
ATOM     17  C19 SP3 d   1      -9.008   3.205  37.559  0.00  0.00     0.050 A 
ATOM     18  H12 SP3 d   1      -7.102   2.214  37.381  0.00  0.00     0.086 H 
ATOM     19  C20 SP3 d   1      -9.899   4.088  36.953  0.00  0.00    -0.046 A 
ATOM     20  H11 SP3 d   1     -10.822   4.362  37.452  0.00  0.00     0.087 H 
BRANCH  14  21
ATOM     21  C21 SP3 d   1      -6.247   3.173  34.883  0.00  0.00     0.417 C 
ATOM     22  F24 SP3 d   1      -6.636   2.841  33.677  0.00  0.00    -0.166 F 
ATOM     23  F22 SP3 d   1      -5.539   4.285  34.782  0.00  0.00    -0.166 F 
ATOM     24  F23 SP3 d   1      -5.552   2.150  35.347  0.00  0.00    -0.166 F 
ENDBRANCH  14  21
BRANCH  17  25
ATOM     25  C25 SP3 d   1      -9.351   2.584  38.929  0.00  0.00     0.417 C 
ATOM     26  F28 SP3 d   1      -8.225   2.044  39.399  0.00  0.00    -0.166 F 
ATOM     27  F26 SP3 d   1      -9.892   3.476  39.749  0.00  0.00    -0.166 F 
ATOM     28  F27 SP3 d   1     -10.288   1.632  38.947  0.00  0.00    -0.166 F 
ENDBRANCH  17  25
ENDBRANCH   9  12
ENDBRANCH   7   9
ENDBRANCH   5   7
BRANCH   1  29
ATOM     29  C29 SP3 d   1      -9.887  10.076  35.701  0.00  0.00     0.060 A 
ATOM     30  C30 SP3 d   1     -10.354  11.382  35.583  0.00  0.00    -0.052 A 
ATOM     31  C31 SP3 d   1      -9.791  12.256  34.664  0.00  0.00    -0.043 A 
ATOM     32  H1  SP3 d   1     -11.166  11.720  36.216  0.00  0.00     0.087 H 
ATOM     33  C32 SP3 d   1      -8.757  11.787  33.860  0.00  0.00     0.116 A 
ATOM     34  H2  SP3 d   1     -10.147  13.276  34.575  0.00  0.00     0.088 H 
ATOM     35  F35 SP3 d   1      -8.189  12.595  32.948  0.00  0.00    -0.206 F 
ATOM     36  C33 SP3 d   1      -8.268  10.492  33.972  0.00  0.00    -0.043 A 
ATOM     37  C34 SP3 d   1      -8.851   9.635  34.891  0.00  0.00    -0.052 A 
ATOM     38  H3  SP3 d   1      -7.445  10.158  33.351  0.00  0.00     0.088 H 
ATOM     39  H4  SP3 d   1      -8.496   8.614  34.978  0.00  0.00     0.087 H 
ENDBRANCH   1  29
BRANCH   3  40
ATOM     40  C3  SP3 d   1     -12.124   8.513  39.491  0.00  0.00     0.035 A 
ATOM     41  C2  SP3 d   1     -12.984   7.644  40.024  0.00  0.00    -0.064 A 
ATOM     42  C1  SP3 d   1     -13.519   7.983  41.205  0.00  0.00    -0.075 A 
ATOM     43  H5  SP3 d   1     -13.238   6.709  39.526  0.00  0.00     0.085 H 
ATOM     44  C5  SP3 d   1     -13.160   9.158  41.717  0.00  0.00    -0.044 A 
ATOM     45  H6  SP3 d   1     -14.216   7.326  41.723  0.00  0.00     0.084 H 
ATOM     46  S4  SP3 d   1     -12.066   9.817  40.592  0.00  0.00    -0.100 SA
ATOM     47  H7  SP3 d   1     -13.494   9.602  42.654  0.00  0.00     0.095 H 
ENDBRANCH   3  40
TORSDOF 7
