REMARK  8 active torsions:
REMARK  status: ('A' for Active; 'I' for Inactive)
REMARK    1  A    between atoms: C3_3  and  C10_7 
REMARK       I    between atoms: N12_9  and  C29_18 
REMARK    2  A    between atoms: C13_10  and  C17_12 
REMARK    3  A    between atoms: C13_10  and  C7_24 
REMARK       I    between atoms: C29_18  and  N30_19 
REMARK    4  A    between atoms: N30_19  and  C31_20 
REMARK    5  A    between atoms: C31_20  and  C9_26 
REMARK    6  A    between atoms: C7_24  and  C8_25 
REMARK    7  A    between atoms: C8_25  and  C11_27 
REMARK    8  A    between atoms: C11_27  and  N2_28 
ROOT
ATOM      1  C10 N9H d   1      19.711  15.336 108.110  0.00  0.00     0.071 C 
ATOM      2  N1  N9H d   1      19.018  16.361 108.624  0.00  0.00    -0.171 NA
ATOM      3  N12 N9H d   1      18.103  15.979 109.587  0.00  0.00    -0.205 N 
ATOM      4  C13 N9H d   1      18.015  14.518 109.645  0.00  0.00     0.093 C 
ATOM      5  C14 N9H d   1      19.316  14.144 108.959  0.00  0.00     0.007 C 
ATOM      6  C29 N9H d   1      17.076  16.816 110.108  0.00  0.00     0.339 C 
ATOM      7  N30 N9H d   1      17.177  18.173 110.016  0.00  0.00    -0.342 N 
ATOM      8  O39 N9H d   1      16.140  16.216 110.623  0.00  0.00    -0.245 OA
ATOM      9  H4  N9H d   1      20.095  13.936 109.708  0.00  0.00     0.046 H 
ATOM     10  H5  N9H d   1      19.170  13.257 108.325  0.00  0.00     0.046 H 
ATOM     11  H11 N9H d   1      18.066  18.544 109.748  0.00  0.00     0.164 HD
ENDROOT
BRANCH   4  12
ATOM     12  C17 N9H d   1      18.057  14.009 111.100  0.00  0.00    -0.028 A 
ATOM     13  C19 N9H d   1      17.245  12.882 111.565  0.00  0.00    -0.074 A 
ATOM     14  C20 N9H d   1      17.382  12.372 112.947  0.00  0.00    -0.082 A 
ATOM     15  H6  N9H d   1      16.536  12.417 110.889  0.00  0.00     0.084 H 
ATOM     16  C21 N9H d   1      18.329  13.023 113.859  0.00  0.00    -0.083 A 
ATOM     17  H7  N9H d   1      16.790  11.528 113.282  0.00  0.00     0.083 H 
ATOM     18  C22 N9H d   1      19.123  14.155 113.434  0.00  0.00    -0.082 A 
ATOM     19  H8  N9H d   1      18.436  12.649 114.871  0.00  0.00     0.083 H 
ATOM     20  C23 N9H d   1      18.965  14.647 112.054  0.00  0.00    -0.074 A 
ATOM     21  H9  N9H d   1      19.819  14.631 114.116  0.00  0.00     0.083 H 
ATOM     22  H10 N9H d   1      19.540  15.509 111.735  0.00  0.00     0.084 H 
ENDBRANCH   4  12
BRANCH   4  23
ATOM     23  C7  N9H d   1      16.812  13.978 108.757  0.00  0.00    -0.034 C 
ATOM     24  H14 N9H d   1      15.877  14.269 109.258  0.00  0.00     0.037 H 
ATOM     25  H15 N9H d   1      16.889  12.881 108.732  0.00  0.00     0.037 H 
BRANCH  23  26
ATOM     26  C8  N9H d   1      16.720  14.485 107.245  0.00  0.00    -0.040 C 
ATOM     27  H16 N9H d   1      17.718  14.303 106.819  0.00  0.00     0.035 H 
ATOM     28  H17 N9H d   1      16.544  15.569 107.315  0.00  0.00     0.035 H 
BRANCH  26  29
ATOM     29  C11 N9H d   1      15.687  13.962 106.135  0.00  0.00     0.080 C 
ATOM     30  H21 N9H d   1      15.751  14.643 105.274  0.00  0.00     0.075 H 
ATOM     31  H22 N9H d   1      14.678  14.014 106.569  0.00  0.00     0.075 H 
BRANCH  29  32
ATOM     32  N2  N9H d   1      15.887  12.584 105.632  0.00  0.00    -0.079 N 
ATOM     33  H23 N9H d   1      15.181  12.372 104.944  0.00  0.00     0.274 HD
ATOM     34  H24 N9H d   1      15.816  11.933 106.398  0.00  0.00     0.274 HD
ATOM     35  H25 N9H d   1      16.800  12.509 105.211  0.00  0.00     0.274 HD
ENDBRANCH  29  32
ENDBRANCH  26  29
ENDBRANCH  23  26
ENDBRANCH   4  23
BRANCH   1  36
ATOM     36  C3  N9H d   1      20.872  15.424 107.161  0.00  0.00     0.032 A 
ATOM     37  C2  N9H d   1      21.031  16.587 106.328  0.00  0.00    -0.031 A 
ATOM     38  C1  N9H d   1      22.146  16.572 105.430  0.00  0.00     0.117 A 
ATOM     39  H1  N9H d   1      20.346  17.426 106.378  0.00  0.00     0.089 H 
ATOM     40  C6  N9H d   1      23.091  15.507 105.286  0.00  0.00    -0.043 A 
ATOM     41  F41 N9H d   1      22.325  17.615 104.693  0.00  0.00    -0.206 F 
ATOM     42  C5  N9H d   1      22.967  14.371 106.126  0.00  0.00    -0.042 A 
ATOM     43  H3  N9H d   1      23.885  15.567 104.550  0.00  0.00     0.088 H 
ATOM     44  C4  N9H d   1      21.867  14.375 107.043  0.00  0.00     0.128 A 
ATOM     45  H2  N9H d   1      23.667  13.545 106.077  0.00  0.00     0.088 H 
ATOM     46  F40 N9H d   1      21.786  13.345 107.864  0.00  0.00    -0.205 F 
ENDBRANCH   1  36
BRANCH   7  47
ATOM     47  C31 N9H d   1      16.094  19.150 110.276  0.00  0.00    -0.006 C 
ATOM     48  H12 N9H d   1      16.543  20.140 110.447  0.00  0.00     0.063 H 
ATOM     49  H13 N9H d   1      15.543  18.837 111.175  0.00  0.00     0.063 H 
BRANCH  47  50
ATOM     50  C9  N9H d   1      15.113  19.248 109.105  0.00  0.00    -0.061 C 
ATOM     51  H18 N9H d   1      14.330  19.983 109.343  0.00  0.00     0.029 H 
ATOM     52  H19 N9H d   1      14.652  18.265 108.929  0.00  0.00     0.029 H 
ATOM     53  H20 N9H d   1      15.652  19.567 108.201  0.00  0.00     0.029 H 
ENDBRANCH  47  50
ENDBRANCH   7  47
TORSDOF 8
