REMARK  11 active torsions:
REMARK  status: ('A' for Active; 'I' for Inactive)
REMARK    1  A    between atoms: C1_1  and  N3_7 
REMARK    2  A    between atoms: C2_3  and  N4_8 
REMARK    3  A    between atoms: C3_5  and  C5_9 
REMARK    4  A    between atoms: C12_16  and  C4_6 
REMARK    5  A    between atoms: C5_9  and  C6_10 
REMARK    6  A    between atoms: C14_18  and  C21_26 
REMARK    7  A    between atoms: C14_18  and  C20_27 
REMARK    8  A    between atoms: N5_20  and  C16_21 
REMARK    9  A    between atoms: C16_21  and  C17_22 
REMARK   10  A    between atoms: C17_22  and  N6_23 
REMARK       I    between atoms: N6_23  and  C13_24 
REMARK   11  A    between atoms: C13_24  and  C19_25 
ROOT
ATOM      1  C7  3IG d   1      80.066  21.698  70.887  0.00  0.00    -0.069 A 
ATOM      2  C8  3IG d   1      80.882  20.871  70.051  0.00  0.00    -0.048 A 
ATOM      3  C9  3IG d   1      82.064  21.393  69.448  0.00  0.00     0.097 A 
ATOM      4  C10 3IG d   1      82.433  22.751  69.674  0.00  0.00     0.071 A 
ATOM      5  C11 3IG d   1      81.599  23.517  70.516  0.00  0.00    -0.043 A 
ATOM      6  C12 3IG d   1      80.442  23.033  71.115  0.00  0.00    -0.018 A 
ATOM      7  O3  3IG d   1      82.842  20.549  68.652  0.00  0.00    -0.329 OA
ATOM      8  C14 3IG d   1      83.771  21.152  67.722  0.00  0.00     0.141 C 
ATOM      9  C15 3IG d   1      84.331  22.567  68.151  0.00  0.00     0.259 C 
ATOM     10  N5  3IG d   1      83.616  23.281  69.100  0.00  0.00    -0.311 N 
ATOM     11  O4  3IG d   1      85.351  22.989  67.621  0.00  0.00    -0.270 OA
ATOM     12  H10 3IG d   1      79.166  21.298  71.340  0.00  0.00     0.085 H 
ATOM     13  H11 3IG d   1      80.599  19.840  69.875  0.00  0.00     0.087 H 
ATOM     14  H12 3IG d   1      81.878  24.547  70.707  0.00  0.00     0.088 H 
ENDROOT
BRANCH   6  15
ATOM     15  C4  3IG d   1      79.717  24.030  71.962  0.00  0.00     0.046 A 
ATOM     16  C1  3IG d   1      78.774  24.927  71.399  0.00  0.00     0.153 A 
ATOM     17  N1  3IG d   1      78.124  25.887  72.109  0.00  0.00    -0.045 NA
ATOM     18  C2  3IG d   1      78.412  25.954  73.420  0.00  0.00     0.722 A 
ATOM     19  N2  3IG d   1      79.280  25.142  74.053  0.00  0.00    -0.067 NA
ATOM     20  C3  3IG d   1      79.942  24.175  73.357  0.00  0.00     0.068 A 
BRANCH  16  21
ATOM     21  N3  3IG d   1      78.481  24.879  70.087  0.00  0.00    -0.383 N 
ATOM     22  H1  3IG d   1      78.934  24.178  69.484  0.00  0.00     0.157 HD
ATOM     23  H2  3IG d   1      77.804  25.543  69.686  0.00  0.00     0.157 HD
ENDBRANCH  16  21
BRANCH  18  24
ATOM     24  N4  3IG d   1      77.808  26.882  74.158  0.00  0.00    -0.231 N 
ATOM     25  H3  3IG d   1      77.135  27.529  73.722  0.00  0.00     0.174 HD
ATOM     26  H4  3IG d   1      78.013  26.954  75.165  0.00  0.00     0.174 HD
ENDBRANCH  18  24
BRANCH  20  27
ATOM     27  C5  3IG d   1      80.908  23.317  74.155  0.00  0.00    -0.026 C 
ATOM     28  H5  3IG d   1      80.977  22.327  73.680  0.00  0.00     0.041 H 
ATOM     29  H6  3IG d   1      80.521  23.207  75.179  0.00  0.00     0.041 H 
BRANCH  27  30
ATOM     30  C6  3IG d   1      82.307  23.928  74.222  0.00  0.00    -0.071 C 
ATOM     31  H7  3IG d   1      82.966  23.271  74.808  0.00  0.00     0.028 H 
ATOM     32  H8  3IG d   1      82.253  24.916  74.702  0.00  0.00     0.028 H 
ATOM     33  H9  3IG d   1      82.709  24.036  73.204  0.00  0.00     0.028 H 
ENDBRANCH  27  30
ENDBRANCH  20  27
ENDBRANCH   6  15
BRANCH  10  34
ATOM     34  C16 3IG d   1      84.135  24.662  69.440  0.00  0.00     0.018 C 
ATOM     35  H13 3IG d   1      83.309  25.380  69.328  0.00  0.00     0.067 H 
ATOM     36  H14 3IG d   1      84.939  24.914  68.733  0.00  0.00     0.067 H 
BRANCH  34  37
ATOM     37  C17 3IG d   1      84.694  24.781  70.878  0.00  0.00     0.010 C 
ATOM     38  H15 3IG d   1      85.691  24.318  70.918  0.00  0.00     0.066 H 
ATOM     39  H16 3IG d   1      84.019  24.259  71.573  0.00  0.00     0.066 H 
BRANCH  37  40
ATOM     40  N6  3IG d   1      84.800  26.188  71.274  0.00  0.00    -0.360 N 
ATOM     41  C13 3IG d   1      85.973  26.736  71.671  0.00  0.00     0.213 C 
ATOM     42  O1  3IG d   1      87.042  26.136  71.742  0.00  0.00    -0.274 OA
ATOM     43  H17 3IG d   1      83.981  26.761  71.250  0.00  0.00     0.162 HD
BRANCH  41  44
ATOM     44  C19 3IG d   1      85.874  28.222  72.030  0.00  0.00    -0.003 C 
ATOM     45  H18 3IG d   1      86.863  28.591  72.341  0.00  0.00     0.040 H 
ATOM     46  H19 3IG d   1      85.158  28.353  72.855  0.00  0.00     0.040 H 
ATOM     47  H20 3IG d   1      85.530  28.789  71.152  0.00  0.00     0.040 H 
ENDBRANCH  41  44
ENDBRANCH  37  40
ENDBRANCH  34  37
ENDBRANCH  10  34
BRANCH   8  48
ATOM     48  C21 3IG d   1      83.087  21.301  66.344  0.00  0.00    -0.039 C 
ATOM     49  H21 3IG d   1      83.790  21.759  65.633  0.00  0.00     0.032 H 
ATOM     50  H22 3IG d   1      82.197  21.940  66.443  0.00  0.00     0.032 H 
ATOM     51  H23 3IG d   1      82.787  20.309  65.975  0.00  0.00     0.032 H 
ENDBRANCH   8  48
BRANCH   8  52
ATOM     52  C20 3IG d   1      84.934  20.156  67.589  0.00  0.00    -0.039 C 
ATOM     53  H24 3IG d   1      85.682  20.557  66.890  0.00  0.00     0.032 H 
ATOM     54  H25 3IG d   1      84.553  19.197  67.208  0.00  0.00     0.032 H 
ATOM     55  H26 3IG d   1      85.399  20.001  68.574  0.00  0.00     0.032 H 
ENDBRANCH   8  52
TORSDOF 11
