REMARK  12 active torsions:
REMARK  status: ('A' for Active; 'I' for Inactive)
REMARK    1  A    between atoms: C1_1  and  N3_7 
REMARK    2  A    between atoms: C2_3  and  N4_8 
REMARK    3  A    between atoms: C3_5  and  C6_9 
REMARK    4  A    between atoms: C12_15  and  C4_6 
REMARK    5  A    between atoms: C6_9  and  C5_28 
REMARK    6  A    between atoms: C14_17  and  C21_25 
REMARK    7  A    between atoms: C14_17  and  C20_26 
REMARK    8  A    between atoms: N5_19  and  C16_20 
REMARK    9  A    between atoms: C16_20  and  C17_21 
REMARK   10  A    between atoms: C17_21  and  C18_22 
REMARK   11  A    between atoms: C18_22  and  O1_23 
REMARK   12  A    between atoms: O1_23  and  C19_24 
ROOT
ATOM      1  C7  5IG d   1      25.996 105.853 127.462  0.00  0.00    -0.069 A 
ATOM      2  C8  5IG d   1      25.193 104.978 126.687  0.00  0.00    -0.048 A 
ATOM      3  C9  5IG d   1      24.073 104.330 127.266  0.00  0.00     0.097 A 
ATOM      4  C10 5IG d   1      23.730 104.556 128.638  0.00  0.00     0.071 A 
ATOM      5  C11 5IG d   1      24.542 105.439 129.360  0.00  0.00    -0.043 A 
ATOM      6  C12 5IG d   1      25.658 106.080 128.811  0.00  0.00    -0.018 A 
ATOM      7  O3  5IG d   1      23.337 103.503 126.441  0.00  0.00    -0.329 OA
ATOM      8  C14 5IG d   1      22.366 102.628 127.030  0.00  0.00     0.141 C 
ATOM      9  C15 5IG d   1      21.870 102.989 128.496  0.00  0.00     0.259 C 
ATOM     10  N5  5IG d   1      22.616 103.915 129.216  0.00  0.00    -0.313 N 
ATOM     11  O4  5IG d   1      20.895 102.409 128.952  0.00  0.00    -0.270 OA
ATOM     12  H7  5IG d   1      26.858 106.341 127.022  0.00  0.00     0.085 H 
ATOM     13  H8  5IG d   1      25.437 104.804 125.645  0.00  0.00     0.087 H 
ATOM     14  H9  5IG d   1      24.294 105.636 130.397  0.00  0.00     0.088 H 
ENDROOT
BRANCH   6  15
ATOM     15  C4  5IG d   1      26.411 106.951 129.747  0.00  0.00     0.046 A 
ATOM     16  C1  5IG d   1      27.365 106.389 130.631  0.00  0.00     0.153 A 
ATOM     17  N1  5IG d   1      28.059 107.107 131.534  0.00  0.00    -0.045 NA
ATOM     18  C2  5IG d   1      27.816 108.420 131.561  0.00  0.00     0.722 A 
ATOM     19  N2  5IG d   1      26.944 109.051 130.756  0.00  0.00    -0.067 NA
ATOM     20  C3  5IG d   1      26.226 108.345 129.841  0.00  0.00     0.068 A 
BRANCH  16  21
ATOM     21  N3  5IG d   1      27.622 105.066 130.620  0.00  0.00    -0.383 N 
ATOM     22  H1  5IG d   1      27.130 104.451 129.956  0.00  0.00     0.157 HD
ATOM     23  H2  5IG d   1      28.311 104.670 131.275  0.00  0.00     0.157 HD
ENDBRANCH  16  21
BRANCH  18  24
ATOM     24  N4  5IG d   1      28.476 109.167 132.439  0.00  0.00    -0.231 N 
ATOM     25  H3  5IG d   1      29.155 108.731 133.078  0.00  0.00     0.174 HD
ATOM     26  H4  5IG d   1      28.308 110.182 132.480  0.00  0.00     0.174 HD
ENDBRANCH  18  24
BRANCH  20  27
ATOM     27  C6  5IG d   1      25.249 109.129 128.966  0.00  0.00    -0.026 C 
ATOM     28  H5  5IG d   1      25.165 108.621 127.994  0.00  0.00     0.041 H 
ATOM     29  H6  5IG d   1      25.649 110.143 128.817  0.00  0.00     0.041 H 
BRANCH  27  30
ATOM     30  C5  5IG d   1      23.855 109.243 129.576  0.00  0.00    -0.071 C 
ATOM     31  H25 5IG d   1      23.204 109.816 128.899  0.00  0.00     0.028 H 
ATOM     32  H26 5IG d   1      23.920 109.758 130.546  0.00  0.00     0.028 H 
ATOM     33  H27 5IG d   1      23.436 108.237 129.723  0.00  0.00     0.028 H 
ENDBRANCH  27  30
ENDBRANCH  20  27
ENDBRANCH   6  15
BRANCH  10  34
ATOM     34  C16 5IG d   1      22.176 104.169 130.634  0.00  0.00     0.005 C 
ATOM     35  H10 5IG d   1      23.073 104.362 131.241  0.00  0.00     0.065 H 
ATOM     36  H11 5IG d   1      21.671 103.264 131.003  0.00  0.00     0.065 H 
BRANCH  34  37
ATOM     37  C17 5IG d   1      21.207 105.368 130.810  0.00  0.00    -0.030 C 
ATOM     38  H12 5IG d   1      20.182 105.027 130.602  0.00  0.00     0.038 H 
ATOM     39  H13 5IG d   1      21.485 106.154 130.093  0.00  0.00     0.038 H 
BRANCH  37  40
ATOM     40  C18 5IG d   1      21.252 105.958 132.231  0.00  0.00     0.020 C 
ATOM     41  H14 5IG d   1      22.146 106.591 132.330  0.00  0.00     0.074 H 
ATOM     42  H15 5IG d   1      21.302 105.136 132.961  0.00  0.00     0.074 H 
BRANCH  40  43
ATOM     43  O1  5IG d   1      20.100 106.740 132.491  0.00  0.00    -0.396 OA
BRANCH  43  44
ATOM     44  C19 5IG d   1      20.044 107.326 133.779  0.00  0.00     0.004 C 
ATOM     45  H16 5IG d   1      19.116 107.908 133.877  0.00  0.00     0.066 H 
ATOM     46  H17 5IG d   1      20.910 107.990 133.918  0.00  0.00     0.066 H 
ATOM     47  H18 5IG d   1      20.063 106.535 134.543  0.00  0.00     0.066 H 
ENDBRANCH  43  44
ENDBRANCH  40  43
ENDBRANCH  37  40
ENDBRANCH  34  37
ENDBRANCH  10  34
BRANCH   8  48
ATOM     48  C21 5IG d   1      22.977 101.214 127.090  0.00  0.00    -0.039 C 
ATOM     49  H19 5IG d   1      22.251 100.520 127.539  0.00  0.00     0.032 H 
ATOM     50  H20 5IG d   1      23.891 101.235 127.702  0.00  0.00     0.032 H 
ATOM     51  H21 5IG d   1      23.224 100.878 126.072  0.00  0.00     0.032 H 
ENDBRANCH   8  48
BRANCH   8  52
ATOM     52  C20 5IG d   1      21.197 102.648 126.042  0.00  0.00    -0.039 C 
ATOM     53  H22 5IG d   1      20.392 101.997 126.413  0.00  0.00     0.032 H 
ATOM     54  H23 5IG d   1      21.539 102.285 125.061  0.00  0.00     0.032 H 
ATOM     55  H24 5IG d   1      20.820 103.676 125.941  0.00  0.00     0.032 H 
ENDBRANCH   8  52
TORSDOF 12
