REMARK  8 active torsions:
REMARK  status: ('A' for Active; 'I' for Inactive)
REMARK    1  A    between atoms: C1_1  and  N3_7 
REMARK    2  A    between atoms: C2_3  and  N4_8 
REMARK    3  A    between atoms: C3_5  and  C5_9 
REMARK    4  A    between atoms: C9_13  and  C4_6 
REMARK    5  A    between atoms: C5_9  and  C6_10 
REMARK    6  A    between atoms: N5_17  and  C12_16 
REMARK    7  A    between atoms: C19_25  and  N5_17 
REMARK    8  A    between atoms: C15_20  and  C19_25 
ROOT
ATOM      1  C7  7IG d   1      24.259 104.461 127.656  0.00  0.00    -0.057 A 
ATOM      2  C8  7IG d   1      24.992 105.228 128.560  0.00  0.00    -0.070 A 
ATOM      3  C9  7IG d   1      26.120 105.974 128.174  0.00  0.00    -0.020 A 
ATOM      4  C10 7IG d   1      26.506 105.933 126.808  0.00  0.00    -0.070 A 
ATOM      5  C11 7IG d   1      25.758 105.148 125.870  0.00  0.00    -0.057 A 
ATOM      6  C12 7IG d   1      24.621 104.397 126.283  0.00  0.00     0.028 A 
ATOM      7  H10 7IG d   1      23.398 103.904 128.006  0.00  0.00     0.086 H 
ATOM      8  H11 7IG d   1      24.681 105.250 129.598  0.00  0.00     0.084 H 
ATOM      9  H12 7IG d   1      27.369 106.497 126.473  0.00  0.00     0.084 H 
ATOM     10  H13 7IG d   1      26.063 105.126 124.830  0.00  0.00     0.086 H 
ENDROOT
BRANCH   3  11
ATOM     11  C4  7IG d   1      26.784 106.744 129.282  0.00  0.00     0.045 A 
ATOM     12  C1  7IG d   1      27.626 106.063 130.213  0.00  0.00     0.153 A 
ATOM     13  N1  7IG d   1      28.167 106.639 131.325  0.00  0.00    -0.045 NA
ATOM     14  C2  7IG d   1      27.869 107.935 131.521  0.00  0.00     0.722 A 
ATOM     15  N2  7IG d   1      27.100 108.655 130.704  0.00  0.00    -0.067 NA
ATOM     16  C3  7IG d   1      26.552 108.100 129.593  0.00  0.00     0.068 A 
BRANCH  12  17
ATOM     17  N3  7IG d   1      27.941 104.751 130.034  0.00  0.00    -0.383 N 
ATOM     18  H1  7IG d   1      27.574 104.240 129.219  0.00  0.00     0.157 HD
ATOM     19  H2  7IG d   1      28.547 104.269 130.714  0.00  0.00     0.157 HD
ENDBRANCH  12  17
BRANCH  14  20
ATOM     20  N4  7IG d   1      28.356 108.567 132.589  0.00  0.00    -0.231 N 
ATOM     21  H3  7IG d   1      28.957 108.062 133.256  0.00  0.00     0.174 HD
ATOM     22  H4  7IG d   1      28.132 109.560 132.747  0.00  0.00     0.174 HD
ENDBRANCH  14  20
BRANCH  16  23
ATOM     23  C5  7IG d   1      25.710 109.069 128.800  0.00  0.00    -0.026 C 
ATOM     24  H5  7IG d   1      25.771 108.794 127.737  0.00  0.00     0.041 H 
ATOM     25  H6  7IG d   1      26.118 110.081 128.941  0.00  0.00     0.041 H 
BRANCH  23  26
ATOM     26  C6  7IG d   1      24.237 109.079 129.214  0.00  0.00    -0.071 C 
ATOM     27  H7  7IG d   1      23.688 109.805 128.597  0.00  0.00     0.028 H 
ATOM     28  H8  7IG d   1      24.156 109.363 130.274  0.00  0.00     0.028 H 
ATOM     29  H9  7IG d   1      23.809 108.076 129.070  0.00  0.00     0.028 H 
ENDBRANCH  23  26
ENDBRANCH  16  23
ENDBRANCH   3  11
BRANCH   6  30
ATOM     30  N5  7IG d   1      23.915 103.631 125.364  0.00  0.00    -0.386 N 
ATOM     31  H14 7IG d   1      24.251 103.649 124.391  0.00  0.00     0.160 HD
BRANCH  30  32
ATOM     32  C19 7IG d   1      22.718 102.784 125.646  0.00  0.00     0.017 C 
ATOM     33  H18 7IG d   1      22.140 102.693 124.715  0.00  0.00     0.071 H 
ATOM     34  H19 7IG d   1      22.111 103.298 126.406  0.00  0.00     0.071 H 
BRANCH  32  35
ATOM     35  C15 7IG d   1      23.016 101.371 126.156  0.00  0.00    -0.035 A 
ATOM     36  C14 7IG d   1      24.281 101.034 126.740  0.00  0.00    -0.038 A 
ATOM     37  C13 7IG d   1      24.538  99.731 127.201  0.00  0.00     0.119 A 
ATOM     38  H15 7IG d   1      25.049 101.794 126.827  0.00  0.00     0.089 H 
ATOM     39  C18 7IG d   1      23.568  98.710 127.109  0.00  0.00    -0.009 A 
ATOM     40  F1  7IG d   1      25.748  99.470 127.742  0.00  0.00    -0.206 F 
ATOM     41  C17 7IG d   1      22.319  99.052 126.532  0.00  0.00     0.119 A 
ATOM     42  H17 7IG d   1      23.770  97.706 127.465  0.00  0.00     0.092 H 
ATOM     43  C16 7IG d   1      22.035 100.355 126.060  0.00  0.00    -0.038 A 
ATOM     44  F2  7IG d   1      21.376  98.112 126.427  0.00  0.00    -0.206 F 
ATOM     45  H16 7IG d   1      21.067 100.575 125.625  0.00  0.00     0.089 H 
ENDBRANCH  32  35
ENDBRANCH  30  32
ENDBRANCH   6  30
TORSDOF 8
