REMARK  10 active torsions:
REMARK  status: ('A' for Active; 'I' for Inactive)
REMARK    1  A    between atoms: C1_1  and  C2_2 
REMARK       I    between atoms: C1_1  and  N8_9 
REMARK    2  A    between atoms: C6_5  and  C9_6 
REMARK    3  A    between atoms: C9_6  and  O11_11 
REMARK    4  A    between atoms: O11_11  and  C10_10 
REMARK    5  A    between atoms: C12_12  and  C21_21 
REMARK    6  A    between atoms: C16_16  and  C24_24 
REMARK    7  A    between atoms: C18_18  and  C23_23 
REMARK    8  A    between atoms: C24_24  and  C25_25 
REMARK    9  A    between atoms: C24_24  and  C26_26 
REMARK   10  A    between atoms: C24_24  and  C27_27 
ROOT
ATOM      1  C2  ADF d   1       3.500   2.136   2.135  0.00  0.00     0.178 C 
ATOM      2  C4  ADF d   1       4.674   1.847   3.080  0.00  0.00    -0.028 C 
ATOM      3  C5  ADF d   1       4.172   2.228   4.442  0.00  0.00    -0.034 C 
ATOM      4  C6  ADF d   1       2.677   2.007   4.347  0.00  0.00     0.123 C 
ATOM      5  N7  ADF d   1       2.291   2.187   2.957  0.00  0.00    -0.056 N 
ATOM      6  H1  ADF d   1       3.655   3.130   1.690  0.00  0.00     0.099 H 
ATOM      7  H2  ADF d   1       5.550   2.453   2.806  0.00  0.00     0.036 H 
ATOM      8  H3  ADF d   1       4.942   0.781   3.050  0.00  0.00     0.036 H 
ATOM      9  H4  ADF d   1       4.400   3.281   4.664  0.00  0.00     0.036 H 
ATOM     10  H5  ADF d   1       4.615   1.586   5.217  0.00  0.00     0.036 H 
ATOM     11  H6  ADF d   1       2.178   2.777   4.953  0.00  0.00     0.087 H 
ATOM     12  H9  ADF d   1       1.659   1.452   2.681  0.00  0.00     0.278 HD
ATOM     13  H10 ADF d   1       1.838   3.080   2.842  0.00  0.00     0.278 HD
ENDROOT
BRANCH   4  14
ATOM     14  C9  ADF d   1       2.218   0.635   4.874  0.00  0.00     0.053 C 
ATOM     15  H7  ADF d   1       2.801  -0.176   4.413  0.00  0.00     0.078 H 
ATOM     16  H8  ADF d   1       1.148   0.477   4.674  0.00  0.00     0.078 H 
BRANCH  14  17
ATOM     17  O11 ADF d   1       2.465   0.704   6.265  0.00  0.00    -0.349 OA
BRANCH  17  18
ATOM     18  C10 ADF d   1       2.136  -0.316   7.177  0.00  0.00     0.075 A 
ATOM     19  C16 ADF d   1       2.439  -0.069   8.582  0.00  0.00    -0.016 A 
ATOM     20  C17 ADF d   1       2.080  -1.092   9.515  0.00  0.00    -0.057 A 
ATOM     21  C18 ADF d   1       1.440  -2.297   9.129  0.00  0.00     0.041 A 
ATOM     22  H18 ADF d   1       2.307  -0.939  10.564  0.00  0.00     0.086 H 
ATOM     23  C19 ADF d   1       1.167  -2.511   7.752  0.00  0.00    -0.064 A 
ATOM     24  C20 ADF d   1       1.496  -1.538   6.798  0.00  0.00    -0.049 A 
ATOM     25  H19 ADF d   1       0.699  -3.436   7.435  0.00  0.00     0.085 H 
ATOM     26  H20 ADF d   1       1.261  -1.715   5.755  0.00  0.00     0.087 H 
BRANCH  19  27
ATOM     27  C24 ADF d   1       3.142   1.253   9.079  0.00  0.00    -0.021 C 
BRANCH  27  28
ATOM     28  C25 ADF d   1       2.359   2.498   8.596  0.00  0.00    -0.066 C 
ATOM     29  H23 ADF d   1       2.863   3.409   8.951  0.00  0.00     0.028 H 
ATOM     30  H24 ADF d   1       1.335   2.466   8.997  0.00  0.00     0.028 H 
ATOM     31  H25 ADF d   1       2.322   2.505   7.497  0.00  0.00     0.028 H 
ENDBRANCH  27  28
BRANCH  27  32
ATOM     32  C26 ADF d   1       4.605   1.326   8.558  0.00  0.00    -0.066 C 
ATOM     33  H26 ADF d   1       5.161   0.441   8.901  0.00  0.00     0.028 H 
ATOM     34  H27 ADF d   1       5.087   2.235   8.946  0.00  0.00     0.028 H 
ATOM     35  H28 ADF d   1       4.602   1.353   7.458  0.00  0.00     0.028 H 
ENDBRANCH  27  32
BRANCH  27  36
ATOM     36  C27 ADF d   1       3.255   1.378  10.627  0.00  0.00    -0.066 C 
ATOM     37  H29 ADF d   1       2.250   1.335  11.073  0.00  0.00     0.028 H 
ATOM     38  H30 ADF d   1       3.729   2.337  10.884  0.00  0.00     0.028 H 
ATOM     39  H31 ADF d   1       3.866   0.551  11.018  0.00  0.00     0.028 H 
ENDBRANCH  27  36
ENDBRANCH  19  27
BRANCH  21  40
ATOM     40  C23 ADF d   1       1.078  -3.325  10.141  0.00  0.00     0.209 C 
ATOM     41  O28 ADF d   1       1.328  -3.114  11.332  0.00  0.00    -0.644 OA
ATOM     42  O29 ADF d   1       0.521  -4.377   9.772  0.00  0.00    -0.644 OA
ENDBRANCH  21  40
ENDBRANCH  17  18
ENDBRANCH  14  17
ENDBRANCH   4  14
BRANCH   1  43
ATOM     43  C1  ADF d   1       3.393   1.132   0.971  0.00  0.00     0.251 C 
ATOM     44  O3  ADF d   1       2.690   0.134   1.093  0.00  0.00    -0.271 OA
ATOM     45  N8  ADF d   1       4.128   1.432  -0.176  0.00  0.00    -0.341 N 
ATOM     46  C12 ADF d   1       4.151   0.574  -1.367  0.00  0.00     0.046 C 
ATOM     47  C15 ADF d   1       4.974   2.628  -0.354  0.00  0.00    -0.001 C 
ATOM     48  C13 ADF d   1       5.064   1.331  -2.351  0.00  0.00    -0.040 C 
ATOM     49  H11 ADF d   1       3.128   0.466  -1.756  0.00  0.00     0.081 H 
ATOM     50  C14 ADF d   1       5.897   2.280  -1.503  0.00  0.00    -0.048 C 
ATOM     51  H12 ADF d   1       4.460   1.896  -3.076  0.00  0.00     0.036 H 
ATOM     52  H13 ADF d   1       5.716   0.626  -2.888  0.00  0.00     0.036 H 
ATOM     53  H14 ADF d   1       6.171   3.180  -2.074  0.00  0.00     0.035 H 
ATOM     54  H15 ADF d   1       6.809   1.784  -1.139  0.00  0.00     0.035 H 
ATOM     55  H16 ADF d   1       5.552   2.833   0.559  0.00  0.00     0.064 H 
ATOM     56  H17 ADF d   1       4.358   3.505  -0.603  0.00  0.00     0.064 H 
BRANCH  46  57
ATOM     57  C21 ADF d   1       4.790  -0.824  -1.231  0.00  0.00    -0.005 C 
ATOM     58  N22 ADF d   1       5.326  -1.273  -0.079  0.00  0.00    -0.314 NA
ATOM     59  H22 ADF d   1       5.733  -2.194  -0.038  0.00  0.00     0.185 HD
ATOM     60  H21 ADF d   1       4.809  -1.476  -2.103  0.00  0.00     0.110 H 
ENDBRANCH  46  57
ENDBRANCH   1  43
TORSDOF 10
