REMARK  6 active torsions:
REMARK  status: ('A' for Active; 'I' for Inactive)
REMARK    1  A    between atoms: C1_1  and  C2_2 
REMARK       I    between atoms: C1_1  and  N8_9 
REMARK    2  A    between atoms: C6_5  and  C9_6 
REMARK    3  A    between atoms: C9_6  and  O11_11 
REMARK    4  A    between atoms: O11_11  and  C10_10 
REMARK    5  A    between atoms: C15_15  and  C24_23 
REMARK    6  A    between atoms: C17_17  and  C21_21 
ROOT
ATOM      1  C2  ACF d   1      16.264  -2.861  35.298  0.00  0.00     0.178 C 
ATOM      2  C4  ACF d   1      16.398  -3.742  36.554  0.00  0.00    -0.028 C 
ATOM      3  C5  ACF d   1      17.221  -2.885  37.498  0.00  0.00    -0.034 C 
ATOM      4  C6  ACF d   1      16.841  -1.442  37.139  0.00  0.00     0.123 C 
ATOM      5  N7  ACF d   1      16.243  -1.486  35.807  0.00  0.00    -0.056 N 
ATOM      6  H1  ACF d   1      17.167  -2.999  34.685  0.00  0.00     0.099 H 
ATOM      7  H2  ACF d   1      16.919  -4.683  36.321  0.00  0.00     0.036 H 
ATOM      8  H3  ACF d   1      15.411  -3.966  36.985  0.00  0.00     0.036 H 
ATOM      9  H4  ACF d   1      18.296  -3.055  37.339  0.00  0.00     0.036 H 
ATOM     10  H5  ACF d   1      16.966  -3.105  38.545  0.00  0.00     0.036 H 
ATOM     11  H6  ACF d   1      17.756  -0.832  37.113  0.00  0.00     0.087 H 
ATOM     12  H9  ACF d   1      15.290  -1.162  35.857  0.00  0.00     0.278 HD
ATOM     13  H10 ACF d   1      16.767  -0.891  35.185  0.00  0.00     0.278 HD
ENDROOT
BRANCH   1  14
ATOM     14  C1  ACF d   1      15.038  -3.178  34.372  0.00  0.00     0.251 C 
ATOM     15  O3  ACF d   1      14.204  -2.308  34.193  0.00  0.00    -0.271 OA
ATOM     16  N8  ACF d   1      14.951  -4.452  33.766  0.00  0.00    -0.341 N 
ATOM     17  C17 ACF d   1      13.840  -4.846  32.850  0.00  0.00     0.046 C 
ATOM     18  C20 ACF d   1      15.907  -5.544  33.902  0.00  0.00    -0.001 C 
ATOM     19  C18 ACF d   1      14.243  -6.283  32.437  0.00  0.00    -0.040 C 
ATOM     20  H14 ACF d   1      13.796  -4.154  31.996  0.00  0.00     0.081 H 
ATOM     21  C19 ACF d   1      15.738  -6.314  32.609  0.00  0.00    -0.048 C 
ATOM     22  H15 ACF d   1      13.967  -6.479  31.390  0.00  0.00     0.036 H 
ATOM     23  H16 ACF d   1      13.760  -7.026  33.089  0.00  0.00     0.036 H 
ATOM     24  H17 ACF d   1      16.249  -5.814  31.773  0.00  0.00     0.035 H 
ATOM     25  H18 ACF d   1      16.111  -7.345  32.703  0.00  0.00     0.035 H 
ATOM     26  H19 ACF d   1      15.665  -6.174  34.771  0.00  0.00     0.064 H 
ATOM     27  H20 ACF d   1      16.933  -5.160  34.001  0.00  0.00     0.064 H 
BRANCH  17  28
ATOM     28  C21 ACF d   1      12.438  -5.009  33.450  0.00  0.00    -0.005 C 
ATOM     29  N22 ACF d   1      12.284  -5.263  34.749  0.00  0.00    -0.314 NA
ATOM     30  H22 ACF d   1      11.359  -5.369  35.136  0.00  0.00     0.185 HD
ATOM     31  H21 ACF d   1      11.562  -4.917  32.810  0.00  0.00     0.110 H 
ENDBRANCH  17  28
ENDBRANCH   1  14
BRANCH   4  32
ATOM     32  C9  ACF d   1      15.864  -0.793  38.119  0.00  0.00     0.053 C 
ATOM     33  H7  ACF d   1      15.642   0.235  37.798  0.00  0.00     0.078 H 
ATOM     34  H8  ACF d   1      16.304  -0.775  39.127  0.00  0.00     0.078 H 
BRANCH  32  35
ATOM     35  O11 ACF d   1      14.679  -1.558  38.128  0.00  0.00    -0.347 OA
BRANCH  35  36
ATOM     36  C10 ACF d   1      13.620  -1.167  38.961  0.00  0.00     0.091 A 
ATOM     37  C12 ACF d   1      12.446  -1.969  38.930  0.00  0.00     0.067 A 
ATOM     38  C13 ACF d   1      11.320  -1.660  39.730  0.00  0.00    -0.058 A 
ATOM     39 CL23 ACF d   1      12.368  -3.368  37.894  0.00  0.00    -0.081 Cl
ATOM     40  C14 ACF d   1      11.356  -0.531  40.580  0.00  0.00    -0.065 A 
ATOM     41  H11 ACF d   1      10.435  -2.285  39.691  0.00  0.00     0.086 H 
ATOM     42  C15 ACF d   1      12.513   0.294  40.639  0.00  0.00     0.043 A 
ATOM     43  H12 ACF d   1      10.494  -0.292  41.192  0.00  0.00     0.085 H 
ATOM     44  C16 ACF d   1      13.632  -0.033  39.828  0.00  0.00    -0.033 A 
ATOM     45  H13 ACF d   1      14.516   0.593  39.868  0.00  0.00     0.089 H 
BRANCH  42  46
ATOM     46  C24 ACF d   1      12.562   1.482  41.529  0.00  0.00     0.209 C 
ATOM     47  O25 ACF d   1      13.583   2.166  41.554  0.00  0.00    -0.644 OA
ATOM     48  O26 ACF d   1      11.587   1.753  42.219  0.00  0.00    -0.644 OA
ENDBRANCH  42  46
ENDBRANCH  35  36
ENDBRANCH  32  35
ENDBRANCH   4  32
TORSDOF 6
