REMARK  8 active torsions:
REMARK  status: ('A' for Active; 'I' for Inactive)
REMARK    1  A    between atoms: C1_1  and  C2_2 
REMARK       I    between atoms: C1_1  and  N8_9 
REMARK    2  A    between atoms: C6_5  and  C9_6 
REMARK    3  A    between atoms: C9_6  and  N15_15 
REMARK    4  A    between atoms: C10_10  and  C14_14 
REMARK       I    between atoms: N15_15  and  C16_16 
REMARK       I    between atoms: C16_16  and  N19_19 
REMARK    5  A    between atoms: N19_19  and  C20_20 
REMARK    6  A    between atoms: C23_23  and  C26_26 
REMARK    7  A    between atoms: C26_26  and  O28_28 
REMARK    8  A    between atoms: O28_28  and  C29_29 
ROOT
ATOM      1  C2  AAF d   1      31.505   5.760  64.147  0.00  0.00     0.178 C 
ATOM      2  C4  AAF d   1      32.670   6.551  63.531  0.00  0.00    -0.028 C 
ATOM      3  C5  AAF d   1      33.885   5.700  63.864  0.00  0.00    -0.035 C 
ATOM      4  C6  AAF d   1      33.364   4.250  63.940  0.00  0.00     0.118 C 
ATOM      5  N7  AAF d   1      31.918   4.345  64.149  0.00  0.00    -0.057 N 
ATOM      6  H1  AAF d   1      31.336   6.104  65.178  0.00  0.00     0.099 H 
ATOM      7  H2  AAF d   1      32.752   7.550  63.985  0.00  0.00     0.036 H 
ATOM      8  H3  AAF d   1      32.546   6.652  62.443  0.00  0.00     0.036 H 
ATOM      9  H4  AAF d   1      34.315   6.005  64.829  0.00  0.00     0.036 H 
ATOM     10  H5  AAF d   1      34.648   5.794  63.077  0.00  0.00     0.036 H 
ATOM     11  H6  AAF d   1      33.835   3.749  64.799  0.00  0.00     0.086 H 
ATOM     12  H9  AAF d   1      31.440   3.856  63.408  0.00  0.00     0.278 HD
ATOM     13  H10 AAF d   1      31.680   3.928  65.035  0.00  0.00     0.278 HD
ENDROOT
BRANCH   4  14
ATOM     14  C9  AAF d   1      33.641   3.387  62.654  0.00  0.00     0.023 C 
ATOM     15  H7  AAF d   1      33.242   2.376  62.822  0.00  0.00     0.067 H 
ATOM     16  H8  AAF d   1      34.729   3.331  62.502  0.00  0.00     0.067 H 
BRANCH  14  17
ATOM     17  N15 AAF d   1      33.022   3.936  61.417  0.00  0.00    -0.341 N 
ATOM     18  C16 AAF d   1      33.655   4.822  60.594  0.00  0.00     0.320 C 
ATOM     19  O17 AAF d   1      34.782   5.227  60.852  0.00  0.00    -0.247 OA
ATOM     20  N19 AAF d   1      32.889   5.261  59.532  0.00  0.00    -0.309 N 
ATOM     21  H21 AAF d   1      32.003   4.814  59.411  0.00  0.00     0.170 HD
ATOM     22  H19 AAF d   1      32.097   3.641  61.177  0.00  0.00     0.164 HD
BRANCH  20  23
ATOM     23  C20 AAF d   1      33.207   6.253  58.611  0.00  0.00     0.036 A 
ATOM     24  C21 AAF d   1      32.139   6.757  57.822  0.00  0.00    -0.056 A 
ATOM     25  C22 AAF d   1      32.363   7.788  56.871  0.00  0.00    -0.065 A 
ATOM     26  H22 AAF d   1      31.142   6.350  57.947  0.00  0.00     0.086 H 
ATOM     27  C23 AAF d   1      33.672   8.331  56.689  0.00  0.00     0.039 A 
ATOM     28  H23 AAF d   1      31.536   8.165  56.280  0.00  0.00     0.085 H 
ATOM     29  C24 AAF d   1      34.746   7.824  57.479  0.00  0.00    -0.065 A 
ATOM     30  C25 AAF d   1      34.520   6.801  58.418  0.00  0.00    -0.056 A 
ATOM     31  H24 AAF d   1      35.743   8.230  57.355  0.00  0.00     0.085 H 
ATOM     32  H25 AAF d   1      35.349   6.421  59.004  0.00  0.00     0.086 H 
BRANCH  27  33
ATOM     33  C26 AAF d   1      33.888   9.419  55.703  0.00  0.00     0.292 C 
ATOM     34  O27 AAF d   1      32.995   9.859  55.032  0.00  0.00    -0.259 OA
BRANCH  33  35
ATOM     35  O28 AAF d   1      35.160   9.841  55.646  0.00  0.00    -0.323 OA
BRANCH  35  36
ATOM     36  C29 AAF d   1      35.536  10.888  54.746  0.00  0.00     0.013 C 
ATOM     37  H26 AAF d   1      36.613  11.089  54.847  0.00  0.00     0.067 H 
ATOM     38  H27 AAF d   1      34.969  11.799  54.986  0.00  0.00     0.067 H 
ATOM     39  H28 AAF d   1      35.316  10.580  53.713  0.00  0.00     0.067 H 
ENDBRANCH  35  36
ENDBRANCH  33  35
ENDBRANCH  27  33
ENDBRANCH  20  23
ENDBRANCH  14  17
ENDBRANCH   4  14
BRANCH   1  40
ATOM     40  C1  AAF d   1      30.176   5.918  63.343  0.00  0.00     0.251 C 
ATOM     41  O3  AAF d   1      29.892   5.034  62.540  0.00  0.00    -0.271 OA
ATOM     42  N8  AAF d   1      29.360   7.043  63.577  0.00  0.00    -0.341 N 
ATOM     43  C10 AAF d   1      28.084   7.264  62.871  0.00  0.00     0.046 A 
ATOM     44  C13 AAF d   1      29.660   8.106  64.534  0.00  0.00    -0.001 A 
ATOM     45  C11 AAF d   1      27.516   8.566  63.478  0.00  0.00    -0.040 A 
ATOM     46  H11 AAF d   1      27.423   6.404  63.053  0.00  0.00     0.081 H 
ATOM     47  C12 AAF d   1      28.545   9.137  64.432  0.00  0.00    -0.048 A 
ATOM     48  H12 AAF d   1      26.586   8.347  64.022  0.00  0.00     0.036 H 
ATOM     49  H13 AAF d   1      27.310   9.291  62.676  0.00  0.00     0.036 H 
ATOM     50  H14 AAF d   1      28.093   9.307  65.421  0.00  0.00     0.035 H 
ATOM     51  H15 AAF d   1      28.940  10.086  64.041  0.00  0.00     0.035 H 
ATOM     52  H16 AAF d   1      30.626   8.571  64.289  0.00  0.00     0.064 H 
ATOM     53  H17 AAF d   1      29.700   7.694  65.553  0.00  0.00     0.064 H 
BRANCH  43  54
ATOM     54  C14 AAF d   1      28.125   7.560  61.341  0.00  0.00    -0.005 C 
ATOM     55  N18 AAF d   1      29.269   7.662  60.645  0.00  0.00    -0.314 NA
ATOM     56  H20 AAF d   1      29.242   7.855  59.656  0.00  0.00     0.185 HD
ATOM     57  H18 AAF d   1      27.182   7.690  60.812  0.00  0.00     0.110 H 
ENDBRANCH  43  54
ENDBRANCH   1  40
TORSDOF 8
