REMARK  6 active torsions:
REMARK  status: ('A' for Active; 'I' for Inactive)
REMARK    1  A    between atoms: C7_11  and  N4_4 
REMARK    2  A    between atoms: N4_4  and  C10_14 
REMARK    3  A    between atoms: C5_9  and  C6_10 
REMARK    4  A    between atoms: C8_12  and  C18_22 
REMARK    5  A    between atoms: C10_14  and  C11_15 
REMARK    6  A    between atoms: C11_15  and  C12_16 
ROOT
ATOM      1  N2  HM2 d   1      21.476  19.231  15.080  0.00  0.00    -0.208 NA
ATOM      2  N3  HM2 d   1      20.852  20.811  13.448  0.00  0.00    -0.230 NA
ATOM      3  C6  HM2 d   1      21.423  19.666  13.826  0.00  0.00     0.180 A 
ATOM      4  C7  HM2 d   1      20.915  20.085  16.053  0.00  0.00     0.149 A 
ATOM      5  C8  HM2 d   1      20.284  21.618  14.346  0.00  0.00     0.058 A 
ATOM      6  C9  HM2 d   1      20.309  21.271  15.757  0.00  0.00     0.103 A 
ATOM      7 CL1  HM2 d   1      19.622  22.362  16.886  0.00  0.00    -0.078 Cl
ENDROOT
BRANCH   4   8
ATOM      8  N4  HM2 d   1      21.322  19.452  17.233  0.00  0.00    -0.373 N 
ATOM      9  H1  HM2 d   1      21.552  20.111  17.991  0.00  0.00     0.161 HD
BRANCH   8  10
ATOM     10  C10 HM2 d   1      21.491  18.030  17.620  0.00  0.00    -0.002 C 
ATOM     11  H6  HM2 d   1      22.200  18.000  18.461  0.00  0.00     0.064 H 
ATOM     12  H7  HM2 d   1      21.923  17.503  16.757  0.00  0.00     0.064 H 
BRANCH  10  13
ATOM     13  C11 HM2 d   1      20.257  17.269  18.042  0.00  0.00    -0.026 C 
ATOM     14  H8  HM2 d   1      19.799  17.770  18.907  0.00  0.00     0.042 H 
ATOM     15  H9  HM2 d   1      20.540  16.243  18.320  0.00  0.00     0.042 H 
BRANCH  13  16
ATOM     16  C12 HM2 d   1      19.275  17.223  16.923  0.00  0.00    -0.057 A 
ATOM     17  C13 HM2 d   1      19.428  16.282  15.882  0.00  0.00    -0.077 A 
ATOM     18  C14 HM2 d   1      18.501  16.259  14.848  0.00  0.00    -0.082 A 
ATOM     19  H10 HM2 d   1      20.259  15.586  15.889  0.00  0.00     0.084 H 
ATOM     20  C15 HM2 d   1      17.427  17.113  14.774  0.00  0.00    -0.083 A 
ATOM     21  H11 HM2 d   1      18.632  15.529  14.058  0.00  0.00     0.083 H 
ATOM     22  C16 HM2 d   1      17.289  18.017  15.783  0.00  0.00    -0.082 A 
ATOM     23  H12 HM2 d   1      16.723  17.069  13.951  0.00  0.00     0.083 H 
ATOM     24  C17 HM2 d   1      18.185  18.109  16.876  0.00  0.00    -0.077 A 
ATOM     25  H13 HM2 d   1      16.450  18.702  15.748  0.00  0.00     0.083 H 
ATOM     26  H14 HM2 d   1      18.034  18.845  17.657  0.00  0.00     0.084 H 
ENDBRANCH  13  16
ENDBRANCH  10  13
ENDBRANCH   8  10
ENDBRANCH   4   8
BRANCH   3  27
ATOM     27  C5  HM2 d   1      22.056  18.878  12.734  0.00  0.00     0.104 A 
ATOM     28  N1  HM2 d   1      22.029  19.534  11.417  0.00  0.00    -0.257 NA
ATOM     29  C1  HM2 d   1      22.709  18.817  10.305  0.00  0.00     0.003 A 
ATOM     30  C2  HM2 d   1      23.295  17.611  10.489  0.00  0.00    -0.066 A 
ATOM     31  H2  HM2 d   1      22.736  19.272   9.322  0.00  0.00     0.114 H 
ATOM     32  C3  HM2 d   1      23.262  16.990  11.851  0.00  0.00    -0.079 A 
ATOM     33  H3  HM2 d   1      23.780  17.103   9.664  0.00  0.00     0.085 H 
ATOM     34  C4  HM2 d   1      22.662  17.651  12.913  0.00  0.00    -0.051 A 
ATOM     35  H4  HM2 d   1      23.711  16.016  12.009  0.00  0.00     0.083 H 
ATOM     36  H5  HM2 d   1      22.669  17.197  13.897  0.00  0.00     0.087 H 
ENDBRANCH   3  27
BRANCH   5  37
ATOM     37  C18 HM2 d   1      19.642  22.880  13.886  0.00  0.00    -0.034 C 
ATOM     38  H15 HM2 d   1      19.228  23.418  14.752  0.00  0.00     0.035 H 
ATOM     39  H16 HM2 d   1      18.832  22.643  13.180  0.00  0.00     0.035 H 
ATOM     40  H17 HM2 d   1      20.391  23.512  13.386  0.00  0.00     0.035 H 
ENDBRANCH   5  37
TORSDOF 6
