REMARK WARNING: 32 MAX_TORS EXCEEDED!!!
REMARK  44 active torsions:
REMARK  status: ('A' for Active; 'I' for Inactive)
REMARK    1  A    between atoms: CA_2  and  N_1 
REMARK    2  A    between atoms: CA_2  and  CB_5 
REMARK    3  A    between atoms: C_3  and  CA_2 
REMARK       I    between atoms: N_6  and  C_3 
REMARK    4  A    between atoms: CA_7  and  N_6 
REMARK    5  A    between atoms: CA_7  and  CB_10 
REMARK    6  A    between atoms: C_8  and  CA_7 
REMARK       I    between atoms: N_17  and  C_8 
REMARK    7  A    between atoms: CB_10  and  CG_11 
REMARK    8  A    between atoms: CG_11  and  CD_12 
REMARK    9  A    between atoms: CD_12  and  NE_13 
REMARK       I    between atoms: NE_13  and  CZ_14 
REMARK       I    between atoms: CZ_14  and  NH2_16 
REMARK       I    between atoms: CZ_14  and  NH1_15 
REMARK   10  A    between atoms: CA_18  and  N_17 
REMARK   11  A    between atoms: CA_18  and  CB_21 
REMARK   12  A    between atoms: C_19  and  CA_18 
REMARK       I    between atoms: N_24  and  C_19 
REMARK   13  A    between atoms: CB_21  and  CG2_23 
REMARK   14  A    between atoms: CB_21  and  OG1_22 
REMARK   15  A    between atoms: CA_25  and  N_24 
REMARK   16  A    between atoms: CA_25  and  CB_26 
REMARK   17  A    between atoms: C_31  and  CA_25 
REMARK   18  A    between atoms: CB_26  and  CG_27 
REMARK   19  A    between atoms: CG_27  and  CD_28 
REMARK   20  A    between atoms: CD_28  and  CE_29 
REMARK   21  A    between atoms: CE_29  and  NZ_30 
REMARK   22  A    between atoms: NZ_30  and  CM1_33 
REMARK   23  A    between atoms: NZ_30  and  CM2_34 
REMARK   24  A    between atoms: NZ_30  and  CM3_35 
REMARK       I    between atoms: C_31  and  N_36 
REMARK   25  A    between atoms: N_36  and  CA_37 
REMARK   26  A    between atoms: CA_37  and  CB_40 
REMARK   27  A    between atoms: CA_37  and  C_38 
REMARK       I    between atoms: C_38  and  N_45 
REMARK   28  A    between atoms: CB_40  and  CG_41 
REMARK   29  A    between atoms: CG_41  and  CD_42 
REMARK       I    between atoms: CD_42  and  NE2_44 
REMARK   30  A    between atoms: N_45  and  CA_46 
REMARK   31  A    between atoms: CA_46  and  CB_49 
REMARK   32  A    between atoms: CA_46  and  C_47 
REMARK       I    between atoms: C_47  and  N_52 
REMARK   33  A    between atoms: CB_49  and  CG2_51 
REMARK   34  A    between atoms: CB_49  and  OG1_50 
REMARK   35  A    between atoms: N_52  and  CA_53 
REMARK   36  A    between atoms: CA_53  and  CB_56 
REMARK   37  A    between atoms: CA_53  and  C_54 
REMARK       I    between atoms: C_54  and  N_57 
REMARK   38  A    between atoms: N_57  and  CA_58 
REMARK   39  A    between atoms: CA_58  and  CB_61 
REMARK   40  A    between atoms: CA_58  and  C_59 
REMARK   41  A    between atoms: C_59  and  O1_68 
REMARK   42  A    between atoms: CB_61  and  CG_62 
REMARK   43  A    between atoms: CG_62  and  CD_63 
REMARK   44  A    between atoms: CD_63  and  NE_64 
REMARK       I    between atoms: NE_64  and  CZ_65 
REMARK       I    between atoms: CZ_65  and  NH1_66 
ROOT
ATOM      1  CA  M3L d   1       0.220  32.923   9.580  0.00  0.00     0.089 C 
ATOM      2  H29 M3L d   1      -0.539  32.480   8.919  0.00  0.00     0.087 H 
ENDROOT
BRANCH   1   3
ATOM      3  N   M3L d   1      -0.456  33.538  10.703  0.00  0.00    -0.346 N 
ATOM      4  C   THR d   1      -1.660  34.074  10.558  0.00  0.00     0.243 C 
ATOM      5  O   THR d   1      -2.256  34.101   9.478  0.00  0.00    -0.271 OA
ATOM      6  H28 M3L d   1      -0.010  33.559  11.598  0.00  0.00     0.163 HD
BRANCH   4   7
ATOM      7  CA  THR d   1      -2.281  34.666  11.814  0.00  0.00     0.113 C 
ATOM      8  H22 THR d   1      -1.528  35.243  12.370  0.00  0.00     0.091 H 
BRANCH   7   9
ATOM      9  N   THR d   1      -3.362  35.546  11.416  0.00  0.00    -0.344 N 
ATOM     10  C   ARG d   1      -3.529  36.714  12.016  0.00  0.00     0.241 C 
ATOM     11  O   ARG d   1      -2.798  37.104  12.925  0.00  0.00    -0.271 OA
ATOM     12  H21 THR d   1      -3.985  35.269  10.684  0.00  0.00     0.163 HD
BRANCH  10  13
ATOM     13  CA  ARG d   1      -4.689  37.571  11.525  0.00  0.00     0.089 C 
ATOM     14  H9  ARG d   1      -5.188  37.082  10.675  0.00  0.00     0.087 H 
BRANCH  13  15
ATOM     15  N   ARG d   1      -5.639  37.716  12.635  0.00  0.00    -0.346 N 
ATOM     16  C   ALA d   1      -6.798  37.064  12.644  0.00  0.00     0.248 C 
ATOM     17  O   ALA d   1      -7.157  36.333  11.726  0.00  0.00    -0.271 OA
ATOM     18  H8  ARG d   1      -5.410  38.318  13.400  0.00  0.00     0.163 HD
BRANCH  16  19
ATOM     19  CA  ALA d   1      -7.696  37.280  13.861  0.00  0.00     0.172 C 
ATOM     20  H4  ALA d   1      -7.826  38.361  14.015  0.00  0.00     0.098 H 
BRANCH  19  21
ATOM     21  N   ALA d   1      -9.038  36.663  13.642  0.00  0.00    -0.067 N 
ATOM     22  H1  ALA d   1      -9.615  36.816  14.454  0.00  0.00     0.275 HD
ATOM     23  H2  ALA d   1      -8.931  35.673  13.487  0.00  0.00     0.275 HD
ATOM     24  H3  ALA d   1      -9.474  37.084  12.836  0.00  0.00     0.275 HD
ENDBRANCH  19  21
BRANCH  19  25
ATOM     25  CB  ALA d   1      -7.046  36.681  15.103  0.00  0.00    -0.042 C 
ATOM     26  H5  ALA d   1      -6.059  37.140  15.258  0.00  0.00     0.030 H 
ATOM     27  H6  ALA d   1      -6.929  35.596  14.968  0.00  0.00     0.030 H 
ATOM     28  H7  ALA d   1      -7.682  36.875  15.979  0.00  0.00     0.030 H 
ENDBRANCH  19  25
ENDBRANCH  16  19
ENDBRANCH  13  15
BRANCH  13  29
ATOM     29  CB  ARG d   1      -4.135  38.930  11.077  0.00  0.00    -0.036 C 
ATOM     30  H10 ARG d   1      -3.355  38.746  10.323  0.00  0.00     0.036 H 
ATOM     31  H11 ARG d   1      -3.688  39.420  11.955  0.00  0.00     0.036 H 
BRANCH  29  32
ATOM     32  CG  ARG d   1      -5.151  39.884  10.476  0.00  0.00    -0.048 C 
ATOM     33  H12 ARG d   1      -5.811  40.258  11.273  0.00  0.00     0.035 H 
ATOM     34  H13 ARG d   1      -5.750  39.347   9.726  0.00  0.00     0.035 H 
BRANCH  32  35
ATOM     35  CD  ARG d   1      -4.456  41.065   9.808  0.00  0.00     0.009 C 
ATOM     36  H14 ARG d   1      -5.221  41.767   9.445  0.00  0.00     0.064 H 
ATOM     37  H15 ARG d   1      -3.865  40.694   8.957  0.00  0.00     0.064 H 
BRANCH  35  38
ATOM     38  NE  ARG d   1      -3.566  41.772  10.726  0.00  0.00    -0.227 N 
ATOM     39  CZ  ARG d   1      -2.238  41.788  10.631  0.00  0.00     0.665 C 
ATOM     40  NH2 ARG d   1      -1.519  42.456  11.526  0.00  0.00    -0.235 N 
ATOM     41  NH1 ARG d   1      -1.626  41.135   9.651  0.00  0.00    -0.235 N 
ATOM     42  H19 ARG d   1      -1.989  42.964  12.289  0.00  0.00     0.174 HD
ATOM     43  H20 ARG d   1      -0.491  42.466  11.457  0.00  0.00     0.174 HD
ATOM     44  H17 ARG d   1      -0.598  41.152   9.584  0.00  0.00     0.174 HD
ATOM     45  H18 ARG d   1      -2.179  40.611   8.957  0.00  0.00     0.174 HD
ATOM     46  H16 ARG d   1      -3.997  42.295  11.502  0.00  0.00     0.177 HD
ENDBRANCH  35  38
ENDBRANCH  32  35
ENDBRANCH  29  32
ENDBRANCH  13  29
ENDBRANCH  10  13
ENDBRANCH   7   9
BRANCH   7  47
ATOM     47  CB  THR d   1      -2.788  33.507  12.693  0.00  0.00     0.060 C 
ATOM     48  H23 THR d   1      -1.925  32.947  13.082  0.00  0.00     0.086 H 
BRANCH  47  49
ATOM     49  CG2 THR d   1      -3.606  34.031  13.858  0.00  0.00    -0.050 C 
ATOM     50  H25 THR d   1      -3.956  33.186  14.470  0.00  0.00     0.031 H 
ATOM     51  H26 THR d   1      -4.472  34.590  13.476  0.00  0.00     0.031 H 
ATOM     52  H27 THR d   1      -2.983  34.696  14.474  0.00  0.00     0.031 H 
ENDBRANCH  47  49
BRANCH  47  53
ATOM     53  OG1 THR d   1      -3.601  32.636  11.903  0.00  0.00    -0.393 OA
ATOM     54  H24 THR d   1      -3.092  32.306  11.172  0.00  0.00     0.210 HD
ENDBRANCH  47  53
ENDBRANCH   7  47
ENDBRANCH   4   7
ENDBRANCH   1   3
BRANCH   1  55
ATOM     55  CB  M3L d   1       1.035  33.932   8.764  0.00  0.00    -0.038 C 
ATOM     56  H30 M3L d   1       0.390  34.790   8.525  0.00  0.00     0.036 H 
ATOM     57  H31 M3L d   1       1.359  33.446   7.832  0.00  0.00     0.036 H 
BRANCH  55  58
ATOM     58  CG  M3L d   1       2.272  34.446   9.497  0.00  0.00    -0.061 C 
ATOM     59  H32 M3L d   1       2.911  33.586   9.746  0.00  0.00     0.033 H 
ATOM     60  H33 M3L d   1       1.947  34.942  10.423  0.00  0.00     0.033 H 
BRANCH  58  61
ATOM     61  CD  M3L d   1       3.094  35.437   8.683  0.00  0.00    -0.042 C 
ATOM     62  H34 M3L d   1       2.413  36.166   8.220  0.00  0.00     0.035 H 
ATOM     63  H35 M3L d   1       3.634  34.888   7.897  0.00  0.00     0.035 H 
BRANCH  61  64
ATOM     64  CE  M3L d   1       4.113  36.192   9.547  0.00  0.00     0.084 C 
ATOM     65  H36 M3L d   1       4.476  35.508  10.329  0.00  0.00     0.076 H 
ATOM     66  H37 M3L d   1       3.602  37.046  10.015  0.00  0.00     0.076 H 
BRANCH  64  67
ATOM     67  NZ  M3L d   1       5.318  36.720   8.777  0.00  0.00    -0.079 N 
BRANCH  67  68
ATOM     68  CM1 M3L d   1       4.903  37.641   7.677  0.00  0.00     0.067 C 
ATOM     69  H38 M3L d   1       5.795  38.002   7.144  0.00  0.00     0.068 H 
ATOM     70  H39 M3L d   1       4.358  38.497   8.101  0.00  0.00     0.068 H 
ATOM     71  H40 M3L d   1       4.250  37.102   6.975  0.00  0.00     0.068 H 
ENDBRANCH  67  68
BRANCH  67  72
ATOM     72  CM2 M3L d   1       6.186  35.711   8.087  0.00  0.00     0.067 C 
ATOM     73  H41 M3L d   1       6.548  34.976   8.821  0.00  0.00     0.068 H 
ATOM     74  H42 M3L d   1       7.044  36.221   7.624  0.00  0.00     0.068 H 
ATOM     75  H43 M3L d   1       5.603  35.196   7.310  0.00  0.00     0.068 H 
ENDBRANCH  67  72
BRANCH  67  76
ATOM     76  CM3 M3L d   1       6.192  37.494   9.706  0.00  0.00     0.067 C 
ATOM     77  H44 M3L d   1       5.589  38.248  10.234  0.00  0.00     0.068 H 
ATOM     78  H45 M3L d   1       6.985  37.995   9.132  0.00  0.00     0.068 H 
ATOM     79  H46 M3L d   1       6.646  36.810  10.438  0.00  0.00     0.068 H 
ENDBRANCH  67  76
ENDBRANCH  64  67
ENDBRANCH  61  64
ENDBRANCH  58  61
ENDBRANCH  55  58
ENDBRANCH   1  55
BRANCH   1  80
ATOM     80  C   M3L d   1       1.128  31.819  10.095  0.00  0.00     0.241 C 
ATOM     81  O   M3L d   1       1.568  31.837  11.247  0.00  0.00    -0.271 OA
ATOM     82  N   GLN d   1       1.387  30.852   9.228  0.00  0.00    -0.346 N 
ATOM     83  H47 GLN d   1       0.967  30.892   8.321  0.00  0.00     0.163 HD
BRANCH  82  84
ATOM     84  CA  GLN d   1       2.258  29.736   9.546  0.00  0.00     0.090 C 
ATOM     85  H48 GLN d   1       2.339  29.601  10.635  0.00  0.00     0.087 H 
BRANCH  84  86
ATOM     86  CB  GLN d   1       1.727  28.460   8.896  0.00  0.00    -0.030 C 
ATOM     87  H49 GLN d   1       2.398  27.632   9.169  0.00  0.00     0.037 H 
ATOM     88  H50 GLN d   1       1.742  28.600   7.805  0.00  0.00     0.037 H 
BRANCH  86  89
ATOM     89  CG  GLN d   1       0.320  28.078   9.302  0.00  0.00     0.011 C 
ATOM     90  H51 GLN d   1      -0.142  27.506   8.484  0.00  0.00     0.047 H 
ATOM     91  H52 GLN d   1      -0.259  28.996   9.481  0.00  0.00     0.047 H 
BRANCH  89  92
ATOM     92  CD  GLN d   1       0.299  27.238  10.555  0.00  0.00     0.215 C 
ATOM     93  NE2 GLN d   1      -0.303  26.057  10.468  0.00  0.00    -0.370 N 
ATOM     94  H53 GLN d   1      -0.347  25.458  11.268  0.00  0.00     0.159 HD
ATOM     95  H54 GLN d   1      -0.712  25.767   9.603  0.00  0.00     0.159 HD
ATOM     96  OE1 GLN d   1       0.821  27.640  11.587  0.00  0.00    -0.274 OA
ENDBRANCH  89  92
ENDBRANCH  86  89
ENDBRANCH  84  86
BRANCH  84  97
ATOM     97  C   GLN d   1       3.607  30.083   8.940  0.00  0.00     0.241 C 
ATOM     98  O   GLN d   1       3.682  30.447   7.770  0.00  0.00    -0.271 OA
ATOM     99  N   THR d   1       4.668  29.986   9.730  0.00  0.00    -0.344 N 
ATOM    100  H55 THR d   1       4.554  29.704  10.682  0.00  0.00     0.163 HD
BRANCH  99 101
ATOM    101  CA  THR d   1       6.001  30.288   9.219  0.00  0.00     0.113 C 
ATOM    102  H56 THR d   1       6.037  31.335   8.882  0.00  0.00     0.091 H 
BRANCH 101 103
ATOM    103  CB  THR d   1       7.074  30.073  10.300  0.00  0.00     0.060 C 
ATOM    104  H57 THR d   1       7.031  29.031  10.649  0.00  0.00     0.086 H 
BRANCH 103 105
ATOM    105  CG2 THR d   1       8.465  30.355   9.738  0.00  0.00    -0.050 C 
ATOM    106  H59 THR d   1       9.217  30.196  10.525  0.00  0.00     0.031 H 
ATOM    107  H60 THR d   1       8.515  31.397   9.388  0.00  0.00     0.031 H 
ATOM    108  H61 THR d   1       8.665  29.675   8.896  0.00  0.00     0.031 H 
ENDBRANCH 103 105
BRANCH 103 109
ATOM    109  OG1 THR d   1       6.819  30.954  11.400  0.00  0.00    -0.393 OA
ATOM    110  H58 THR d   1       5.953  30.779  11.750  0.00  0.00     0.210 HD
ENDBRANCH 103 109
ENDBRANCH 101 103
BRANCH 101 111
ATOM    111  C   THR d   1       6.260  29.354   8.034  0.00  0.00     0.243 C 
ATOM    112  O   THR d   1       5.975  28.157   8.103  0.00  0.00    -0.271 OA
ATOM    113  N   ALA d   1       6.788  29.910   6.948  0.00  0.00    -0.346 N 
ATOM    114  H62 ALA d   1       7.005  30.886   6.954  0.00  0.00     0.163 HD
BRANCH 113 115
ATOM    115  CA  ALA d   1       7.058  29.125   5.745  0.00  0.00     0.086 C 
ATOM    116  H63 ALA d   1       7.096  28.059   6.013  0.00  0.00     0.086 H 
BRANCH 115 117
ATOM    117  CB  ALA d   1       5.946  29.342   4.725  0.00  0.00    -0.049 C 
ATOM    118  H64 ALA d   1       6.155  28.749   3.823  0.00  0.00     0.030 H 
ATOM    119  H65 ALA d   1       5.895  30.408   4.459  0.00  0.00     0.030 H 
ATOM    120  H66 ALA d   1       4.985  29.026   5.157  0.00  0.00     0.030 H 
ENDBRANCH 115 117
BRANCH 115 121
ATOM    121  C   ALA d   1       8.402  29.536   5.150  0.00  0.00     0.240 C 
ATOM    122  O   ALA d   1       8.732  30.719   5.106  0.00  0.00    -0.271 OA
ATOM    123  N   ARG d   1       9.157  28.540   4.690  0.00  0.00    -0.345 N 
ATOM    124  H67 ARG d   1       8.807  27.607   4.770  0.00  0.00     0.163 HD
BRANCH 123 125
ATOM    125  CA  ARG d   1      10.478  28.735   4.070  0.00  0.00     0.093 C 
ATOM    126  H68 ARG d   1      10.785  27.799   3.580  0.00  0.00     0.089 H 
BRANCH 125 127
ATOM    127  CB  ARG d   1      10.416  29.845   3.018  0.00  0.00    -0.035 C 
ATOM    128  H69 ARG d   1      11.403  29.927   2.540  0.00  0.00     0.036 H 
ATOM    129  H70 ARG d   1      10.174  30.791   3.524  0.00  0.00     0.036 H 
BRANCH 127 130
ATOM    130  CG  ARG d   1       9.378  29.600   1.936  0.00  0.00    -0.047 C 
ATOM    131  H71 ARG d   1       8.408  29.391   2.410  0.00  0.00     0.035 H 
ATOM    132  H72 ARG d   1       9.686  28.733   1.333  0.00  0.00     0.035 H 
BRANCH 130 133
ATOM    133  CD  ARG d   1       9.235  30.809   1.027  0.00  0.00     0.009 C 
ATOM    134  H73 ARG d   1       8.457  30.601   0.277  0.00  0.00     0.064 H 
ATOM    135  H74 ARG d   1      10.194  30.989   0.520  0.00  0.00     0.064 H 
BRANCH 133 136
ATOM    136  NE  ARG d   1       8.863  32.008   1.774  0.00  0.00    -0.227 N 
ATOM    137  CZ  ARG d   1       8.649  33.199   1.223  0.00  0.00     0.665 C 
ATOM    138  NH2 ARG d   1       8.319  34.234   1.985  0.00  0.00    -0.235 N 
ATOM    139  NH1 ARG d   1       8.766  33.360  -0.090  0.00  0.00    -0.235 N 
ATOM    140  H78 ARG d   1       8.227  34.115   3.004  0.00  0.00     0.174 HD
ATOM    141  H79 ARG d   1       8.155  35.157   1.558  0.00  0.00     0.174 HD
ATOM    142  H76 ARG d   1       8.599  34.285  -0.512  0.00  0.00     0.174 HD
ATOM    143  H77 ARG d   1       9.024  32.560  -0.686  0.00  0.00     0.174 HD
ATOM    144  H75 ARG d   1       8.760  31.925   2.796  0.00  0.00     0.177 HD
ENDBRANCH 133 136
ENDBRANCH 130 133
ENDBRANCH 127 130
ENDBRANCH 125 127
BRANCH 125 145
ATOM    145  C   ARG d   1      11.499  29.090   5.151  0.00  0.00     0.163 C 
ATOM    146  O   ARG d   1      12.487  28.340   5.288  0.00  0.00    -0.648 OA
BRANCH 145 147
ATOM    147  O1  ARG d   1      11.339  30.163   5.920  0.00  0.00    -0.775 OA
ATOM    148  H80 ARG d   1      10.538  30.611   5.675  0.00  0.00     0.167 HD
ENDBRANCH 145 147
ENDBRANCH 125 145
ENDBRANCH 123 125
ENDBRANCH 115 121
ENDBRANCH 113 115
ENDBRANCH 101 111
ENDBRANCH  99 101
ENDBRANCH  84  97
ENDBRANCH  82  84
ENDBRANCH   1  80
TORSDOF 44
