REMARK  6 active torsions:
REMARK  status: ('A' for Active; 'I' for Inactive)
REMARK    1  A    between atoms: C2_5  and  C10_6 
REMARK    2  A    between atoms: C6_12  and  S1_13 
REMARK    3  A    between atoms: S1_13  and  N2_16 
REMARK    4  A    between atoms: N2_16  and  C11_17 
REMARK    5  A    between atoms: C11_17  and  C12_18 
REMARK    6  A    between atoms: C12_18  and  C13_19 
ROOT
ATOM      1  C7  FTS d   1      28.005  43.262  16.746  0.00  0.00    -0.052 A 
ATOM      2  C8  FTS d   1      28.597  43.797  17.889  0.00  0.00    -0.025 A 
ATOM      3  C1  FTS d   1      28.853  42.905  19.107  0.00  0.00     0.106 C 
ATOM      4  N1  FTS d   1      29.742  43.570  20.060  0.00  0.00    -0.064 N 
ATOM      5  C2  FTS d   1      29.236  44.909  20.402  0.00  0.00     0.130 C 
ATOM      6  C3  FTS d   1      29.534  45.779  19.178  0.00  0.00    -0.011 C 
ATOM      7  C9  FTS d   1      28.914  45.153  17.928  0.00  0.00    -0.048 A 
ATOM      8  C4  FTS d   1      28.635  45.952  16.823  0.00  0.00    -0.075 A 
ATOM      9  C5  FTS d   1      28.044  45.424  15.680  0.00  0.00    -0.060 A 
ATOM     10  C6  FTS d   1      27.730  44.067  15.645  0.00  0.00     0.080 A 
ATOM     11  H1  FTS d   1      27.756  42.207  16.715  0.00  0.00     0.086 H 
ATOM     12  H2  FTS d   1      29.319  41.965  18.775  0.00  0.00     0.083 H 
ATOM     13  H3  FTS d   1      27.895  42.685  19.601  0.00  0.00     0.083 H 
ATOM     14  H4  FTS d   1      30.659  43.658  19.650  0.00  0.00     0.278 HD
ATOM     15  H5  FTS d   1      29.801  43.015  20.899  0.00  0.00     0.278 HD
ATOM     16  H6  FTS d   1      28.149  44.867  20.566  0.00  0.00     0.088 H 
ATOM     17  H9  FTS d   1      30.623  45.858  19.044  0.00  0.00     0.043 H 
ATOM     18  H10 FTS d   1      29.109  46.782  19.332  0.00  0.00     0.043 H 
ATOM     19  H11 FTS d   1      28.883  47.007  16.854  0.00  0.00     0.084 H 
ATOM     20  H12 FTS d   1      27.831  46.059  14.828  0.00  0.00     0.085 H 
ENDROOT
BRANCH  10  21
ATOM     21  S1  FTS d   1      26.986  43.348  14.219  0.00  0.00     0.258 S 
ATOM     22  O1  FTS d   1      25.650  42.983  14.613  0.00  0.00    -0.201 OA
ATOM     23  O2  FTS d   1      27.870  42.303  13.768  0.00  0.00    -0.201 OA
BRANCH  21  24
ATOM     24  N2  FTS d   1      26.834  44.424  13.025  0.00  0.00    -0.315 N 
ATOM     25  H13 FTS d   1      25.987  44.942  12.906  0.00  0.00     0.172 HD
BRANCH  24  26
ATOM     26  C11 FTS d   1      27.974  44.623  12.116  0.00  0.00     0.011 C 
ATOM     27  H14 FTS d   1      28.804  43.995  12.470  0.00  0.00     0.065 H 
ATOM     28  H15 FTS d   1      28.268  45.682  12.167  0.00  0.00     0.065 H 
BRANCH  26  29
ATOM     29  C12 FTS d   1      27.714  44.279  10.663  0.00  0.00     0.041 C 
ATOM     30  H16 FTS d   1      27.085  43.377  10.652  0.00  0.00     0.048 H 
ATOM     31  H17 FTS d   1      28.688  44.052  10.206  0.00  0.00     0.048 H 
BRANCH  29  32
ATOM     32  C13 FTS d   1      27.042  45.294   9.787  0.00  0.00     0.389 C 
ATOM     33  F1  FTS d   1      27.020  44.992   8.479  0.00  0.00    -0.171 F 
ATOM     34  F2  FTS d   1      27.645  46.489   9.800  0.00  0.00    -0.171 F 
ATOM     35  F3  FTS d   1      25.774  45.577  10.117  0.00  0.00    -0.171 F 
ENDBRANCH  29  32
ENDBRANCH  26  29
ENDBRANCH  24  26
ENDBRANCH  21  24
ENDBRANCH  10  21
BRANCH   5  36
ATOM     36  C10 FTS d   1      29.896  45.434  21.680  0.00  0.00     0.085 C 
ATOM     37  F4  FTS d   1      29.346  46.600  22.048  0.00  0.00    -0.253 F 
ATOM     38  H7  FTS d   1      30.971  45.582  21.498  0.00  0.00     0.085 H 
ATOM     39  H8  FTS d   1      29.759  44.699  22.486  0.00  0.00     0.085 H 
ENDBRANCH   5  36
TORSDOF 6
