REMARK  3 active torsions:
REMARK  status: ('A' for Active; 'I' for Inactive)
REMARK    1  A    between atoms: N1_6  and  S1_7 
REMARK    2  A    between atoms: S1_7  and  C7_10 
REMARK    3  A    between atoms: C3_15  and  C11_16 
ROOT
ATOM      1  C7  F21 d   1      27.421  43.945  15.213  0.00  0.00     0.075 A 
ATOM      2  C8  F21 d   1      27.766  43.162  16.312  0.00  0.00    -0.053 A 
ATOM      3  C9  F21 d   1      28.351  43.729  17.441  0.00  0.00    -0.025 A 
ATOM      4  C1  F21 d   1      28.598  42.865  18.684  0.00  0.00     0.106 C 
ATOM      5  N2  F21 d   1      29.423  43.541  19.701  0.00  0.00    -0.064 N 
ATOM      6  C3  F21 d   1      29.020  44.941  19.903  0.00  0.00     0.130 C 
ATOM      7  C4  F21 d   1      29.300  45.755  18.639  0.00  0.00    -0.011 C 
ATOM      8  C10 F21 d   1      28.599  45.100  17.448  0.00  0.00    -0.048 A 
ATOM      9  C5  F21 d   1      28.249  45.887  16.354  0.00  0.00    -0.075 A 
ATOM     10  C6  F21 d   1      27.657  45.315  15.233  0.00  0.00    -0.060 A 
ATOM     11  H9  F21 d   1      27.576  42.095  16.288  0.00  0.00     0.086 H 
ATOM     12  H10 F21 d   1      29.111  41.943  18.373  0.00  0.00     0.083 H 
ATOM     13  H11 F21 d   1      27.627  42.611  19.133  0.00  0.00     0.083 H 
ATOM     14  H12 F21 d   1      30.386  43.520  19.404  0.00  0.00     0.278 HD
ATOM     15  H13 F21 d   1      29.330  43.047  20.575  0.00  0.00     0.278 HD
ATOM     16  H14 F21 d   1      27.944  44.972  20.127  0.00  0.00     0.088 H 
ATOM     17  H17 F21 d   1      30.384  45.786  18.455  0.00  0.00     0.043 H 
ATOM     18  H18 F21 d   1      28.921  46.779  18.770  0.00  0.00     0.043 H 
ATOM     19  H19 F21 d   1      28.439  46.954  16.376  0.00  0.00     0.084 H 
ATOM     20  H20 F21 d   1      27.383  45.931  14.384  0.00  0.00     0.085 H 
ENDROOT
BRANCH   1  21
ATOM     21  S1  F21 d   1      26.733  43.138  13.822  0.00  0.00     0.243 S 
ATOM     22  O2  F21 d   1      25.519  42.496  14.216  0.00  0.00    -0.206 OA
ATOM     23  O1  F21 d   1      27.717  42.084  13.409  0.00  0.00    -0.206 OA
BRANCH  21  24
ATOM     24  N1  F21 d   1      26.392  44.043  12.511  0.00  0.00    -0.205 NA
ATOM     25  C12 F21 d   1      25.419  45.108  12.805  0.00  0.00     0.001 C 
ATOM     26  C13 F21 d   1      24.724  45.490  11.493  0.00  0.00    -0.011 C 
ATOM     27  H1  F21 d   1      24.675  44.745  13.529  0.00  0.00     0.058 H 
ATOM     28  H2  F21 d   1      25.939  45.984  13.221  0.00  0.00     0.058 H 
ATOM     29  S2  F21 d   1      25.994  46.079  10.316  0.00  0.00    -0.167 SA
ATOM     30  H3  F21 d   1      23.992  46.289  11.680  0.00  0.00     0.050 H 
ATOM     31  H4  F21 d   1      24.210  44.612  11.076  0.00  0.00     0.050 H 
ATOM     32  C15 F21 d   1      27.325  44.826  10.397  0.00  0.00    -0.011 C 
ATOM     33  C14 F21 d   1      27.621  44.547  11.875  0.00  0.00     0.001 C 
ATOM     34  H5  F21 d   1      28.229  45.209   9.901  0.00  0.00     0.050 H 
ATOM     35  H6  F21 d   1      26.998  43.901   9.900  0.00  0.00     0.050 H 
ATOM     36  H7  F21 d   1      27.942  45.475  12.371  0.00  0.00     0.058 H 
ATOM     37  H8  F21 d   1      28.418  43.793  11.958  0.00  0.00     0.058 H 
ENDBRANCH  21  24
ENDBRANCH   1  21
BRANCH   6  38
ATOM     38  C11 F21 d   1      29.794  45.577  21.060  0.00  0.00     0.085 C 
ATOM     39  F1  F21 d   1      29.153  45.288  22.254  0.00  0.00    -0.253 F 
ATOM     40  H15 F21 d   1      29.835  46.667  20.919  0.00  0.00     0.085 H 
ATOM     41  H16 F21 d   1      30.816  45.172  21.085  0.00  0.00     0.085 H 
ENDBRANCH   6  38
TORSDOF 3
