REMARK  12 active torsions:
REMARK  status: ('A' for Active; 'I' for Inactive)
REMARK    1  A    between atoms: C1_1  and  C16_16 
REMARK    2  A    between atoms: C1_1  and  C17_17 
REMARK    3  A    between atoms: C5_5  and  C18_18 
REMARK    4  A    between atoms: C6_6  and  C7_7 
REMARK    5  A    between atoms: C7_7  and  C8_8 
REMARK    6  A    between atoms: C8_8  and  C9_9 
REMARK    7  A    between atoms: C9_9  and  C19_19 
REMARK    8  A    between atoms: C10_10  and  C11_11 
REMARK    9  A    between atoms: C11_11  and  C12_12 
REMARK   10  A    between atoms: C12_12  and  C13_13 
REMARK   11  A    between atoms: C13_13  and  C20_20 
REMARK   12  A    between atoms: C14_14  and  C15_15 
ROOT
ATOM      1  C7  REA d   1      21.910  27.543  18.067  0.00  0.00    -0.040 C 
ATOM      2  H7  REA d   1      22.447  28.395  18.511  0.00  0.00     0.040 H 
ATOM      3  H8  REA d   1      22.634  26.845  17.622  0.00  0.00     0.040 H 
ENDROOT
BRANCH   1   4
ATOM      4  C6  REA d   1      21.114  28.064  16.990  0.00  0.00    -0.070 C 
ATOM      5  C1  REA d   1      21.627  29.396  16.511  0.00  0.00    -0.024 C 
ATOM      6  C2  REA d   1      20.536  30.074  15.679  0.00  0.00    -0.055 C 
ATOM      7  C3  REA d   1      19.851  29.112  14.731  0.00  0.00    -0.061 C 
ATOM      8  H1  REA d   1      20.992  30.884  15.091  0.00  0.00     0.034 H 
ATOM      9  H2  REA d   1      19.782  30.495  16.361  0.00  0.00     0.034 H 
ATOM     10  C4  REA d   1      19.160  27.962  15.416  0.00  0.00    -0.044 C 
ATOM     11  H3  REA d   1      20.609  28.702  14.047  0.00  0.00     0.033 H 
ATOM     12  H4  REA d   1      19.101  29.672  14.153  0.00  0.00     0.033 H 
ATOM     13  C5  REA d   1      20.048  27.339  16.426  0.00  0.00    -0.081 C 
ATOM     14  H5  REA d   1      18.884  27.208  14.664  0.00  0.00     0.039 H 
ATOM     15  H6  REA d   1      18.252  28.332  15.914  0.00  0.00     0.039 H 
BRANCH   5  16
ATOM     16  C16 REA d   1      22.060  30.248  17.700  0.00  0.00    -0.066 C 
ATOM     17  H15 REA d   1      22.842  29.719  18.264  0.00  0.00     0.028 H 
ATOM     18  H16 REA d   1      21.195  30.430  18.355  0.00  0.00     0.028 H 
ATOM     19  H17 REA d   1      22.455  31.209  17.338  0.00  0.00     0.028 H 
ENDBRANCH   5  16
BRANCH   5  20
ATOM     20  C17 REA d   1      22.892  29.142  15.696  0.00  0.00    -0.066 C 
ATOM     21  H18 REA d   1      22.645  28.528  14.818  0.00  0.00     0.028 H 
ATOM     22  H19 REA d   1      23.629  28.613  16.318  0.00  0.00     0.028 H 
ATOM     23  H20 REA d   1      23.314  30.102  15.365  0.00  0.00     0.028 H 
ENDBRANCH   5  20
BRANCH  13  24
ATOM     24  C18 REA d   1      19.705  25.952  16.820  0.00  0.00    -0.054 C 
ATOM     25  H21 REA d   1      20.427  25.595  17.569  0.00  0.00     0.033 H 
ATOM     26  H22 REA d   1      19.742  25.300  15.935  0.00  0.00     0.033 H 
ATOM     27  H23 REA d   1      18.692  25.932  17.248  0.00  0.00     0.033 H 
ENDBRANCH  13  24
ENDBRANCH   1   4
BRANCH   1  28
ATOM     28  C8  REA d   1      21.265  26.847  19.145  0.00  0.00    -0.041 C 
ATOM     29  H9  REA d   1      20.602  26.090  18.701  0.00  0.00     0.040 H 
ATOM     30  H10 REA d   1      20.663  27.581  19.701  0.00  0.00     0.040 H 
BRANCH  28  31
ATOM     31  C9  REA d   1      22.111  26.180  20.088  0.00  0.00    -0.084 C 
ATOM     32  C10 REA d   1      21.431  25.264  20.946  0.00  0.00    -0.081 C 
ATOM     33  H11 REA d   1      20.390  24.998  20.766  0.00  0.00     0.083 H 
BRANCH  32  34
ATOM     34  C11 REA d   1      22.143  24.711  22.035  0.00  0.00    -0.082 C 
ATOM     35  H12 REA d   1      23.174  24.960  22.281  0.00  0.00     0.083 H 
BRANCH  34  36
ATOM     36  C12 REA d   1      21.327  23.767  22.788  0.00  0.00    -0.077 C 
ATOM     37  H13 REA d   1      20.296  23.571  22.499  0.00  0.00     0.084 H 
BRANCH  36  38
ATOM     38  C13 REA d   1      21.912  23.097  23.924  0.00  0.00    -0.056 C 
ATOM     39  C14 REA d   1      21.002  22.294  24.631  0.00  0.00    -0.004 C 
ATOM     40  H14 REA d   1      19.969  22.220  24.294  0.00  0.00     0.094 H 
BRANCH  39  41
ATOM     41  C15 REA d   1      21.434  21.560  25.812  0.00  0.00     0.199 C 
ATOM     42  O1  REA d   1      22.463  20.828  25.793  0.00  0.00    -0.644 OA
ATOM     43  O2  REA d   1      20.793  21.751  26.862  0.00  0.00    -0.644 OA
ENDBRANCH  39  41
BRANCH  38  44
ATOM     44  C20 REA d   1      23.345  23.219  24.340  0.00  0.00    -0.051 C 
ATOM     45  H27 REA d   1      23.871  23.894  23.649  0.00  0.00     0.033 H 
ATOM     46  H28 REA d   1      23.820  22.227  24.316  0.00  0.00     0.033 H 
ATOM     47  H29 REA d   1      23.397  23.626  25.361  0.00  0.00     0.033 H 
ENDBRANCH  38  44
ENDBRANCH  36  38
ENDBRANCH  34  36
ENDBRANCH  32  34
BRANCH  31  48
ATOM     48  C19 REA d   1      23.587  26.355  20.211  0.00  0.00    -0.054 C 
ATOM     49  H24 REA d   1      23.966  25.715  21.021  0.00  0.00     0.033 H 
ATOM     50  H25 REA d   1      23.814  27.407  20.438  0.00  0.00     0.033 H 
ATOM     51  H26 REA d   1      24.070  26.072  19.264  0.00  0.00     0.033 H 
ENDBRANCH  31  48
ENDBRANCH  28  31
ENDBRANCH   1  28
TORSDOF 12
