REMARK  10 active torsions:
REMARK  status: ('A' for Active; 'I' for Inactive)
REMARK    1  A    between atoms: C1_1  and  C16_17 
REMARK    2  A    between atoms: C1_1  and  C17_18 
REMARK    3  A    between atoms: C5_5  and  C18_19 
REMARK    4  A    between atoms: C6_6  and  C7_7 
REMARK    5  A    between atoms: C8_8  and  C9_9 
REMARK    6  A    between atoms: C9_9  and  C19_20 
REMARK    7  A    between atoms: C10_10  and  C11_11 
REMARK    8  A    between atoms: C12_12  and  C13_13 
REMARK    9  A    between atoms: C13_13  and  C20_21 
REMARK   10  A    between atoms: C14_14  and  C15_15 
ROOT
ATOM      1  C7  RET d   1      21.681   4.557 -19.679  0.00  0.00    -0.075 C 
ATOM      2  C8  RET d   1      21.094   3.669 -18.894  0.00  0.00    -0.077 C 
ATOM      3  H7  RET d   1      22.718   4.809 -19.461  0.00  0.00     0.084 H 
ATOM      4  H8  RET d   1      20.071   3.362 -19.108  0.00  0.00     0.084 H 
ENDROOT
BRANCH   1   5
ATOM      5  C6  RET d   1      21.043   5.237 -20.831  0.00  0.00    -0.048 C 
ATOM      6  C1  RET d   1      21.794   6.490 -21.299  0.00  0.00    -0.020 C 
ATOM      7  C2  RET d   1      21.039   7.251 -22.378  0.00  0.00    -0.054 C 
ATOM      8  C3  RET d   1      20.352   6.292 -23.337  0.00  0.00    -0.061 C 
ATOM      9  H1  RET d   1      21.748   7.877 -22.940  0.00  0.00     0.034 H 
ATOM     10  H2  RET d   1      20.281   7.891 -21.904  0.00  0.00     0.034 H 
ATOM     11  C4  RET d   1      19.260   5.601 -22.543  0.00  0.00    -0.044 C 
ATOM     12  H3  RET d   1      21.072   5.552 -23.716  0.00  0.00     0.033 H 
ATOM     13  H4  RET d   1      19.916   6.846 -24.181  0.00  0.00     0.033 H 
ATOM     14  C5  RET d   1      19.876   4.834 -21.404  0.00  0.00    -0.077 C 
ATOM     15  H5  RET d   1      18.713   4.907 -23.199  0.00  0.00     0.039 H 
ATOM     16  H6  RET d   1      18.564   6.354 -22.144  0.00  0.00     0.039 H 
BRANCH   6  17
ATOM     17  C16 RET d   1      22.003   7.431 -20.113  0.00  0.00    -0.065 C 
ATOM     18  H14 RET d   1      22.548   6.902 -19.317  0.00  0.00     0.028 H 
ATOM     19  H15 RET d   1      21.026   7.762 -19.731  0.00  0.00     0.028 H 
ATOM     20  H16 RET d   1      22.585   8.306 -20.437  0.00  0.00     0.028 H 
ENDBRANCH   6  17
BRANCH   6  21
ATOM     21  C17 RET d   1      23.172   6.121 -21.842  0.00  0.00    -0.065 C 
ATOM     22  H17 RET d   1      23.058   5.442 -22.700  0.00  0.00     0.028 H 
ATOM     23  H18 RET d   1      23.755   5.622 -21.054  0.00  0.00     0.028 H 
ATOM     24  H19 RET d   1      23.696   7.033 -22.163  0.00  0.00     0.028 H 
ENDBRANCH   6  21
BRANCH  14  25
ATOM     25  C18 RET d   1      19.082   3.623 -20.999  0.00  0.00    -0.054 C 
ATOM     26  H20 RET d   1      19.589   3.114 -20.166  0.00  0.00     0.033 H 
ATOM     27  H21 RET d   1      19.001   2.935 -21.854  0.00  0.00     0.033 H 
ATOM     28  H22 RET d   1      18.076   3.934 -20.681  0.00  0.00     0.033 H 
ENDBRANCH  14  25
ENDBRANCH   1   5
BRANCH   2  29
ATOM     29  C9  RET d   1      21.788   3.091 -17.745  0.00  0.00    -0.062 C 
ATOM     30  C10 RET d   1      21.071   2.209 -17.031  0.00  0.00    -0.077 C 
ATOM     31  H9  RET d   1      20.053   1.995 -17.353  0.00  0.00     0.084 H 
BRANCH  30  32
ATOM     32  C11 RET d   1      21.570   1.529 -15.863  0.00  0.00    -0.082 C 
ATOM     33  C12 RET d   1      20.726   0.683 -15.267  0.00  0.00    -0.077 C 
ATOM     34  H11 RET d   1      19.727   0.549 -15.679  0.00  0.00     0.084 H 
ATOM     35  H10 RET d   1      22.578   1.696 -15.487  0.00  0.00     0.083 H 
BRANCH  33  36
ATOM     36  C13 RET d   1      21.119  -0.076 -14.059  0.00  0.00    -0.059 C 
ATOM     37  C14 RET d   1      20.172  -0.820 -13.468  0.00  0.00    -0.041 C 
ATOM     38  H12 RET d   1      19.181  -0.821 -13.919  0.00  0.00     0.088 H 
BRANCH  37  39
ATOM     39  C15 RET d   1      20.366  -1.631 -12.265  0.00  0.00     0.109 C 
ATOM     40  O1  RET d   1      21.435  -1.754 -11.691  0.00  0.00    -0.302 OA
ATOM     41  H13 RET d   1      19.503  -2.156 -11.858  0.00  0.00     0.150 H 
ENDBRANCH  37  39
BRANCH  36  42
ATOM     42  C20 RET d   1      22.526  -0.035 -13.520  0.00  0.00    -0.051 C 
ATOM     43  H26 RET d   1      23.139   0.630 -14.146  0.00  0.00     0.033 H 
ATOM     44  H27 RET d   1      22.953  -1.048 -13.533  0.00  0.00     0.033 H 
ATOM     45  H28 RET d   1      22.512   0.344 -12.487  0.00  0.00     0.033 H 
ENDBRANCH  36  42
ENDBRANCH  33  36
ENDBRANCH  30  32
BRANCH  29  46
ATOM     46  C19 RET d   1      23.224   3.434 -17.410  0.00  0.00    -0.051 C 
ATOM     47  H23 RET d   1      23.601   4.176 -18.130  0.00  0.00     0.033 H 
ATOM     48  H24 RET d   1      23.840   2.525 -17.464  0.00  0.00     0.033 H 
ATOM     49  H25 RET d   1      23.274   3.851 -16.393  0.00  0.00     0.033 H 
ENDBRANCH  29  46
ENDBRANCH   2  29
TORSDOF 10
