REMARK  5 active torsions:
REMARK  status: ('A' for Active; 'I' for Inactive)
REMARK    1  A    between atoms: O1_1  and  C1_2 
REMARK    2  A    between atoms: C1_2  and  C2_3 
REMARK    3  A    between atoms: C6_8  and  S1_13 
REMARK    4  A    between atoms: S1_13  and  N2_16 
REMARK    5  A    between atoms: N2_16  and  C11_17 
ROOT
ATOM      1  C2  F83 d   1      28.903  44.856  20.297  0.00  0.00     0.126 C 
ATOM      2  N1  F83 d   1      29.418  43.493  20.097  0.00  0.00    -0.065 N 
ATOM      3  C3  F83 d   1      28.595  42.787  19.103  0.00  0.00     0.106 C 
ATOM      4  C4  F83 d   1      28.472  43.606  17.812  0.00  0.00    -0.025 A 
ATOM      5  C5  F83 d   1      28.042  42.976  16.655  0.00  0.00    -0.052 A 
ATOM      6  C6  F83 d   1      27.846  43.714  15.488  0.00  0.00     0.080 A 
ATOM      7  C7  F83 d   1      28.077  45.085  15.484  0.00  0.00    -0.060 A 
ATOM      8  C8  F83 d   1      28.516  45.720  16.645  0.00  0.00    -0.075 A 
ATOM      9  C9  F83 d   1      28.718  44.983  17.805  0.00  0.00    -0.048 A 
ATOM     10  C10 F83 d   1      29.245  45.685  19.058  0.00  0.00    -0.012 C 
ATOM     11  H4  F83 d   1      27.812  44.824  20.432  0.00  0.00     0.088 H 
ATOM     12  H5  F83 d   1      29.388  42.993  20.972  0.00  0.00     0.278 HD
ATOM     13  H6  F83 d   1      30.370  43.540  19.770  0.00  0.00     0.278 HD
ATOM     14  H7  F83 d   1      27.591  42.620  19.520  0.00  0.00     0.083 H 
ATOM     15  H8  F83 d   1      29.062  41.818  18.872  0.00  0.00     0.083 H 
ATOM     16  H9  F83 d   1      27.858  41.908  16.657  0.00  0.00     0.086 H 
ATOM     17  H10 F83 d   1      27.916  45.660  14.579  0.00  0.00     0.085 H 
ATOM     18  H11 F83 d   1      28.700  46.788  16.642  0.00  0.00     0.084 H 
ATOM     19  H12 F83 d   1      30.337  45.796  18.983  0.00  0.00     0.043 H 
ATOM     20  H13 F83 d   1      28.780  46.678  19.143  0.00  0.00     0.043 H 
ENDROOT
BRANCH   6  21
ATOM     21  S1  F83 d   1      27.331  42.913  14.024  0.00  0.00     0.263 S 
ATOM     22  O2  F83 d   1      25.910  42.771  14.003  0.00  0.00    -0.200 OA
ATOM     23  O3  F83 d   1      27.972  41.557  13.931  0.00  0.00    -0.200 OA
BRANCH  21  24
ATOM     24  N2  F83 d   1      27.839  43.821  12.771  0.00  0.00    -0.281 N 
ATOM     25  H14 F83 d   1      28.815  43.841  12.553  0.00  0.00     0.179 HD
BRANCH  24  26
ATOM     26  C11 F83 d   1      26.910  44.613  11.949  0.00  0.00     0.042 A 
ATOM     27  C12 F83 d   1      25.853  45.311  12.527  0.00  0.00    -0.055 A 
ATOM     28  C13 F83 d   1      25.027  46.098  11.730  0.00  0.00    -0.060 A 
ATOM     29  H15 F83 d   1      25.674  45.242  13.594  0.00  0.00     0.087 H 
ATOM     30  C14 F83 d   1      25.262  46.185  10.356  0.00  0.00     0.034 A 
ATOM     31  H16 F83 d   1      24.202  46.643  12.175  0.00  0.00     0.086 H 
ATOM     32  C15 F83 d   1      26.313  45.476   9.782  0.00  0.00    -0.060 A 
ATOM     33 CL1  F83 d   1      24.311  47.217   9.351  0.00  0.00    -0.084 Cl
ATOM     34  C16 F83 d   1      27.138  44.689  10.580  0.00  0.00    -0.055 A 
ATOM     35  H17 F83 d   1      26.489  45.537   8.714  0.00  0.00     0.086 H 
ATOM     36  H18 F83 d   1      27.957  44.136  10.135  0.00  0.00     0.087 H 
ENDBRANCH  24  26
ENDBRANCH  21  24
ENDBRANCH   6  21
BRANCH   1  37
ATOM     37  C1  F83 d   1      29.550  45.479  21.534  0.00  0.00     0.044 C 
ATOM     38  H2  F83 d   1      30.645  45.410  21.457  0.00  0.00     0.077 H 
ATOM     39  H3  F83 d   1      29.254  46.535  21.617  0.00  0.00     0.077 H 
BRANCH  37  40
ATOM     40  O1  F83 d   1      29.099  44.758  22.683  0.00  0.00    -0.399 OA
ATOM     41  H1  F83 d   1      29.491  45.131  23.464  0.00  0.00     0.209 HD
ENDBRANCH  37  40
ENDBRANCH   1  37
TORSDOF 5
