REMARK  6 active torsions:
REMARK  status: ('A' for Active; 'I' for Inactive)
REMARK    1  A    between atoms: N1_8  and  C1'_9 
REMARK    2  A    between atoms: C4'_11  and  C5'_12 
REMARK    3  A    between atoms: C5'_12  and  O5'_13 
REMARK    4  A    between atoms: C2'_14  and  O2'_15 
REMARK    5  A    between atoms: C3'_16  and  N7_17 
REMARK    6  A    between atoms: C10_21  and  C11_23 
ROOT
ATOM      1  C1' NON d   1      38.976   3.422  19.396  0.00  0.00     0.140 C 
ATOM      2  O4' NON d   1      39.137   4.812  19.701  0.00  0.00    -0.354 OA
ATOM      3  C4' NON d   1      39.540   4.997  21.070  0.00  0.00     0.091 C 
ATOM      4  C2' NON d   1      39.454   2.624  20.617  0.00  0.00     0.108 C 
ATOM      5  C3' NON d   1      39.561   3.625  21.754  0.00  0.00     0.159 C 
ATOM      6  H4  NON d   1      37.906   3.220  19.242  0.00  0.00     0.123 H 
ATOM      7  H5  NON d   1      38.813   5.647  21.578  0.00  0.00     0.090 H 
ATOM      8  H9  NON d   1      38.729   1.833  20.862  0.00  0.00     0.093 H 
ATOM      9  H11 NON d   1      40.482   3.494  22.342  0.00  0.00     0.093 H 
ENDROOT
BRANCH   5  10
ATOM     10  N7  NON d   1      38.373   3.391  22.588  0.00  0.00    -0.062 N 
ATOM     11  C13 NON d   1      38.623   2.569  23.787  0.00  0.00     0.085 C 
ATOM     12  C12 NON d   1      37.302   2.113  24.406  0.00  0.00    -0.030 C 
ATOM     13  H13 NON d   1      39.182   3.164  24.524  0.00  0.00     0.076 H 
ATOM     14  H14 NON d   1      39.214   1.686  23.504  0.00  0.00     0.076 H 
ATOM     15  C10 NON d   1      36.345   3.291  24.491  0.00  0.00     0.034 C 
ATOM     16  H20 NON d   1      37.488   1.719  25.416  0.00  0.00     0.036 H 
ATOM     17  H21 NON d   1      36.858   1.325  23.781  0.00  0.00     0.036 H 
ATOM     18  C9  NON d   1      35.973   3.853  23.118  0.00  0.00    -0.030 C 
ATOM     19  H19 NON d   1      36.888   4.083  25.028  0.00  0.00     0.056 H 
ATOM     20  C8  NON d   1      37.089   3.916  22.088  0.00  0.00     0.085 C 
ATOM     21  H17 NON d   1      35.171   3.223  22.705  0.00  0.00     0.036 H 
ATOM     22  H18 NON d   1      35.596   4.876  23.266  0.00  0.00     0.036 H 
ATOM     23  H15 NON d   1      36.788   3.325  21.210  0.00  0.00     0.076 H 
ATOM     24  H16 NON d   1      37.232   4.966  21.792  0.00  0.00     0.076 H 
ATOM     25  H12 NON d   1      38.514   4.235  23.121  0.00  0.00     0.280 HD
BRANCH  15  26
ATOM     26  C11 NON d   1      35.083   3.028  25.269  0.00  0.00     0.177 C 
ATOM     27  O13 NON d   1      34.777   1.894  25.738  0.00  0.00    -0.648 OA
ATOM     28  O12 NON d   1      34.403   4.054  25.422  0.00  0.00    -0.648 OA
ENDBRANCH  15  26
ENDBRANCH   5  10
BRANCH   3  29
ATOM     29  C5' NON d   1      40.923   5.647  21.145  0.00  0.00     0.043 C 
ATOM     30  H6  NON d   1      41.678   4.878  21.366  0.00  0.00     0.077 H 
ATOM     31  H7  NON d   1      40.928   6.406  21.941  0.00  0.00     0.077 H 
BRANCH  29  32
ATOM     32  O5' NON d   1      41.229   6.269  19.890  0.00  0.00    -0.398 OA
ATOM     33  H8  NON d   1      40.577   6.933  19.700  0.00  0.00     0.209 HD
ENDBRANCH  29  32
ENDBRANCH   3  29
BRANCH   4  34
ATOM     34  O2' NON d   1      40.746   2.039  20.384  0.00  0.00    -0.389 OA
ATOM     35  H10 NON d   1      41.016   1.553  21.154  0.00  0.00     0.210 HD
ENDBRANCH   4  34
BRANCH   1  36
ATOM     36  N1  NON d   1      39.684   3.030  18.168  0.00  0.00    -0.280 N 
ATOM     37  C2  NON d   1      39.394   1.840  17.608  0.00  0.00     0.331 A 
ATOM     38  O2  NON d   1      38.535   1.097  18.145  0.00  0.00    -0.246 OA
ATOM     39  N3  NON d   1      40.024   1.424  16.482  0.00  0.00    -0.275 N 
ATOM     40  C4  NON d   1      40.967   2.199  15.886  0.00  0.00     0.250 A 
ATOM     41  H1  NON d   1      39.792   0.536  16.085  0.00  0.00     0.173 HD
ATOM     42  O4  NON d   1      41.537   1.796  14.838  0.00  0.00    -0.268 OA
ATOM     43  C5  NON d   1      41.277   3.443  16.444  0.00  0.00    -0.002 A 
ATOM     44  C6  NON d   1      40.612   3.842  17.606  0.00  0.00    -0.008 A 
ATOM     45  H2  NON d   1      42.022   4.088  15.982  0.00  0.00     0.094 H 
ATOM     46  H3  NON d   1      40.839   4.805  18.060  0.00  0.00     0.112 H 
ENDBRANCH   1  36
TORSDOF 6
