REMARK  7 active torsions:
REMARK  status: ('A' for Active; 'I' for Inactive)
REMARK    1  A    between atoms: P_2  and  O5R_5 
REMARK    2  A    between atoms: O5R_5  and  C5R_6 
REMARK    3  A    between atoms: C5R_6  and  C4R_7 
REMARK    4  A    between atoms: C3R_9  and  O3R_10 
REMARK    5  A    between atoms: C2R_11  and  O2R_12 
REMARK    6  A    between atoms: C1R_13  and  N1_14 
REMARK    7  A    between atoms: C3_16  and  C7_17 
REMARK       I    between atoms: C7_17  and  N7_19 
ROOT
ATOM      1  C4R NMN d   1      12.046  95.866  11.804  0.00  0.00     0.089 C 
ATOM      2  O4R NMN d   1      11.248  95.548  12.967  0.00  0.00    -0.354 OA
ATOM      3  C3R NMN d   1      11.013  96.221  10.656  0.00  0.00     0.091 C 
ATOM      4  C2R NMN d   1       9.707  96.434  11.363  0.00  0.00     0.104 C 
ATOM      5  C1R NMN d   1       9.832  95.668  12.631  0.00  0.00     0.133 C 
ATOM      6  H3  NMN d   1      12.608  94.973  11.493  0.00  0.00     0.090 H 
ATOM      7  H4  NMN d   1      11.316  97.150  10.151  0.00  0.00     0.091 H 
ATOM      8  H6  NMN d   1       9.599  97.504  11.595  0.00  0.00     0.093 H 
ATOM      9  H8  NMN d   1       9.403  94.666  12.480  0.00  0.00     0.122 H 
ENDROOT
BRANCH   5  10
ATOM     10  N1  NMN d   1       9.139  96.315  13.768  0.00  0.00    -0.357 N 
ATOM     11  C2  NMN d   1       7.730  96.224  13.830  0.00  0.00    -0.007 A 
ATOM     12  C3  NMN d   1       7.072  96.822  14.883  0.00  0.00     0.046 A 
ATOM     13  H9  NMN d   1       7.174  95.691  13.060  0.00  0.00     0.112 H 
ATOM     14  C4  NMN d   1       7.826  97.560  15.943  0.00  0.00    -0.068 A 
ATOM     15  C5  NMN d   1       9.264  97.635  15.849  0.00  0.00    -0.085 A 
ATOM     16  H12 NMN d   1       7.299  98.032  16.771  0.00  0.00     0.084 H 
ATOM     17  C6  NMN d   1       9.950  97.016  14.762  0.00  0.00     0.012 A 
ATOM     18  H13 NMN d   1       9.829  98.167  16.613  0.00  0.00     0.079 H 
ATOM     19  H14 NMN d   1      10.511  97.802  14.235  0.00  0.00     0.070 H 
ATOM     20  H15 NMN d   1      10.654  96.286  15.188  0.00  0.00     0.070 H 
BRANCH  12  21
ATOM     21  C7  NMN d   1       5.550  96.704  14.915  0.00  0.00     0.250 C 
ATOM     22  O7  NMN d   1       4.996  97.231  15.838  0.00  0.00    -0.268 OA
ATOM     23  N7  NMN d   1       4.899  96.058  13.970  0.00  0.00    -0.366 N 
ATOM     24  H10 NMN d   1       3.902  95.990  14.006  0.00  0.00     0.159 HD
ATOM     25  H11 NMN d   1       5.402  95.635  13.216  0.00  0.00     0.159 HD
ENDBRANCH  12  21
ENDBRANCH   5  10
BRANCH   4  26
ATOM     26  O2R NMN d   1       8.557  96.042  10.599  0.00  0.00    -0.388 OA
ATOM     27  H7  NMN d   1       8.526  96.546   9.794  0.00  0.00     0.210 HD
ENDBRANCH   4  26
BRANCH   1  28
ATOM     28  C5R NMN d   1      13.062  96.940  12.144  0.00  0.00     0.059 C 
ATOM     29  H1  NMN d   1      12.551  97.907  12.263  0.00  0.00     0.079 H 
ATOM     30  H2  NMN d   1      13.576  96.679  13.081  0.00  0.00     0.079 H 
BRANCH  28  31
ATOM     31  O5R NMN d   1      14.045  97.031  11.048  0.00  0.00    -0.280 OA
BRANCH  31  32
ATOM     32  P   NMN d   1      14.251  98.407  10.297  0.00  0.00     0.422 P 
ATOM     33  O3P NMN d   1      14.518  99.400  11.470  0.00  0.00    -0.617 OA
ATOM     34  O1P NMN d   1      15.421  98.311   9.438  0.00  0.00    -0.617 OA
ATOM     35  O2P NMN d   1      13.010  98.902   9.646  0.00  0.00    -0.617 OA
ENDBRANCH  31  32
ENDBRANCH  28  31
ENDBRANCH   1  28
BRANCH   3  36
ATOM     36  O3R NMN d   1      10.952  95.173   9.679  0.00  0.00    -0.390 OA
ATOM     37  H5  NMN d   1      10.328  95.408   9.003  0.00  0.00     0.210 HD
ENDBRANCH   3  36
TORSDOF 7
