REMARK  8 active torsions:
REMARK  status: ('A' for Active; 'I' for Inactive)
REMARK    1  A    between atoms: CBA_6  and  CAY_7 
REMARK       I    between atoms: CAY_7  and  NBC_9 
REMARK    2  A    between atoms: CBB_14  and  CAQ_15 
REMARK    3  A    between atoms: CAQ_15  and  CAO_16 
REMARK    4  A    between atoms: CAO_16  and  CAN_17 
REMARK    5  A    between atoms: CAN_17  and  CAP_18 
REMARK    6  A    between atoms: CAP_18  and  NAW_19 
REMARK       I    between atoms: NAW_19  and  CAX_20 
REMARK    7  A    between atoms: CAX_20  and  CAC_22 
REMARK    8  A    between atoms: CAD_23  and  CAZ_24 
ROOT
ATOM      1  CAQ DGB d   1      -0.032 102.624  15.334  0.00  0.00    -0.061 C 
ATOM      2  H15 DGB d   1      -0.128 102.485  16.421  0.00  0.00     0.033 H 
ATOM      3  H16 DGB d   1       0.784 103.331  15.125  0.00  0.00     0.033 H 
ENDROOT
BRANCH   1   4
ATOM      4  CBB DGB d   1      -1.334 103.264  14.836  0.00  0.00    -0.051 C 
ATOM      5  CAS DGB d   1      -1.360 103.428  13.314  0.00  0.00    -0.047 C 
ATOM      6  CAU DGB d   1      -2.592 104.232  12.891  0.00  0.00    -0.002 C 
ATOM      7  H8  DGB d   1      -0.452 103.957  12.990  0.00  0.00     0.035 H 
ATOM      8  H9  DGB d   1      -1.394 102.435  12.842  0.00  0.00     0.035 H 
ATOM      9  NBC DGB d   1      -3.820 103.610  13.439  0.00  0.00    -0.348 N 
ATOM     10  H6  DGB d   1      -2.504 105.260  13.272  0.00  0.00     0.064 H 
ATOM     11  H7  DGB d   1      -2.654 104.252  11.793  0.00  0.00     0.064 H 
ATOM     12  CAY DGB d   1      -4.880 103.403  12.654  0.00  0.00     0.253 C 
ATOM     13  CAT DGB d   1      -3.858 103.336  14.896  0.00  0.00    -0.002 C 
ATOM     14  OAB DGB d   1      -5.957 103.053  13.135  0.00  0.00    -0.267 OA
ATOM     15  CAR DGB d   1      -2.606 102.552  15.310  0.00  0.00    -0.047 C 
ATOM     16  H10 DGB d   1      -4.754 102.744  15.133  0.00  0.00     0.064 H 
ATOM     17  H11 DGB d   1      -3.891 104.288  15.446  0.00  0.00     0.064 H 
ATOM     18  H12 DGB d   1      -2.645 101.548  14.862  0.00  0.00     0.035 H 
ATOM     19  H13 DGB d   1      -2.582 102.464  16.406  0.00  0.00     0.035 H 
ATOM     20  H14 DGB d   1      -1.361 104.275  15.268  0.00  0.00     0.040 H 
BRANCH  12  21
ATOM     21  CBA DGB d   1      -4.752 103.654  11.149  0.00  0.00     0.032 A 
ATOM     22  CAK DGB d   1      -3.674 103.115  10.456  0.00  0.00    -0.068 A 
ATOM     23  CAF DGB d   1      -3.485 103.421   9.110  0.00  0.00    -0.082 A 
ATOM     24  H1  DGB d   1      -2.979 102.456  10.964  0.00  0.00     0.085 H 
ATOM     25  CAE DGB d   1      -4.377 104.269   8.461  0.00  0.00    -0.083 A 
ATOM     26  H2  DGB d   1      -2.645 102.999   8.570  0.00  0.00     0.083 H 
ATOM     27  CAG DGB d   1      -5.460 104.804   9.156  0.00  0.00    -0.082 A 
ATOM     28  H3  DGB d   1      -4.230 104.513   7.415  0.00  0.00     0.083 H 
ATOM     29  CAL DGB d   1      -5.653 104.497  10.498  0.00  0.00    -0.068 A 
ATOM     30  H4  DGB d   1      -6.155 105.463   8.648  0.00  0.00     0.083 H 
ATOM     31  H5  DGB d   1      -6.499 104.910  11.036  0.00  0.00     0.085 H 
ENDBRANCH  12  21
ENDBRANCH   1   4
BRANCH   1  32
ATOM     32  CAO DGB d   1       0.366 101.273  14.731  0.00  0.00    -0.063 C 
ATOM     33  H17 DGB d   1      -0.144 101.141  13.766  0.00  0.00     0.033 H 
ATOM     34  H18 DGB d   1       0.068 100.466  15.417  0.00  0.00     0.033 H 
BRANCH  32  35
ATOM     35  CAN DGB d   1       1.884 101.221  14.514  0.00  0.00    -0.050 C 
ATOM     36  H19 DGB d   1       2.374 101.632  15.409  0.00  0.00     0.035 H 
ATOM     37  H20 DGB d   1       2.128 101.846  13.642  0.00  0.00     0.035 H 
BRANCH  35  38
ATOM     38  CAP DGB d   1       2.440  99.816  14.267  0.00  0.00    -0.004 C 
ATOM     39  H21 DGB d   1       3.533  99.864  14.151  0.00  0.00     0.064 H 
ATOM     40  H22 DGB d   1       1.993  99.395  13.355  0.00  0.00     0.064 H 
BRANCH  38  41
ATOM     41  NAW DGB d   1       2.099  98.968  15.426  0.00  0.00    -0.358 N 
ATOM     42  CAX DGB d   1       2.928  98.247  16.159  0.00  0.00     0.241 C 
ATOM     43  OAA DGB d   1       2.503  97.671  17.164  0.00  0.00    -0.269 OA
ATOM     44  H23 DGB d   1       1.134  98.936  15.685  0.00  0.00     0.162 HD
BRANCH  42  45
ATOM     45  CAC DGB d   1       4.310  98.154  15.916  0.00  0.00    -0.017 C 
ATOM     46  CAD DGB d   1       4.912  97.568  14.815  0.00  0.00    -0.067 C 
ATOM     47  H25 DGB d   1       4.277  97.135  14.044  0.00  0.00     0.085 H 
ATOM     48  H24 DGB d   1       4.971  98.585  16.667  0.00  0.00     0.092 H 
BRANCH  46  49
ATOM     49  CAZ DGB d   1       6.305  97.507  14.648  0.00  0.00    -0.018 A 
ATOM     50  CAJ DGB d   1       6.841  96.772  13.591  0.00  0.00    -0.070 A 
ATOM     51  CAH DGB d   1       8.217  96.581  13.501  0.00  0.00    -0.065 A 
ATOM     52  H26 DGB d   1       6.185  96.349  12.838  0.00  0.00     0.084 H 
ATOM     53  CAI DGB d   1       9.044  97.157  14.460  0.00  0.00     0.002 A 
ATOM     54  H27 DGB d   1       8.638  95.992  12.695  0.00  0.00     0.085 H 
ATOM     55  NAV DGB d   1       8.511  97.867  15.441  0.00  0.00    -0.272 NA
ATOM     56  H28 DGB d   1      10.118  97.025  14.404  0.00  0.00     0.114 H 
ATOM     57  CAM DGB d   1       7.200  98.040  15.564  0.00  0.00     0.012 A 
ATOM     58  H29 DGB d   1       6.819  98.613  16.402  0.00  0.00     0.116 H 
ENDBRANCH  46  49
ENDBRANCH  42  45
ENDBRANCH  38  41
ENDBRANCH  35  38
ENDBRANCH  32  35
ENDBRANCH   1  32
TORSDOF 8
