REMARK  4 active torsions:
REMARK  status: ('A' for Active; 'I' for Inactive)
REMARK    1  A    between atoms: O4_1  and  C4_2 
REMARK    2  A    between atoms: C3_3  and  O3_4 
REMARK    3  A    between atoms: C5_7  and  C6_8 
REMARK    4  A    between atoms: C6_8  and  O6_9 
ROOT
ATOM      1  C4  1AB d   1      32.508  21.343  25.738  0.00  0.00     0.091 C 
ATOM      2  C3  1AB d   1      32.770  22.776  25.279  0.00  0.00     0.085 C 
ATOM      3  C2  1AB d   1      33.950  23.226  26.161  0.00  0.00     0.108 C 
ATOM      4  N1  1AB d   1      34.093  22.165  27.197  0.00  0.00    -0.064 N 
ATOM      5  C5  1AB d   1      32.766  21.511  27.246  0.00  0.00     0.148 C 
ATOM      6  H2  1AB d   1      33.197  20.622  25.273  0.00  0.00     0.090 H 
ATOM      7  H3  1AB d   1      31.887  23.414  25.432  0.00  0.00     0.089 H 
ATOM      8  H5  1AB d   1      33.732  24.196  26.631  0.00  0.00     0.079 H 
ATOM      9  H6  1AB d   1      34.870  23.307  25.563  0.00  0.00     0.079 H 
ATOM     10  H7  1AB d   1      34.324  22.569  28.091  0.00  0.00     0.277 HD
ATOM     11  H8  1AB d   1      34.806  21.503  26.933  0.00  0.00     0.277 HD
ATOM     12  H9  1AB d   1      32.010  22.167  27.702  0.00  0.00     0.091 H 
ENDROOT
BRANCH   5  13
ATOM     13  C6  1AB d   1      32.811  20.194  28.039  0.00  0.00     0.046 C 
ATOM     14  H10 1AB d   1      31.814  19.730  28.032  0.00  0.00     0.077 H 
ATOM     15  H11 1AB d   1      33.111  20.403  29.076  0.00  0.00     0.077 H 
BRANCH  13  16
ATOM     16  O6  1AB d   1      33.758  19.294  27.442  0.00  0.00    -0.399 OA
ATOM     17  H12 1AB d   1      33.779  18.484  27.938  0.00  0.00     0.209 HD
ENDBRANCH  13  16
ENDBRANCH   5  13
BRANCH   1  18
ATOM     18  O4  1AB d   1      31.145  20.955  25.489  0.00  0.00    -0.391 OA
ATOM     19  H1  1AB d   1      30.560  21.536  25.961  0.00  0.00     0.210 HD
ENDBRANCH   1  18
BRANCH   2  20
ATOM     20  O3  1AB d   1      33.152  22.792  23.918  0.00  0.00    -0.391 OA
ATOM     21  H4  1AB d   1      33.312  23.688  23.646  0.00  0.00     0.210 HD
ENDBRANCH   2  20
TORSDOF 4
