REMARK  8 active torsions:
REMARK  status: ('A' for Active; 'I' for Inactive)
REMARK    1  A    between atoms: C11_6  and  C10_7 
REMARK    2  A    between atoms: C10_7  and  C9_8 
REMARK    3  A    between atoms: C9_8  and  C8_9 
REMARK    4  A    between atoms: C8_9  and  N1_10 
REMARK    5  A    between atoms: C3_13  and  O3_14 
REMARK    6  A    between atoms: C4_15  and  O4_16 
REMARK    7  A    between atoms: C5_17  and  C6_18 
REMARK    8  A    between atoms: C6_18  and  O6_19 
ROOT
ATOM      1  N1  G27 d   1      33.924  23.332  27.493  0.00  0.00    -0.068 N 
ATOM      2  C7  G27 d   1      33.779  21.943  28.008  0.00  0.00     0.091 C 
ATOM      3  C2  G27 d   1      34.063  23.366  26.012  0.00  0.00     0.109 C 
ATOM      4  C3  G27 d   1      32.832  22.717  25.336  0.00  0.00     0.084 C 
ATOM      5  C4  G27 d   1      32.581  21.292  25.861  0.00  0.00     0.069 C 
ATOM      6  C5  G27 d   1      32.533  21.269  27.411  0.00  0.00     0.017 C 
ATOM      7  H12 G27 d   1      33.104  23.861  27.744  0.00  0.00     0.280 HD
ATOM      8  H13 G27 d   1      33.684  21.972  29.104  0.00  0.00     0.076 H 
ATOM      9  H14 G27 d   1      34.671  21.361  27.733  0.00  0.00     0.076 H 
ATOM     10  H15 G27 d   1      34.969  22.814  25.721  0.00  0.00     0.080 H 
ATOM     11  H16 G27 d   1      34.148  24.411  25.680  0.00  0.00     0.080 H 
ATOM     12  H17 G27 d   1      31.946  23.334  25.548  0.00  0.00     0.089 H 
ATOM     13  H19 G27 d   1      33.407  20.645  25.531  0.00  0.00     0.087 H 
ATOM     14  H21 G27 d   1      31.651  21.849  27.721  0.00  0.00     0.049 H 
ENDROOT
BRANCH   1  15
ATOM     15  C8  G27 d   1      35.102  23.924  28.157  0.00  0.00     0.084 C 
ATOM     16  H10 G27 d   1      35.059  23.680  29.229  0.00  0.00     0.076 H 
ATOM     17  H11 G27 d   1      36.009  23.485  27.717  0.00  0.00     0.076 H 
BRANCH  15  18
ATOM     18  C9  G27 d   1      35.175  25.455  28.006  0.00  0.00    -0.039 C 
ATOM     19  H8  G27 d   1      35.188  25.722  26.939  0.00  0.00     0.035 H 
ATOM     20  H9  G27 d   1      34.302  25.918  28.489  0.00  0.00     0.035 H 
BRANCH  18  21
ATOM     21  C10 G27 d   1      36.460  25.949  28.679  0.00  0.00    -0.040 C 
ATOM     22  H6  G27 d   1      36.382  25.752  29.758  0.00  0.00     0.040 H 
ATOM     23  H7  G27 d   1      37.307  25.384  28.263  0.00  0.00     0.040 H 
BRANCH  21  24
ATOM     24  C11 G27 d   1      36.735  27.444  28.481  0.00  0.00    -0.058 A 
ATOM     25  C12 G27 d   1      36.310  28.361  29.440  0.00  0.00    -0.077 A 
ATOM     26  C13 G27 d   1      36.566  29.725  29.279  0.00  0.00    -0.082 A 
ATOM     27  H1  G27 d   1      35.777  28.014  30.317  0.00  0.00     0.084 H 
ATOM     28  C14 G27 d   1      37.260  30.172  28.156  0.00  0.00    -0.083 A 
ATOM     29  H2  G27 d   1      36.226  30.434  30.025  0.00  0.00     0.083 H 
ATOM     30  C15 G27 d   1      37.695  29.253  27.201  0.00  0.00    -0.082 A 
ATOM     31  H3  G27 d   1      37.461  31.229  28.025  0.00  0.00     0.083 H 
ATOM     32  C16 G27 d   1      37.437  27.890  27.364  0.00  0.00    -0.077 A 
ATOM     33  H4  G27 d   1      38.236  29.599  26.328  0.00  0.00     0.083 H 
ATOM     34  H5  G27 d   1      37.783  27.180  26.622  0.00  0.00     0.084 H 
ENDBRANCH  21  24
ENDBRANCH  18  21
ENDBRANCH  15  18
ENDBRANCH   1  15
BRANCH   6  35
ATOM     35  C6  G27 d   1      32.383  19.851  27.989  0.00  0.00     0.024 C 
ATOM     36  H22 G27 d   1      31.380  19.469  27.750  0.00  0.00     0.074 H 
ATOM     37  H23 G27 d   1      32.509  19.892  29.081  0.00  0.00     0.074 H 
BRANCH  35  38
ATOM     38  O6  G27 d   1      33.367  18.965  27.436  0.00  0.00    -0.400 OA
ATOM     39  H24 G27 d   1      34.236  19.289  27.643  0.00  0.00     0.209 HD
ENDBRANCH  35  38
ENDBRANCH   6  35
BRANCH   4  40
ATOM     40  O3  G27 d   1      33.040  22.662  23.927  0.00  0.00    -0.391 OA
ATOM     41  H18 G27 d   1      33.160  23.543  23.591  0.00  0.00     0.210 HD
ENDBRANCH   4  40
BRANCH   5  42
ATOM     42  O4  G27 d   1      31.354  20.794  25.304  0.00  0.00    -0.392 OA
ATOM     43  H20 G27 d   1      30.637  21.361  25.563  0.00  0.00     0.210 HD
ENDBRANCH   5  42
TORSDOF 8
