REMARK  8 active torsions:
REMARK  status: ('A' for Active; 'I' for Inactive)
REMARK    1  A    between atoms: C11_6  and  C10_7 
REMARK    2  A    between atoms: C10_7  and  C9_8 
REMARK    3  A    between atoms: C9_8  and  C8_9 
REMARK    4  A    between atoms: C8_9  and  N1_10 
REMARK    5  A    between atoms: C3_13  and  O3_14 
REMARK    6  A    between atoms: C4_15  and  O4_16 
REMARK    7  A    between atoms: C5_17  and  C6_18 
REMARK    8  A    between atoms: C6_18  and  O6_19 
ROOT
ATOM      1  N1  G27 d   1      33.863  23.244  27.513  0.00  0.00    -0.068 N 
ATOM      2  C7  G27 d   1      33.715  21.834  27.987  0.00  0.00     0.091 C 
ATOM      3  C2  G27 d   1      33.988  23.349  26.024  0.00  0.00     0.109 C 
ATOM      4  C3  G27 d   1      32.784  22.675  25.320  0.00  0.00     0.084 C 
ATOM      5  C4  G27 d   1      32.579  21.233  25.807  0.00  0.00     0.069 C 
ATOM      6  C5  G27 d   1      32.480  21.181  27.352  0.00  0.00     0.017 C 
ATOM      7  H12 G27 d   1      33.044  23.762  27.792  0.00  0.00     0.280 HD
ATOM      8  H13 G27 d   1      33.605  21.830  29.081  0.00  0.00     0.076 H 
ATOM      9  H14 G27 d   1      34.612  21.262  27.707  0.00  0.00     0.076 H 
ATOM     10  H15 G27 d   1      34.916  22.853  25.704  0.00  0.00     0.080 H 
ATOM     11  H16 G27 d   1      34.023  24.411  25.739  0.00  0.00     0.080 H 
ATOM     12  H17 G27 d   1      31.876  23.256  25.540  0.00  0.00     0.089 H 
ATOM     13  H19 G27 d   1      33.443  20.628  25.494  0.00  0.00     0.087 H 
ATOM     14  H21 G27 d   1      31.599  21.771  27.643  0.00  0.00     0.049 H 
ENDROOT
BRANCH   1  15
ATOM     15  C8  G27 d   1      35.044  23.825  28.178  0.00  0.00     0.084 C 
ATOM     16  H10 G27 d   1      34.991  23.593  29.252  0.00  0.00     0.076 H 
ATOM     17  H11 G27 d   1      35.948  23.369  27.748  0.00  0.00     0.076 H 
BRANCH  15  18
ATOM     18  C9  G27 d   1      35.139  25.352  28.011  0.00  0.00    -0.039 C 
ATOM     19  H8  G27 d   1      35.256  25.603  26.946  0.00  0.00     0.035 H 
ATOM     20  H9  G27 d   1      34.227  25.826  28.402  0.00  0.00     0.035 H 
BRANCH  18  21
ATOM     21  C10 G27 d   1      36.360  25.848  28.798  0.00  0.00    -0.040 C 
ATOM     22  H6  G27 d   1      36.235  25.543  29.847  0.00  0.00     0.040 H 
ATOM     23  H7  G27 d   1      37.254  25.363  28.379  0.00  0.00     0.040 H 
BRANCH  21  24
ATOM     24  C11 G27 d   1      36.587  27.365  28.770  0.00  0.00    -0.058 A 
ATOM     25  C12 G27 d   1      36.476  28.100  29.955  0.00  0.00    -0.077 A 
ATOM     26  C13 G27 d   1      36.692  29.482  29.962  0.00  0.00    -0.082 A 
ATOM     27  H1  G27 d   1      36.220  27.593  30.878  0.00  0.00     0.084 H 
ATOM     28  C14 G27 d   1      37.037  30.128  28.776  0.00  0.00    -0.083 A 
ATOM     29  H2  G27 d   1      36.592  30.046  30.882  0.00  0.00     0.083 H 
ATOM     30  C15 G27 d   1      37.169  29.391  27.596  0.00  0.00    -0.082 A 
ATOM     31  H3  G27 d   1      37.203  31.199  28.769  0.00  0.00     0.083 H 
ATOM     32  C16 G27 d   1      36.944  28.011  27.589  0.00  0.00    -0.077 A 
ATOM     33  H4  G27 d   1      37.449  29.894  26.677  0.00  0.00     0.083 H 
ATOM     34  H5  G27 d   1      37.047  27.447  26.669  0.00  0.00     0.084 H 
ENDBRANCH  21  24
ENDBRANCH  18  21
ENDBRANCH  15  18
ENDBRANCH   1  15
BRANCH   6  35
ATOM     35  C6  G27 d   1      32.279  19.760  27.904  0.00  0.00     0.024 C 
ATOM     36  H22 G27 d   1      31.286  19.396  27.603  0.00  0.00     0.074 H 
ATOM     37  H23 G27 d   1      32.341  19.790  29.002  0.00  0.00     0.074 H 
BRANCH  35  38
ATOM     38  O6  G27 d   1      33.280  18.858  27.403  0.00  0.00    -0.400 OA
ATOM     39  H24 G27 d   1      34.140  19.165  27.664  0.00  0.00     0.209 HD
ENDBRANCH  35  38
ENDBRANCH   6  35
BRANCH   4  40
ATOM     40  O3  G27 d   1      33.002  22.661  23.912  0.00  0.00    -0.391 OA
ATOM     41  H18 G27 d   1      33.094  23.553  23.598  0.00  0.00     0.210 HD
ENDBRANCH   4  40
BRANCH   5  42
ATOM     42  O4  G27 d   1      31.395  20.695  25.200  0.00  0.00    -0.392 OA
ATOM     43  H20 G27 d   1      30.646  21.225  25.446  0.00  0.00     0.210 HD
ENDBRANCH   5  42
TORSDOF 8
