REMARK  4 active torsions:
REMARK  status: ('A' for Active; 'I' for Inactive)
REMARK    1  A    between atoms: O4_1  and  C4_2 
REMARK    2  A    between atoms: C3_3  and  O3_4 
REMARK    3  A    between atoms: C5_8  and  C6_9 
REMARK    4  A    between atoms: C6_9  and  O6_10 
ROOT
ATOM      1  C4  IFM d   1      32.719  21.324  25.911  0.00  0.00     0.069 C 
ATOM      2  C3  IFM d   1      32.943  22.777  25.447  0.00  0.00     0.084 C 
ATOM      3  C2  IFM d   1      34.150  23.419  26.181  0.00  0.00     0.107 C 
ATOM      4  N   IFM d   1      33.986  23.302  27.658  0.00  0.00    -0.072 N 
ATOM      5  C1  IFM d   1      33.825  21.889  28.125  0.00  0.00     0.089 C 
ATOM      6  C5  IFM d   1      32.608  21.227  27.456  0.00  0.00     0.017 C 
ATOM      7  H2  IFM d   1      33.584  20.723  25.594  0.00  0.00     0.087 H 
ATOM      8  H3  IFM d   1      32.041  23.367  25.666  0.00  0.00     0.089 H 
ATOM      9  H5  IFM d   1      34.216  24.482  25.907  0.00  0.00     0.079 H 
ATOM     10  H6  IFM d   1      35.074  22.904  25.878  0.00  0.00     0.079 H 
ATOM     11  H7  IFM d   1      33.169  23.825  27.932  0.00  0.00     0.277 HD
ATOM     12  H8  IFM d   1      34.801  23.695  28.103  0.00  0.00     0.277 HD
ATOM     13  H9  IFM d   1      33.684  21.884  29.216  0.00  0.00     0.076 H 
ATOM     14  H10 IFM d   1      34.731  21.320  27.870  0.00  0.00     0.076 H 
ATOM     15  H11 IFM d   1      31.707  21.781  27.759  0.00  0.00     0.049 H 
ENDROOT
BRANCH   6  16
ATOM     16  C6  IFM d   1      32.456  19.781  27.960  0.00  0.00     0.024 C 
ATOM     17  H12 IFM d   1      31.475  19.394  27.649  0.00  0.00     0.074 H 
ATOM     18  H13 IFM d   1      32.522  19.775  29.058  0.00  0.00     0.074 H 
BRANCH  16  19
ATOM     19  O6  IFM d   1      33.489  18.932  27.422  0.00  0.00    -0.400 OA
ATOM     20  H14 IFM d   1      34.339  19.260  27.691  0.00  0.00     0.209 HD
ENDBRANCH  16  19
ENDBRANCH   6  16
BRANCH   1  21
ATOM     21  O4  IFM d   1      31.540  20.797  25.276  0.00  0.00    -0.392 OA
ATOM     22  H1  IFM d   1      30.789  21.327  25.516  0.00  0.00     0.210 HD
ENDBRANCH   1  21
BRANCH   2  23
ATOM     23  O3  IFM d   1      33.177  22.777  24.037  0.00  0.00    -0.391 OA
ATOM     24  H4  IFM d   1      33.316  23.669  23.740  0.00  0.00     0.210 HD
ENDBRANCH   2  23
TORSDOF 4
