REMARK  13 active torsions:
REMARK  status: ('A' for Active; 'I' for Inactive)
REMARK    1  A    between atoms: S1_2  and  C22_4 
REMARK    2  A    between atoms: S1_2  and  C19_11 
REMARK    3  A    between atoms: C22_4  and  C23_5 
REMARK    4  A    between atoms: C23_5  and  N6_6 
REMARK    5  A    between atoms: N6_6  and  C24_7 
REMARK    6  A    between atoms: C24_7  and  C25_8 
REMARK    7  A    between atoms: C25_8  and  C26_9 
REMARK    8  A    between atoms: C26_9  and  O4_10 
REMARK    9  A    between atoms: C16_14  and  N2_17 
REMARK   10  A    between atoms: N2_17  and  C2_18 
REMARK   11  A    between atoms: C6_20  and  O6_27 
REMARK   12  A    between atoms: O6_27  and  C9_28 
REMARK   13  A    between atoms: C9_28  and  C10_29 
ROOT
ATOM      1  N2  NU5 d   1      -7.854 -24.644  25.098  0.00  0.00    -0.188 N 
ATOM      2  H18 NU5 d   1      -8.590 -25.000  25.725  0.00  0.00     0.184 HD
ENDROOT
BRANCH   1   3
ATOM      3  C16 NU5 d   1      -6.650 -25.268  25.171  0.00  0.00     0.049 A 
ATOM      4  C17 NU5 d   1      -6.535 -26.314  26.077  0.00  0.00    -0.055 A 
ATOM      5  C18 NU5 d   1      -5.343 -27.014  26.229  0.00  0.00    -0.060 A 
ATOM      6  H15 NU5 d   1      -7.393 -26.591  26.679  0.00  0.00     0.087 H 
ATOM      7  C19 NU5 d   1      -4.231 -26.682  25.472  0.00  0.00     0.059 A 
ATOM      8  H14 NU5 d   1      -5.283 -27.826  26.945  0.00  0.00     0.085 H 
ATOM      9  C20 NU5 d   1      -4.337 -25.633  24.553  0.00  0.00    -0.060 A 
ATOM     10  C21 NU5 d   1      -5.538 -24.928  24.400  0.00  0.00    -0.055 A 
ATOM     11  H17 NU5 d   1      -3.478 -25.362  23.951  0.00  0.00     0.085 H 
ATOM     12  H16 NU5 d   1      -5.603 -24.118  23.682  0.00  0.00     0.087 H 
BRANCH   7  13
ATOM     13  S1  NU5 d   1      -2.877 -27.521  25.650  0.00  0.00     0.177 S 
ATOM     14  O2  NU5 d   1      -2.936 -28.332  26.831  0.00  0.00    -0.223 OA
ATOM     15  O3  NU5 d   1      -2.790 -28.426  24.525  0.00  0.00    -0.223 OA
BRANCH  13  16
ATOM     16  C22 NU5 d   1      -1.568 -26.491  25.752  0.00  0.00     0.055 C 
ATOM     17  H1  NU5 d   1      -1.213 -26.457  26.793  0.00  0.00     0.059 H 
ATOM     18  H2  NU5 d   1      -1.874 -25.483  25.436  0.00  0.00     0.059 H 
BRANCH  16  19
ATOM     19  C23 NU5 d   1      -0.445 -26.977  24.855  0.00  0.00     0.094 C 
ATOM     20  H3  NU5 d   1      -0.508 -28.072  24.771  0.00  0.00     0.077 H 
ATOM     21  H4  NU5 d   1       0.517 -26.699  25.311  0.00  0.00     0.077 H 
BRANCH  19  22
ATOM     22  N6  NU5 d   1      -0.515 -26.400  23.521  0.00  0.00    -0.074 N 
ATOM     23  H5  NU5 d   1      -1.101 -25.583  23.585  0.00  0.00     0.277 HD
ATOM     24  H6  NU5 d   1      -0.957 -27.085  22.928  0.00  0.00     0.277 HD
BRANCH  22  25
ATOM     25  C24 NU5 d   1       0.714 -25.989  22.851  0.00  0.00     0.084 C 
ATOM     26  H7  NU5 d   1       1.574 -26.350  23.434  0.00  0.00     0.075 H 
ATOM     27  H8  NU5 d   1       0.741 -24.890  22.800  0.00  0.00     0.075 H 
BRANCH  25  28
ATOM     28  C25 NU5 d   1       0.808 -26.551  21.433  0.00  0.00    -0.023 C 
ATOM     29  H9  NU5 d   1       1.601 -26.013  20.893  0.00  0.00     0.038 H 
ATOM     30  H10 NU5 d   1      -0.155 -26.390  20.926  0.00  0.00     0.038 H 
BRANCH  28  31
ATOM     31  C26 NU5 d   1       1.128 -28.047  21.411  0.00  0.00     0.018 C 
ATOM     32  H11 NU5 d   1       2.048 -28.231  21.986  0.00  0.00     0.074 H 
ATOM     33  H12 NU5 d   1       1.274 -28.372  20.370  0.00  0.00     0.074 H 
BRANCH  31  34
ATOM     34  O4  NU5 d   1       0.047 -28.793  21.994  0.00  0.00    -0.401 OA
ATOM     35  H13 NU5 d   1      -0.748 -28.637  21.498  0.00  0.00     0.209 HD
ENDBRANCH  31  34
ENDBRANCH  28  31
ENDBRANCH  25  28
ENDBRANCH  22  25
ENDBRANCH  19  22
ENDBRANCH  16  19
ENDBRANCH  13  16
ENDBRANCH   7  13
ENDBRANCH   1   3
BRANCH   1  36
ATOM     36  C2  NU5 d   1      -8.200 -23.608  24.297  0.00  0.00     0.731 A 
ATOM     37  N1  NU5 d   1      -7.294 -23.069  23.450  0.00  0.00    -0.036 NA
ATOM     38  C6  NU5 d   1      -7.579 -22.030  22.646  0.00  0.00     0.214 A 
ATOM     39  C5  NU5 d   1      -8.940 -21.476  22.685  0.00  0.00     0.136 A 
ATOM     40  N7  NU5 d   1      -9.590 -20.493  22.049  0.00  0.00    -0.344 N 
ATOM     41  C4  NU5 d   1      -9.883 -22.109  23.619  0.00  0.00     0.201 A 
ATOM     42  C8  NU5 d   1     -10.851 -20.491  22.540  0.00  0.00     0.067 A 
ATOM     43  H19 NU5 d   1      -9.207 -19.864  21.329  0.00  0.00     0.167 HD
ATOM     44  N9  NU5 d   1     -11.033 -21.457  23.481  0.00  0.00    -0.222 NA
ATOM     45  H20 NU5 d   1     -11.628 -19.798  22.220  0.00  0.00     0.143 H 
ATOM     46  N3  NU5 d   1      -9.465 -23.140  24.378  0.00  0.00    -0.040 NA
BRANCH  38  47
ATOM     47  O6  NU5 d   1      -6.644 -21.515  21.807  0.00  0.00    -0.332 OA
BRANCH  47  48
ATOM     48  C9  NU5 d   1      -5.301 -21.333  22.235  0.00  0.00     0.031 C 
ATOM     49  H21 NU5 d   1      -5.145 -21.813  23.212  0.00  0.00     0.075 H 
ATOM     50  H22 NU5 d   1      -5.069 -20.261  22.312  0.00  0.00     0.075 H 
BRANCH  48  51
ATOM     51  C10 NU5 d   1      -4.412 -21.992  21.174  0.00  0.00    -0.033 C 
ATOM     52  C15 NU5 d   1      -4.983 -21.741  19.755  0.00  0.00    -0.060 C 
ATOM     53  C14 NU5 d   1      -4.031 -21.270  18.650  0.00  0.00    -0.065 C 
ATOM     54  H24 NU5 d   1      -5.768 -20.977  19.853  0.00  0.00     0.033 H 
ATOM     55  H25 NU5 d   1      -5.431 -22.686  19.415  0.00  0.00     0.033 H 
ATOM     56  C13 NU5 d   1      -2.562 -21.529  18.960  0.00  0.00    -0.065 C 
ATOM     57  H26 NU5 d   1      -4.171 -20.188  18.508  0.00  0.00     0.033 H 
ATOM     58  H27 NU5 d   1      -4.289 -21.798  17.720  0.00  0.00     0.033 H 
ATOM     59  C12 NU5 d   1      -2.230 -20.916  20.319  0.00  0.00    -0.065 C 
ATOM     60  H28 NU5 d   1      -1.933 -21.069  18.183  0.00  0.00     0.033 H 
ATOM     61  H29 NU5 d   1      -2.376 -22.613  18.988  0.00  0.00     0.033 H 
ATOM     62  C11 NU5 d   1      -2.934 -21.666  21.445  0.00  0.00    -0.060 C 
ATOM     63  H30 NU5 d   1      -2.555 -19.865  20.329  0.00  0.00     0.033 H 
ATOM     64  H31 NU5 d   1      -1.143 -20.965  20.479  0.00  0.00     0.033 H 
ATOM     65  H32 NU5 d   1      -2.400 -22.613  21.613  0.00  0.00     0.033 H 
ATOM     66  H33 NU5 d   1      -2.880 -21.049  22.354  0.00  0.00     0.033 H 
ATOM     67  H23 NU5 d   1      -4.495 -23.078  21.324  0.00  0.00     0.043 H 
ENDBRANCH  48  51
ENDBRANCH  47  48
ENDBRANCH  38  47
ENDBRANCH   1  36
TORSDOF 13
