REMARK  5 active torsions:
REMARK  status: ('A' for Active; 'I' for Inactive)
REMARK    1  A    between atoms: C2_1  and  C6_5 
REMARK    2  A    between atoms: C3_2  and  C8_7 
REMARK    3  A    between atoms: C4_3  and  C9_8 
REMARK       I    between atoms: C4_3  and  N1_9 
REMARK    4  A    between atoms: C9_8  and  C13_13 
REMARK    5  A    between atoms: C9_8  and  N14_14 
ROOT
ATOM      1  C6  AIA d   1      14.643  40.417 -82.337  0.00  0.00    -0.092 C 
ATOM      2  C11 AIA d   1      14.962  41.257 -81.554  0.00  0.00    -0.152 C 
ATOM      3  H9  AIA d   1      15.245  42.001 -80.860  0.00  0.00     0.166 H 
ENDROOT
BRANCH   1   4
ATOM      4  C2  AIA d   1      14.277  39.318 -83.274  0.00  0.00     0.074 C 
ATOM      5  C5  AIA d   1      14.705  39.653 -84.705  0.00  0.00    -0.034 C 
ATOM      6  C7  AIA d   1      16.170  39.240 -84.762  0.00  0.00    -0.039 C 
ATOM      7  H3  AIA d   1      14.595  40.729 -84.903  0.00  0.00     0.037 H 
ATOM      8  H4  AIA d   1      14.110  39.083 -85.434  0.00  0.00     0.037 H 
ATOM      9  C3  AIA d   1      16.303  38.039 -83.799  0.00  0.00     0.047 C 
ATOM     10  H5  AIA d   1      16.445  38.944 -85.785  0.00  0.00     0.036 H 
ATOM     11  H6  AIA d   1      16.815  40.068 -84.434  0.00  0.00     0.036 H 
ATOM     12  N1  AIA d   1      15.097  38.124 -82.937  0.00  0.00    -0.326 N 
ATOM     13  H2  AIA d   1      16.325  37.074 -84.327  0.00  0.00     0.081 H 
ATOM     14  C4  AIA d   1      14.808  37.193 -81.951  0.00  0.00     0.252 C 
ATOM     15  O10 AIA d   1      15.513  36.221 -81.698  0.00  0.00    -0.271 OA
ATOM     16  H1  AIA d   1      13.199  39.106 -83.216  0.00  0.00     0.093 H 
BRANCH   9  17
ATOM     17  C8  AIA d   1      17.642  38.286 -83.087  0.00  0.00    -0.005 C 
ATOM     18  N12 AIA d   1      17.688  38.586 -81.772  0.00  0.00    -0.314 NA
ATOM     19  H10 AIA d   1      18.576  38.745 -81.322  0.00  0.00     0.185 HD
ATOM     20  H7  AIA d   1      18.570  38.218 -83.653  0.00  0.00     0.110 H 
ENDBRANCH   9  17
BRANCH  14  21
ATOM     21  C9  AIA d   1      13.514  37.361 -81.106  0.00  0.00     0.179 C 
ATOM     22  H8  AIA d   1      12.803  37.952 -81.702  0.00  0.00     0.099 H 
BRANCH  21  23
ATOM     23  C13 AIA d   1      13.663  38.085 -79.754  0.00  0.00    -0.018 C 
ATOM     24  C16 AIA d   1      12.342  38.540 -79.132  0.00  0.00    -0.059 C 
ATOM     25  C18 AIA d   1      12.730  38.959 -77.714  0.00  0.00    -0.065 C 
ATOM     26  H15 AIA d   1      11.614  37.715 -79.111  0.00  0.00     0.033 H 
ATOM     27  H16 AIA d   1      11.919  39.389 -79.689  0.00  0.00     0.033 H 
ATOM     28  C19 AIA d   1      13.997  38.156 -77.379  0.00  0.00    -0.065 C 
ATOM     29  H19 AIA d   1      11.923  38.716 -77.007  0.00  0.00     0.033 H 
ATOM     30  H20 AIA d   1      12.938  40.038 -77.676  0.00  0.00     0.033 H 
ATOM     31  C17 AIA d   1      14.301  37.300 -78.614  0.00  0.00    -0.059 C 
ATOM     32  H21 AIA d   1      14.836  38.837 -77.171  0.00  0.00     0.033 H 
ATOM     33  H22 AIA d   1      13.821  37.513 -76.504  0.00  0.00     0.033 H 
ATOM     34  H17 AIA d   1      15.386  37.198 -78.765  0.00  0.00     0.033 H 
ATOM     35  H18 AIA d   1      13.848  36.302 -78.522  0.00  0.00     0.033 H 
ATOM     36  H11 AIA d   1      14.285  38.970 -79.953  0.00  0.00     0.043 H 
ENDBRANCH  21  23
BRANCH  21  37
ATOM     37  N14 AIA d   1      12.976  36.028 -80.930  0.00  0.00    -0.066 N 
ATOM     38  H12 AIA d   1      12.890  35.579 -81.828  0.00  0.00     0.275 HD
ATOM     39  H13 AIA d   1      12.069  36.087 -80.495  0.00  0.00     0.275 HD
ATOM     40  H14 AIA d   1      13.595  35.490 -80.344  0.00  0.00     0.275 HD
ENDBRANCH  21  37
ENDBRANCH  14  21
ENDBRANCH   1   4
TORSDOF 5
