REMARK  6 active torsions:
REMARK  status: ('A' for Active; 'I' for Inactive)
REMARK    1  A    between atoms: C2_1  and  C6_5 
REMARK    2  A    between atoms: C3_2  and  C8_7 
REMARK    3  A    between atoms: C4_3  and  C9_8 
REMARK       I    between atoms: C4_3  and  N1_9 
REMARK    4  A    between atoms: C9_8  and  C13_13 
REMARK    5  A    between atoms: C9_8  and  N14_14 
REMARK    6  A    between atoms: C11_11  and  C15_15 
ROOT
ATOM      1  C2  1AD d   1      14.361  39.000 -83.114  0.00  0.00     0.074 C 
ATOM      2  C3  1AD d   1      16.411  37.745 -83.518  0.00  0.00     0.047 C 
ATOM      3  C4  1AD d   1      14.883  36.914 -81.677  0.00  0.00     0.252 C 
ATOM      4  C5  1AD d   1      14.847  39.299 -84.543  0.00  0.00    -0.034 C 
ATOM      5  C7  1AD d   1      16.315  38.884 -84.539  0.00  0.00    -0.039 C 
ATOM      6  N1  1AD d   1      15.182  37.840 -82.697  0.00  0.00    -0.326 N 
ATOM      7  O10 1AD d   1      15.614  35.962 -81.379  0.00  0.00    -0.271 OA
ATOM      8  H1  1AD d   1      13.285  38.772 -83.098  0.00  0.00     0.093 H 
ATOM      9  H2  1AD d   1      16.441  36.761 -84.009  0.00  0.00     0.081 H 
ATOM     10  H3  1AD d   1      14.746  40.370 -84.772  0.00  0.00     0.037 H 
ATOM     11  H4  1AD d   1      14.278  38.711 -85.279  0.00  0.00     0.037 H 
ATOM     12  H5  1AD d   1      16.619  38.534 -85.537  0.00  0.00     0.036 H 
ATOM     13  H6  1AD d   1      16.953  39.727 -84.236  0.00  0.00     0.036 H 
ENDROOT
BRANCH   3  14
ATOM     14  C9  1AD d   1      13.559  37.033 -80.855  0.00  0.00     0.179 C 
ATOM     15  H8  1AD d   1      12.809  37.510 -81.504  0.00  0.00     0.099 H 
BRANCH  14  16
ATOM     16  C13 1AD d   1      13.598  37.868 -79.557  0.00  0.00    -0.018 C 
ATOM     17  C16 1AD d   1      12.390  37.764 -78.634  0.00  0.00    -0.059 C 
ATOM     18  C18 1AD d   1      12.803  38.688 -77.493  0.00  0.00    -0.065 C 
ATOM     19  H17 1AD d   1      12.240  36.733 -78.282  0.00  0.00     0.033 H 
ATOM     20  H18 1AD d   1      11.474  38.120 -79.128  0.00  0.00     0.033 H 
ATOM     21  C19 1AD d   1      14.340  38.588 -77.438  0.00  0.00    -0.065 C 
ATOM     22  H21 1AD d   1      12.359  38.353 -76.544  0.00  0.00     0.033 H 
ATOM     23  H22 1AD d   1      12.490  39.722 -77.700  0.00  0.00     0.033 H 
ATOM     24  C17 1AD d   1      14.716  37.612 -78.557  0.00  0.00    -0.059 C 
ATOM     25  H23 1AD d   1      14.798  39.573 -77.614  0.00  0.00     0.033 H 
ATOM     26  H24 1AD d   1      14.667  38.201 -76.462  0.00  0.00     0.033 H 
ATOM     27  H19 1AD d   1      15.702  37.848 -78.984  0.00  0.00     0.033 H 
ATOM     28  H20 1AD d   1      14.710  36.571 -78.203  0.00  0.00     0.033 H 
ATOM     29  H10 1AD d   1      13.682  38.910 -79.898  0.00  0.00     0.043 H 
ENDBRANCH  14  16
BRANCH  14  30
ATOM     30  N14 1AD d   1      13.149  35.658 -80.603  0.00  0.00    -0.066 N 
ATOM     31  H11 1AD d   1      13.136  35.147 -81.472  0.00  0.00     0.275 HD
ATOM     32  H12 1AD d   1      12.227  35.652 -80.195  0.00  0.00     0.275 HD
ATOM     33  H13 1AD d   1      13.800  35.224 -79.968  0.00  0.00     0.275 HD
ENDBRANCH  14  30
ENDBRANCH   3  14
BRANCH   1  34
ATOM     34  C6  1AD d   1      14.668  40.112 -82.196  0.00  0.00    -0.081 C 
ATOM     35  C11 1AD d   1      14.876  40.977 -81.408  0.00  0.00    -0.109 C 
BRANCH  35  36
ATOM     36  C15 1AD d   1      15.073  42.028 -80.427  0.00  0.00    -0.021 C 
ATOM     37  H14 1AD d   1      16.107  42.398 -80.489  0.00  0.00     0.044 H 
ATOM     38  H15 1AD d   1      14.886  41.629 -79.419  0.00  0.00     0.044 H 
ATOM     39  H16 1AD d   1      14.375  42.854 -80.629  0.00  0.00     0.044 H 
ENDBRANCH  35  36
ENDBRANCH   1  34
BRANCH   2  40
ATOM     40  C8  1AD d   1      17.742  37.993 -82.794  0.00  0.00    -0.005 C 
ATOM     41  N12 1AD d   1      17.763  38.294 -81.499  0.00  0.00    -0.314 NA
ATOM     42  H9  1AD d   1      18.642  38.455 -81.033  0.00  0.00     0.185 HD
ATOM     43  H7  1AD d   1      18.678  37.922 -83.346  0.00  0.00     0.110 H 
ENDBRANCH   2  40
TORSDOF 6
