REMARK  6 active torsions:
REMARK  status: ('A' for Active; 'I' for Inactive)
REMARK    1  A    between atoms: C8_3  and  N9_18 
REMARK    2  A    between atoms: C13_5  and  N14_21 
REMARK    3  A    between atoms: C17_7  and  N16_22 
REMARK    4  A    between atoms: C18_23  and  C17_7 
REMARK    5  A    between atoms: N_14  and  C_13 
REMARK    6  A    between atoms: N26_27  and  C27_28 
ROOT
ATOM      1  C20 XIH d   1      15.701  39.237 -85.479  0.00  0.00    -0.082 A 
ATOM      2  C21 XIH d   1      16.187  37.929 -85.366  0.00  0.00    -0.082 A 
ATOM      3  C22 XIH d   1      16.434  37.342 -84.107  0.00  0.00    -0.062 A 
ATOM      4  C24 XIH d   1      16.482  37.337 -81.740  0.00  0.00     0.100 C 
ATOM      5  C18 XIH d   1      15.696  39.435 -83.006  0.00  0.00    -0.019 A 
ATOM      6  C19 XIH d   1      15.465  39.970 -84.308  0.00  0.00    -0.074 A 
ATOM      7  C23 XIH d   1      16.195  38.069 -82.935  0.00  0.00     0.052 A 
ATOM      8  N25 XIH d   1      16.616  36.742 -80.775  0.00  0.00    -0.191 NA
ATOM      9  H8  XIH d   1      15.511  39.674 -86.453  0.00  0.00     0.083 H 
ATOM     10  H9  XIH d   1      16.378  37.355 -86.265  0.00  0.00     0.083 H 
ATOM     11  H10 XIH d   1      16.809  36.327 -84.047  0.00  0.00     0.085 H 
ATOM     12  H21 XIH d   1      15.092  40.984 -84.395  0.00  0.00     0.084 H 
ENDROOT
BRANCH   5  13
ATOM     13  C17 XIH d   1      15.359  40.448 -81.909  0.00  0.00     0.042 C 
ATOM     14  H6  XIH d   1      15.811  41.408 -82.200  0.00  0.00     0.073 H 
ATOM     15  H7  XIH d   1      14.264  40.551 -81.884  0.00  0.00     0.073 H 
BRANCH  13  16
ATOM     16  N16 XIH d   1      15.797  40.157 -80.553  0.00  0.00    -0.168 N 
ATOM     17  C5  XIH d   1      17.130  40.577 -80.062  0.00  0.00     0.167 A 
ATOM     18  C6  XIH d   1      17.211  40.161 -78.782  0.00  0.00     0.185 A 
ATOM     19  C3  XIH d   1      18.296  41.318 -80.664  0.00  0.00     0.282 A 
ATOM     20  N7  XIH d   1      15.968  39.468 -78.416  0.00  0.00    -0.044 NA
ATOM     21  N26 XIH d   1      18.443  40.437 -78.003  0.00  0.00    -0.285 N 
ATOM     22  C8  XIH d   1      15.177  39.509 -79.495  0.00  0.00     0.707 A 
ATOM     23  C28 XIH d   1      19.539  41.127 -78.557  0.00  0.00     0.332 A 
ATOM     24  N   XIH d   1      19.408  41.538 -79.882  0.00  0.00    -0.269 N 
ATOM     25  O29 XIH d   1      20.569  41.333 -77.868  0.00  0.00    -0.246 OA
ATOM     26  O   XIH d   1      18.206  41.698 -81.864  0.00  0.00    -0.265 OA
BRANCH  22  27
ATOM     27  N9  XIH d   1      13.826  38.948 -79.521  0.00  0.00    -0.214 N 
ATOM     28  C10 XIH d   1      12.968  38.927 -78.302  0.00  0.00     0.012 C 
ATOM     29  C11 XIH d   1      12.451  37.481 -78.021  0.00  0.00    -0.048 C 
ATOM     30  H1  XIH d   1      12.108  39.596 -78.453  0.00  0.00     0.065 H 
ATOM     31  H2  XIH d   1      13.556  39.275 -77.440  0.00  0.00     0.065 H 
ATOM     32  C12 XIH d   1      11.897  36.799 -79.295  0.00  0.00    -0.036 C 
ATOM     33  H14 XIH d   1      11.649  37.531 -77.269  0.00  0.00     0.035 H 
ATOM     34  H15 XIH d   1      13.283  36.877 -77.630  0.00  0.00     0.035 H 
ATOM     35  C13 XIH d   1      12.919  36.866 -80.465  0.00  0.00     0.116 C 
ATOM     36  H16 XIH d   1      11.679  35.745 -79.070  0.00  0.00     0.036 H 
ATOM     37  H17 XIH d   1      10.971  37.308 -79.599  0.00  0.00     0.036 H 
ATOM     38  C15 XIH d   1      13.273  38.312 -80.708  0.00  0.00     0.038 C 
ATOM     39  H3  XIH d   1      13.828  36.331 -80.153  0.00  0.00     0.086 H 
ATOM     40  H4  XIH d   1      12.364  38.854 -81.010  0.00  0.00     0.068 H 
ATOM     41  H5  XIH d   1      14.017  38.364 -81.517  0.00  0.00     0.068 H 
BRANCH  35  42
ATOM     42  N14 XIH d   1      12.435  36.235 -81.705  0.00  0.00    -0.073 N 
ATOM     43  H18 XIH d   1      13.142  36.313 -82.420  0.00  0.00     0.274 HD
ATOM     44  H19 XIH d   1      11.594  36.699 -82.012  0.00  0.00     0.274 HD
ATOM     45  H20 XIH d   1      12.238  35.262 -81.532  0.00  0.00     0.274 HD
ENDBRANCH  35  42
ENDBRANCH  22  27
BRANCH  21  46
ATOM     46  C27 XIH d   1      18.494  39.964 -76.604  0.00  0.00    -0.008 C 
ATOM     47  H22 XIH d   1      17.553  39.452 -76.356  0.00  0.00     0.057 H 
ATOM     48  H23 XIH d   1      18.633  40.823 -75.931  0.00  0.00     0.057 H 
ATOM     49  H24 XIH d   1      19.334  39.265 -76.484  0.00  0.00     0.057 H 
ENDBRANCH  21  46
BRANCH  24  50
ATOM     50  C   XIH d   1      20.548  42.276 -80.528  0.00  0.00    -0.007 C 
ATOM     51  H11 XIH d   1      21.369  42.387 -79.805  0.00  0.00     0.057 H 
ATOM     52  H12 XIH d   1      20.206  43.271 -80.850  0.00  0.00     0.057 H 
ATOM     53  H13 XIH d   1      20.903  41.710 -81.402  0.00  0.00     0.057 H 
ENDBRANCH  24  50
ENDBRANCH  13  16
ENDBRANCH   5  13
TORSDOF 6
