REMARK  5 active torsions:
REMARK  status: ('A' for Active; 'I' for Inactive)
REMARK    1  A    between atoms: C1_1  and  C2_2 
REMARK    2  A    between atoms: C4_4  and  S1_10 
REMARK    3  A    between atoms: C5_5  and  N1_9 
REMARK    4  A    between atoms: S1_10  and  N2_13 
REMARK    5  A    between atoms: C11_17  and  C12_18 
ROOT
ATOM      1  S1  885 d   1      10.694  45.872  52.453  0.00  0.00     0.246 S 
ATOM      2  O1  885 d   1      10.254  47.225  52.137  0.00  0.00    -0.206 OA
ATOM      3  O2  885 d   1      11.233  45.583  53.771  0.00  0.00    -0.206 OA
ENDROOT
BRANCH   1   4
ATOM      4  C4  885 d   1       9.278  44.824  52.175  0.00  0.00     0.101 A 
ATOM      5  C3  885 d   1       8.605  44.339  53.330  0.00  0.00    -0.051 A 
ATOM      6  C2  885 d   1       7.454  43.521  53.221  0.00  0.00    -0.039 A 
ATOM      7  H4  885 d   1       8.980  44.600  54.313  0.00  0.00     0.086 H 
ATOM      8  C7  885 d   1       6.962  43.201  51.904  0.00  0.00     0.042 A 
ATOM      9  C6  885 d   1       7.640  43.687  50.743  0.00  0.00    -0.035 A 
ATOM     10 CL   885 d   1       5.550  42.233  51.651  0.00  0.00    -0.084 Cl
ATOM     11  C5  885 d   1       8.809  44.505  50.852  0.00  0.00     0.050 A 
ATOM     12  H5  885 d   1       7.261  43.431  49.760  0.00  0.00     0.089 H 
BRANCH   6  13
ATOM     13  C1  885 d   1       6.799  43.050  54.495  0.00  0.00    -0.050 C 
ATOM     14  H1  885 d   1       7.365  43.428  55.359  0.00  0.00     0.033 H 
ATOM     15  H2  885 d   1       6.787  41.950  54.517  0.00  0.00     0.033 H 
ATOM     16  H3  885 d   1       5.767  43.428  54.538  0.00  0.00     0.033 H 
ENDBRANCH   6  13
BRANCH  11  17
ATOM     17  N1  885 d   1       9.430  44.951  49.686  0.00  0.00    -0.398 N 
ATOM     18  H6  885 d   1      10.273  45.541  49.744  0.00  0.00     0.156 HD
ATOM     19  H7  885 d   1       9.046  44.691  48.766  0.00  0.00     0.156 HD
ENDBRANCH  11  17
ENDBRANCH   1   4
BRANCH   1  20
ATOM     20  N2  885 d   1      11.841  45.375  51.271  0.00  0.00    -0.192 NA
ATOM     21  C8  885 d   1      12.476  44.023  51.428  0.00  0.00    -0.005 C 
ATOM     22  C9  885 d   1      13.893  44.328  51.881  0.00  0.00    -0.051 C 
ATOM     23  H8  885 d   1      12.480  43.480  50.471  0.00  0.00     0.057 H 
ATOM     24  H9  885 d   1      11.944  43.428  52.185  0.00  0.00     0.057 H 
ATOM     25  C10 885 d   1      14.245  45.563  51.066  0.00  0.00    -0.039 C 
ATOM     26  H10 885 d   1      14.572  43.494  51.650  0.00  0.00     0.034 H 
ATOM     27  H11 885 d   1      13.928  44.541  52.960  0.00  0.00     0.034 H 
ATOM     28  C11 885 d   1      12.947  46.369  51.006  0.00  0.00     0.093 C 
ATOM     29  H12 885 d   1      14.573  45.280  50.055  0.00  0.00     0.036 H 
ATOM     30  H13 885 d   1      15.039  46.142  51.561  0.00  0.00     0.036 H 
ATOM     31  H14 885 d   1      12.976  47.141  51.789  0.00  0.00     0.082 H 
BRANCH  28  32
ATOM     32  C12 885 d   1      12.605  47.047  49.661  0.00  0.00     0.192 C 
ATOM     33  O3  885 d   1      11.797  46.445  48.890  0.00  0.00    -0.647 OA
ATOM     34  O4  885 d   1      13.177  48.161  49.491  0.00  0.00    -0.647 OA
ENDBRANCH  28  32
ENDBRANCH   1  20
TORSDOF 5
