REMARK  7 active torsions:
REMARK  status: ('A' for Active; 'I' for Inactive)
REMARK    1  A    between atoms: N6_6  and  C24_24 
REMARK    2  A    between atoms: N9_9  and  C28_28 
REMARK    3  A    between atoms: C24_24  and  C35_35 
REMARK    4  A    between atoms: C25_25  and  O33_33 
REMARK    5  A    between atoms: C26_26  and  N31_31 
REMARK    6  A    between atoms: N31_31  and  C32_32 
REMARK    7  A    between atoms: O33_33  and  C34_34 
ROOT
ATOM      1  C24 STU d   1      46.369  57.804   0.566  0.00  0.00     0.168 C 
ATOM      2  C25 STU d   1      45.244  58.174   1.571  0.00  0.00     0.113 C 
ATOM      3  C26 STU d   1      43.872  58.227   0.805  0.00  0.00     0.134 C 
ATOM      4  C27 STU d   1      43.529  56.767   0.444  0.00  0.00     0.005 C 
ATOM      5  C28 STU d   1      44.741  56.184  -0.299  0.00  0.00     0.115 C 
ATOM      6  O29 STU d   1      45.859  57.051  -0.539  0.00  0.00    -0.333 OA
ATOM      7  H12 STU d   1      45.468  59.146   2.035  0.00  0.00     0.094 H 
ATOM      8  H13 STU d   1      44.054  58.758  -0.141  0.00  0.00     0.088 H 
ATOM      9  H14 STU d   1      42.641  56.738  -0.204  0.00  0.00     0.042 H 
ATOM     10  H15 STU d   1      43.334  56.188   1.359  0.00  0.00     0.042 H 
ATOM     11  H16 STU d   1      44.362  55.893  -1.290  0.00  0.00     0.118 H 
ENDROOT
BRANCH   3  12
ATOM     12  N31 STU d   1      42.772  59.001   1.485  0.00  0.00    -0.072 N 
ATOM     13  H17 STU d   1      42.916  59.989   1.347  0.00  0.00     0.277 HD
ATOM     14  H18 STU d   1      42.772  58.797   2.472  0.00  0.00     0.277 HD
BRANCH  12  15
ATOM     15  C32 STU d   1      41.436  58.583   0.872  0.00  0.00     0.065 C 
ATOM     16  H19 STU d   1      40.620  59.139   1.357  0.00  0.00     0.067 H 
ATOM     17  H20 STU d   1      41.285  57.504   1.023  0.00  0.00     0.067 H 
ATOM     18  H21 STU d   1      41.441  58.805  -0.205  0.00  0.00     0.067 H 
ENDBRANCH  12  15
ENDBRANCH   3  12
BRANCH   2  19
ATOM     19  O33 STU d   1      45.089  57.148   2.598  0.00  0.00    -0.384 OA
BRANCH  19  20
ATOM     20  C34 STU d   1      45.638  57.652   3.834  0.00  0.00     0.005 C 
ATOM     21  H22 STU d   1      45.530  56.891   4.621  0.00  0.00     0.066 H 
ATOM     22  H23 STU d   1      45.099  58.564   4.130  0.00  0.00     0.066 H 
ATOM     23  H24 STU d   1      46.704  57.885   3.694  0.00  0.00     0.066 H 
ENDBRANCH  19  20
ENDBRANCH   2  19
BRANCH   1  24
ATOM     24  N6  STU d   1      47.408  57.088   1.376  0.00  0.00    -0.308 N 
ATOM     25  C5  STU d   1      48.573  57.521   2.074  0.00  0.00     0.049 A 
ATOM     26  C4  STU d   1      49.188  58.790   2.217  0.00  0.00    -0.056 A 
ATOM     27  C23 STU d   1      49.168  56.421   2.727  0.00  0.00     0.004 A 
ATOM     28  C3  STU d   1      50.362  58.887   3.001  0.00  0.00    -0.081 A 
ATOM     29  H4  STU d   1      48.768  59.666   1.737  0.00  0.00     0.087 H 
ATOM     30  C2  STU d   1      50.897  57.760   3.630  0.00  0.00    -0.082 A 
ATOM     31  H3  STU d   1      50.852  59.847   3.115  0.00  0.00     0.083 H 
ATOM     32  C1  STU d   1      50.304  56.534   3.508  0.00  0.00    -0.070 A 
ATOM     33  H2  STU d   1      51.798  57.859   4.225  0.00  0.00     0.083 H 
ATOM     34  H1  STU d   1      50.716  55.668   4.013  0.00  0.00     0.084 H 
ATOM     35  C22 STU d   1      48.368  55.273   2.403  0.00  0.00     0.015 A 
ATOM     36  C7  STU d   1      47.312  55.708   1.569  0.00  0.00     0.077 A 
ATOM     37  C21 STU d   1      48.484  53.909   2.728  0.00  0.00    -0.010 A 
ATOM     38  C8  STU d   1      46.338  54.806   1.117  0.00  0.00     0.077 A 
ATOM     39  N9  STU d   1      45.249  54.970   0.348  0.00  0.00    -0.316 N 
ATOM     40  C16 STU d   1      46.437  53.473   1.505  0.00  0.00     0.022 A 
ATOM     41  C10 STU d   1      44.595  53.772   0.188  0.00  0.00     0.048 A 
ATOM     42  C11 STU d   1      43.473  53.433  -0.536  0.00  0.00    -0.056 A 
ATOM     43  C15 STU d   1      45.339  52.768   0.863  0.00  0.00     0.004 A 
ATOM     44  C12 STU d   1      43.117  52.049  -0.496  0.00  0.00    -0.081 A 
ATOM     45  H5  STU d   1      42.901  54.164  -1.096  0.00  0.00     0.087 H 
ATOM     46  C13 STU d   1      43.822  51.070   0.227  0.00  0.00    -0.082 A 
ATOM     47  H6  STU d   1      42.247  51.733  -1.060  0.00  0.00     0.083 H 
ATOM     48  C14 STU d   1      44.975  51.390   0.914  0.00  0.00    -0.070 A 
ATOM     49  H7  STU d   1      43.455  50.050   0.245  0.00  0.00     0.083 H 
ATOM     50  H8  STU d   1      45.559  50.651   1.451  0.00  0.00     0.084 H 
ATOM     51  C17 STU d   1      47.503  52.996   2.308  0.00  0.00     0.054 A 
ATOM     52  C18 STU d   1      47.846  51.647   2.832  0.00  0.00     0.253 A 
ATOM     53  N19 STU d   1      48.984  51.748   3.602  0.00  0.00    -0.353 N 
ATOM     54  O30 STU d   1      47.223  50.604   2.669  0.00  0.00    -0.268 OA
ATOM     55  C20 STU d   1      49.491  53.148   3.598  0.00  0.00     0.021 A 
ATOM     56  H9  STU d   1      49.409  50.988   4.094  0.00  0.00     0.163 HD
ATOM     57  H10 STU d   1      50.499  53.197   3.161  0.00  0.00     0.071 H 
ATOM     58  H11 STU d   1      49.513  53.558   4.619  0.00  0.00     0.071 H 
ENDBRANCH   1  24
BRANCH   1  59
ATOM     59  C35 STU d   1      46.852  59.181   0.054  0.00  0.00    -0.028 C 
ATOM     60  H25 STU d   1      46.051  59.656  -0.531  0.00  0.00     0.034 H 
ATOM     61  H26 STU d   1      47.739  59.045  -0.582  0.00  0.00     0.034 H 
ATOM     62  H27 STU d   1      47.110  59.821   0.911  0.00  0.00     0.034 H 
ENDBRANCH   1  59
TORSDOF 7
