REMARK  9 active torsions:
REMARK  status: ('A' for Active; 'I' for Inactive)
REMARK    1  A    between atoms: O3_7  and  C1_1 
REMARK    2  A    between atoms: C2_2  and  O4_12 
REMARK    3  A    between atoms: S1_4  and  N1_6 
REMARK    4  A    between atoms: S1_4  and  O3_7 
REMARK    5  A    between atoms: O4_12  and  C7_13 
REMARK    6  A    between atoms: C14_20  and  C16_22 
REMARK    7  A    between atoms: C17_23  and  O5_26 
REMARK    8  A    between atoms: O5_26  and  S2_27 
REMARK    9  A    between atoms: S2_27  and  N2_30 
ROOT
ATOM      1  C1  PO1 d   1      -0.058   8.889  11.917  0.00  0.00     0.124 A 
ATOM      2  C2  PO1 d   1      -0.745   8.978  13.153  0.00  0.00     0.103 A 
ATOM      3  C3  PO1 d   1      -1.373   7.821  13.649  0.00  0.00    -0.041 A 
ATOM      4  C4  PO1 d   1      -1.352   6.555  12.975  0.00  0.00    -0.044 A 
ATOM      5  C5  PO1 d   1      -0.650   6.497  11.725  0.00  0.00    -0.049 A 
ATOM      6  C6  PO1 d   1      -0.011   7.649  11.208  0.00  0.00    -0.040 A 
ATOM      7  C8  PO1 d   1      -2.040   5.322  13.574  0.00  0.00    -0.024 C 
ATOM      8  C9  PO1 d   1      -2.413   4.273  12.459  0.00  0.00    -0.042 C 
ATOM      9  C10 PO1 d   1      -1.159   3.948  11.618  0.00  0.00    -0.057 C 
ATOM     10  C11 PO1 d   1      -0.564   5.197  10.922  0.00  0.00    -0.040 C 
ATOM     11  C12 PO1 d   1      -3.282   5.703  14.450  0.00  0.00    -0.057 C 
ATOM     12  C13 PO1 d   1      -3.973   4.455  15.082  0.00  0.00    -0.055 C 
ATOM     13  C14 PO1 d   1      -4.347   3.406  14.039  0.00  0.00    -0.012 C 
ATOM     14  C15 PO1 d   1      -3.071   3.072  13.190  0.00  0.00    -0.041 C 
ATOM     15  C17 PO1 d   1      -4.551   1.960  14.551  0.00  0.00     0.066 C 
ATOM     16  C18 PO1 d   1      -4.503   1.101  13.295  0.00  0.00    -0.038 C 
ATOM     17  C19 PO1 d   1      -3.529   1.840  12.361  0.00  0.00    -0.058 C 
ATOM     18  H3  PO1 d   1      -1.902   7.890  14.593  0.00  0.00     0.088 H 
ATOM     19  H4  PO1 d   1       0.520   7.590  10.264  0.00  0.00     0.088 H 
ATOM     20  H8  PO1 d   1      -1.312   4.840  14.242  0.00  0.00     0.048 H 
ATOM     21  H9  PO1 d   1      -3.161   4.711  11.781  0.00  0.00     0.041 H 
ATOM     22  H10 PO1 d   1      -1.433   3.213  10.847  0.00  0.00     0.034 H 
ATOM     23  H11 PO1 d   1      -0.394   3.516  12.280  0.00  0.00     0.034 H 
ATOM     24  H12 PO1 d   1       0.497   4.996  10.713  0.00  0.00     0.040 H 
ATOM     25  H13 PO1 d   1      -1.102   5.347   9.975  0.00  0.00     0.040 H 
ATOM     26  H14 PO1 d   1      -4.013   6.228  13.817  0.00  0.00     0.034 H 
ATOM     27  H15 PO1 d   1      -2.951   6.371  15.259  0.00  0.00     0.034 H 
ATOM     28  H16 PO1 d   1      -4.888   4.781  15.598  0.00  0.00     0.034 H 
ATOM     29  H17 PO1 d   1      -3.284   4.000  15.809  0.00  0.00     0.034 H 
ATOM     30  H18 PO1 d   1      -2.295   2.717  13.884  0.00  0.00     0.042 H 
ATOM     31  H22 PO1 d   1      -3.742   1.678  15.240  0.00  0.00     0.086 H 
ATOM     32  H23 PO1 d   1      -5.500   1.026  12.837  0.00  0.00     0.036 H 
ATOM     33  H24 PO1 d   1      -4.130   0.093  13.527  0.00  0.00     0.036 H 
ATOM     34  H25 PO1 d   1      -2.671   1.200  12.106  0.00  0.00     0.033 H 
ATOM     35  H26 PO1 d   1      -4.037   2.157  11.438  0.00  0.00     0.033 H 
ENDROOT
BRANCH  15  36
ATOM     36  O5  PO1 d   1      -5.830   1.825  15.235  0.00  0.00    -0.254 OA
BRANCH  36  37
ATOM     37  S2  PO1 d   1      -5.896   0.957  16.567  0.00  0.00     0.356 S 
ATOM     38  O6  PO1 d   1      -7.276   0.983  16.923  0.00  0.00    -0.176 OA
ATOM     39  O7  PO1 d   1      -4.952   1.559  17.476  0.00  0.00    -0.176 OA
BRANCH  37  40
ATOM     40  N2  PO1 d   1      -5.435  -0.494  16.173  0.00  0.00    -0.306 N 
ATOM     41  H27 PO1 d   1      -5.400  -1.213  16.867  0.00  0.00     0.171 HD
ATOM     42  H28 PO1 d   1      -5.176  -0.697  15.229  0.00  0.00     0.171 HD
ENDBRANCH  37  40
ENDBRANCH  36  37
ENDBRANCH  15  36
BRANCH  13  43
ATOM     43  C16 PO1 d   1      -5.581   3.917  13.243  0.00  0.00    -0.066 C 
ATOM     44  H19 PO1 d   1      -6.409   4.117  13.939  0.00  0.00     0.028 H 
ATOM     45  H20 PO1 d   1      -5.890   3.152  12.515  0.00  0.00     0.028 H 
ATOM     46  H21 PO1 d   1      -5.317   4.843  12.712  0.00  0.00     0.028 H 
ENDBRANCH  13  43
BRANCH   2  47
ATOM     47  O4  PO1 d   1      -0.858  10.120  13.922  0.00  0.00    -0.353 OA
BRANCH  47  48
ATOM     48  C7  PO1 d   1      -0.129  10.234  15.133  0.00  0.00     0.010 C 
ATOM     49  H5  PO1 d   1      -0.346  11.205  15.602  0.00  0.00     0.066 H 
ATOM     50  H6  PO1 d   1       0.948  10.162  14.921  0.00  0.00     0.066 H 
ATOM     51  H7  PO1 d   1      -0.423   9.424  15.816  0.00  0.00     0.066 H 
ENDBRANCH  47  48
ENDBRANCH   2  47
BRANCH   1  52
ATOM     52  O3  PO1 d   1       0.583  10.072  11.424  0.00  0.00    -0.214 OA
BRANCH  52  53
ATOM     53  S1  PO1 d   1       2.189  10.228  11.522  0.00  0.00     0.360 S 
ATOM     54  O2  PO1 d   1       2.589   9.429  12.631  0.00  0.00    -0.176 OA
ATOM     55  O1  PO1 d   1       2.644   9.924  10.212  0.00  0.00    -0.176 OA
BRANCH  53  56
ATOM     56  N1  PO1 d   1       2.512  11.742  11.841  0.00  0.00    -0.305 N 
ATOM     57  H1  PO1 d   1       3.461  12.040  11.941  0.00  0.00     0.171 HD
ATOM     58  H2  PO1 d   1       1.767  12.401  11.943  0.00  0.00     0.171 HD
ENDBRANCH  53  56
ENDBRANCH  52  53
ENDBRANCH   1  52
TORSDOF 9
