REMARK  18 active torsions:
REMARK  status: ('A' for Active; 'I' for Inactive)
REMARK    1  A    between atoms: C1_1  and  O46_44 
REMARK    2  A    between atoms: C6_6  and  O7_7 
REMARK       I    between atoms: N8_8  and  C24_24 
REMARK    3  A    between atoms: C9_9  and  C11_11 
REMARK       I    between atoms: C11_11  and  N12_12 
REMARK    4  A    between atoms: N12_12  and  C13_13 
REMARK    5  A    between atoms: C13_13  and  C14_14 
REMARK    6  A    between atoms: C14_14  and  C15_15 
REMARK       I    between atoms: C20_20  and  N21_21 
REMARK       I    between atoms: C20_20  and  N22_22 
REMARK    7  A    between atoms: C24_24  and  C26_26 
REMARK    8  A    between atoms: C26_26  and  C27_27 
REMARK    9  A    between atoms: C26_26  and  N32_32 
REMARK   10  A    between atoms: C27_27  and  C28_28 
REMARK   11  A    between atoms: C28_28  and  C29_29 
REMARK   12  A    between atoms: C28_28  and  C30_30 
REMARK       I    between atoms: N32_32  and  C33_33 
REMARK   13  A    between atoms: C33_33  and  C34_34 
REMARK   14  A    between atoms: C34_34  and  O35_35 
REMARK   15  A    between atoms: C34_34  and  C37_37 
REMARK   16  A    between atoms: O35_35  and  C36_36 
REMARK   17  A    between atoms: C37_37  and  O38_38 
REMARK   18  A    between atoms: O38_38  and  S39_39 
ROOT
ATOM      1  C1  SN3 d   1      20.655 -15.222  18.446  0.00  0.00     0.060 C 
ATOM      2  C2  SN3 d   1      21.176 -14.095  19.376  0.00  0.00    -0.034 C 
ATOM      3  C3  SN3 d   1      20.219 -13.557  20.437  0.00  0.00    -0.029 C 
ATOM      4  C4  SN3 d   1      19.184 -14.565  20.969  0.00  0.00     0.021 C 
ATOM      5  C5  SN3 d   1      18.611 -15.545  19.914  0.00  0.00    -0.019 C 
ATOM      6  C6  SN3 d   1      19.753 -16.255  19.181  0.00  0.00     0.062 C 
ATOM      7  N8  SN3 d   1      18.155 -13.668  21.558  0.00  0.00    -0.332 N 
ATOM      8  C9  SN3 d   1      18.190 -12.379  20.864  0.00  0.00     0.092 C 
ATOM      9  C10 SN3 d   1      19.318 -12.473  19.817  0.00  0.00    -0.032 C 
ATOM     10  C24 SN3 d   1      17.332 -13.971  22.580  0.00  0.00     0.245 C 
ATOM     11  O25 SN3 d   1      16.560 -13.112  22.946  0.00  0.00    -0.271 OA
ATOM     12  H1  SN3 d   1      21.531 -15.773  18.073  0.00  0.00     0.086 H 
ATOM     13  H2  SN3 d   1      21.468 -13.249  18.737  0.00  0.00     0.037 H 
ATOM     14  H3  SN3 d   1      22.063 -14.483  19.899  0.00  0.00     0.037 H 
ATOM     15  H4  SN3 d   1      20.813 -13.153  21.270  0.00  0.00     0.043 H 
ATOM     16  H5  SN3 d   1      19.643 -15.174  21.762  0.00  0.00     0.073 H 
ATOM     17  H6  SN3 d   1      18.005 -14.984  19.187  0.00  0.00     0.040 H 
ATOM     18  H7  SN3 d   1      17.981 -16.293  20.417  0.00  0.00     0.040 H 
ATOM     19  H8  SN3 d   1      19.325 -16.930  18.425  0.00  0.00     0.086 H 
ATOM     20  H10 SN3 d   1      18.390 -11.566  21.577  0.00  0.00     0.087 H 
ATOM     21  H11 SN3 d   1      18.931 -12.784  18.836  0.00  0.00     0.037 H 
ATOM     22  H12 SN3 d   1      19.852 -11.517  19.714  0.00  0.00     0.037 H 
ENDROOT
BRANCH   8  23
ATOM     23  C11 SN3 d   1      16.878 -12.130  20.153  0.00  0.00     0.240 C 
ATOM     24  N12 SN3 d   1      16.365 -10.872  20.154  0.00  0.00    -0.359 N 
ATOM     25  H13 SN3 d   1      16.843 -10.134  20.630  0.00  0.00     0.162 HD
ATOM     26  O23 SN3 d   1      16.305 -13.056  19.582  0.00  0.00    -0.271 OA
BRANCH  24  27
ATOM     27  C13 SN3 d   1      15.098 -10.602  19.449  0.00  0.00    -0.001 C 
ATOM     28  H14 SN3 d   1      14.533 -11.539  19.331  0.00  0.00     0.064 H 
ATOM     29  H15 SN3 d   1      15.310 -10.175  18.458  0.00  0.00     0.064 H 
BRANCH  27  30
ATOM     30  C14 SN3 d   1      14.281  -9.611  20.270  0.00  0.00    -0.028 C 
ATOM     31  H16 SN3 d   1      13.552  -9.102  19.623  0.00  0.00     0.042 H 
ATOM     32  H17 SN3 d   1      14.948  -8.866  20.728  0.00  0.00     0.042 H 
BRANCH  30  33
ATOM     33  C15 SN3 d   1      13.558 -10.383  21.348  0.00  0.00    -0.062 C 
ATOM     34  C16 SN3 d   1      12.961  -9.731  22.550  0.00  0.00     0.032 C 
ATOM     35  N17 SN3 d   1      12.209 -10.755  23.271  0.00  0.00    -0.211 N 
ATOM     36  H18 SN3 d   1      12.288  -8.917  22.242  0.00  0.00     0.072 H 
ATOM     37  H19 SN3 d   1      13.757  -9.326  23.193  0.00  0.00     0.072 H 
ATOM     38  C18 SN3 d   1      12.607 -12.034  22.670  0.00  0.00     0.027 C 
ATOM     39  C20 SN3 d   1      11.347 -10.539  24.238  0.00  0.00     0.668 C 
ATOM     40  C19 SN3 d   1      13.388 -11.683  21.422  0.00  0.00    -0.082 C 
ATOM     41  H20 SN3 d   1      11.718 -12.627  22.410  0.00  0.00     0.071 H 
ATOM     42  H21 SN3 d   1      13.238 -12.604  23.368  0.00  0.00     0.071 H 
ATOM     43  H22 SN3 d   1      13.755 -12.403  20.692  0.00  0.00     0.079 H 
ATOM     44  N21 SN3 d   1      10.664 -11.592  24.821  0.00  0.00    -0.235 N 
ATOM     45  N22 SN3 d   1      11.086  -9.263  24.653  0.00  0.00    -0.235 N 
ATOM     46  H23 SN3 d   1       9.990 -11.412  25.579  0.00  0.00     0.174 HD
ATOM     47  H24 SN3 d   1      10.830 -12.556  24.497  0.00  0.00     0.174 HD
ATOM     48  H25 SN3 d   1      11.587  -8.470  24.227  0.00  0.00     0.174 HD
ATOM     49  H26 SN3 d   1      10.388  -9.094  25.391  0.00  0.00     0.174 HD
ENDBRANCH  30  33
ENDBRANCH  27  30
ENDBRANCH  24  27
ENDBRANCH   8  23
BRANCH  10  50
ATOM     50  C26 SN3 d   1      17.366 -15.327  23.271  0.00  0.00     0.106 C 
ATOM     51  H27 SN3 d   1      18.100 -15.980  22.776  0.00  0.00     0.090 H 
BRANCH  50  52
ATOM     52  C27 SN3 d   1      17.745 -15.115  24.750  0.00  0.00     0.049 C 
ATOM     53 CL31 SN3 d   1      19.334 -14.269  24.819  0.00  0.00    -0.122 Cl
ATOM     54  H28 SN3 d   1      16.990 -14.451  25.195  0.00  0.00     0.069 H 
BRANCH  52  55
ATOM     55  C28 SN3 d   1      17.741 -16.408  25.571  0.00  0.00    -0.043 C 
ATOM     56  H29 SN3 d   1      16.715 -16.805  25.589  0.00  0.00     0.041 H 
BRANCH  55  57
ATOM     57  C29 SN3 d   1      18.658 -17.501  24.992  0.00  0.00    -0.072 C 
ATOM     58  H30 SN3 d   1      18.607 -18.397  25.628  0.00  0.00     0.028 H 
ATOM     59  H31 SN3 d   1      19.694 -17.132  24.961  0.00  0.00     0.028 H 
ATOM     60  H32 SN3 d   1      18.328 -17.755  23.974  0.00  0.00     0.028 H 
ENDBRANCH  55  57
BRANCH  55  61
ATOM     61  C30 SN3 d   1      18.158 -16.049  26.995  0.00  0.00    -0.072 C 
ATOM     62  H33 SN3 d   1      17.490 -15.268  27.387  0.00  0.00     0.028 H 
ATOM     63  H34 SN3 d   1      19.193 -15.678  26.991  0.00  0.00     0.028 H 
ATOM     64  H35 SN3 d   1      18.091 -16.943  27.633  0.00  0.00     0.028 H 
ENDBRANCH  55  61
ENDBRANCH  52  55
ENDBRANCH  50  52
BRANCH  50  65
ATOM     65  N32 SN3 d   1      16.043 -15.948  23.241  0.00  0.00    -0.344 N 
ATOM     66  C33 SN3 d   1      15.769 -17.033  22.477  0.00  0.00     0.249 C 
ATOM     67  O43 SN3 d   1      16.601 -17.548  21.750  0.00  0.00    -0.271 OA
ATOM     68  H36 SN3 d   1      15.314 -15.558  23.804  0.00  0.00     0.163 HD
BRANCH  66  69
ATOM     69  C34 SN3 d   1      14.389 -17.615  22.522  0.00  0.00     0.136 C 
ATOM     70  H37 SN3 d   1      14.110 -17.963  21.517  0.00  0.00     0.101 H 
BRANCH  69  71
ATOM     71  O35 SN3 d   1      13.451 -16.603  22.925  0.00  0.00    -0.379 OA
BRANCH  71  72
ATOM     72  C36 SN3 d   1      12.928 -15.839  21.824  0.00  0.00     0.005 C 
ATOM     73  H38 SN3 d   1      12.220 -15.087  22.203  0.00  0.00     0.066 H 
ATOM     74  H39 SN3 d   1      12.409 -16.511  21.125  0.00  0.00     0.066 H 
ATOM     75  H40 SN3 d   1      13.755 -15.335  21.302  0.00  0.00     0.066 H 
ENDBRANCH  71  72
ENDBRANCH  69  71
BRANCH  69  76
ATOM     76  C37 SN3 d   1      14.411 -18.827  23.471  0.00  0.00     0.072 C 
ATOM     77  H41 SN3 d   1      15.286 -19.446  23.224  0.00  0.00     0.081 H 
ATOM     78  H42 SN3 d   1      13.492 -19.410  23.312  0.00  0.00     0.081 H 
BRANCH  76  79
ATOM     79  O38 SN3 d   1      14.486 -18.467  24.862  0.00  0.00    -0.254 OA
BRANCH  79  80
ATOM     80  S39 SN3 d   1      15.053 -19.563  25.796  0.00  0.00     0.251 S 
ATOM     81  O40 SN3 d   1      15.221 -19.010  27.092  0.00  0.00    -0.572 OA
ATOM     82  O41 SN3 d   1      13.975 -20.620  26.032  0.00  0.00    -0.572 OA
ATOM     83  O42 SN3 d   1      16.113 -20.172  25.054  0.00  0.00    -0.572 OA
ENDBRANCH  79  80
ENDBRANCH  76  79
ENDBRANCH  69  76
ENDBRANCH  66  69
ENDBRANCH  50  65
ENDBRANCH  10  50
BRANCH   6  84
ATOM     84  O7  SN3 d   1      20.482 -17.049  20.139  0.00  0.00    -0.393 OA
ATOM     85  H9  SN3 d   1      21.195 -17.497  19.700  0.00  0.00     0.210 HD
ENDBRANCH   6  84
BRANCH   1  86
ATOM     86  O46 SN3 d   1      19.994 -14.632  17.310  0.00  0.00    -0.393 OA
ATOM     87  H43 SN3 d   1      20.578 -14.010  16.893  0.00  0.00     0.210 HD
ENDBRANCH   1  86
TORSDOF 18
