REMARK  3 active torsions:
REMARK  status: ('A' for Active; 'I' for Inactive)
REMARK    1  A    between atoms: C8_11  and  C9_12 
REMARK    2  A    between atoms: C10_13  and  N2_14 
REMARK    3  A    between atoms: N2_14  and  C11_15 
ROOT
ATOM      1  C1  12C d   1       4.919  -1.474  46.017  0.00  0.00     0.020 A 
ATOM      2  C2  12C d   1       5.724  -2.323  45.228  0.00  0.00    -0.048 A 
ATOM      3  C3  12C d   1       7.050  -2.002  44.931  0.00  0.00     0.035 A 
ATOM      4 CL   12C d   1       7.982  -3.080  43.971  0.00  0.00    -0.084 Cl
ATOM      5  C4  12C d   1       7.619  -0.819  45.408  0.00  0.00    -0.060 A 
ATOM      6  C5  12C d   1       6.846   0.047  46.200  0.00  0.00    -0.055 A 
ATOM      7  C6  12C d   1       5.511  -0.284  46.498  0.00  0.00     0.047 A 
ATOM      8  N1  12C d   1       4.761   0.587  47.301  0.00  0.00    -0.322 N 
ATOM      9  C7  12C d   1       3.451   0.351  47.664  0.00  0.00     0.262 A 
ATOM     10  O1  12C d   1       2.841   1.155  48.375  0.00  0.00    -0.267 OA
ATOM     11  C8  12C d   1       2.801  -0.905  47.148  0.00  0.00     0.105 A 
ATOM     12  C10 12C d   1       3.502  -1.781  46.362  0.00  0.00     0.060 A 
ATOM     13  H1  12C d   1       5.303  -3.245  44.844  0.00  0.00     0.087 H 
ATOM     14  H2  12C d   1       8.647  -0.571  45.170  0.00  0.00     0.086 H 
ATOM     15  H3  12C d   1       7.276   0.967  46.580  0.00  0.00     0.087 H 
ATOM     16  H4  12C d   1       5.199   1.424  47.628  0.00  0.00     0.169 HD
ENDROOT
BRANCH  12  17
ATOM     17  N2  12C d   1       2.896  -2.940  45.868  0.00  0.00    -0.382 N 
ATOM     18  H5  12C d   1       2.419  -3.502  46.588  0.00  0.00     0.160 HD
BRANCH  17  19
ATOM     19  C11 12C d   1       2.812  -3.502  44.528  0.00  0.00     0.036 C 
ATOM     20  C18 12C d   1       1.417  -3.186  43.915  0.00  0.00     0.102 C 
ATOM     21  N5  12C d   1       0.718  -4.495  43.542  0.00  0.00    -0.069 N 
ATOM     22  H12 12C d   1       1.543  -2.568  43.014  0.00  0.00     0.079 H 
ATOM     23  H13 12C d   1       0.807  -2.641  44.651  0.00  0.00     0.079 H 
ATOM     24  C19 12C d   1       1.540  -5.244  42.506  0.00  0.00     0.084 C 
ATOM     25  C21 12C d   1       0.515  -5.369  44.776  0.00  0.00     0.084 C 
ATOM     26  H14 12C d   1      -0.184  -4.279  43.148  0.00  0.00     0.280 HD
ATOM     27  C20 12C d   1       2.913  -5.570  43.113  0.00  0.00    -0.037 C 
ATOM     28  H15 12C d   1       1.670  -4.617  41.612  0.00  0.00     0.076 H 
ATOM     29  H16 12C d   1       1.026  -6.176  42.229  0.00  0.00     0.076 H 
ATOM     30  C23 12C d   1       3.010  -5.040  44.564  0.00  0.00    -0.030 C 
ATOM     31  H17 12C d   1       3.698  -5.099  42.503  0.00  0.00     0.036 H 
ATOM     32  H18 12C d   1       3.056  -6.661  43.117  0.00  0.00     0.036 H 
ATOM     33  C22 12C d   1       1.883  -5.698  45.382  0.00  0.00    -0.037 C 
ATOM     34  H23 12C d   1       3.989  -5.286  45.001  0.00  0.00     0.043 H 
ATOM     35  H21 12C d   1       2.026  -6.789  45.382  0.00  0.00     0.036 H 
ATOM     36  H22 12C d   1       1.920  -5.323  46.416  0.00  0.00     0.036 H 
ATOM     37  H19 12C d   1       0.005  -6.300  44.489  0.00  0.00     0.076 H 
ATOM     38  H20 12C d   1      -0.096  -4.829  45.514  0.00  0.00     0.076 H 
ATOM     39  H6  12C d   1       3.596  -3.052  43.901  0.00  0.00     0.075 H 
ENDBRANCH  17  19
ENDBRANCH  12  17
BRANCH  11  40
ATOM     40  C9  12C d   1       1.428  -1.221  47.490  0.00  0.00     0.147 A 
ATOM     41  N3  12C d   1       0.691  -2.272  47.133  0.00  0.00    -0.338 N 
ATOM     42  C12 12C d   1      -0.541  -2.094  47.709  0.00  0.00     0.062 A 
ATOM     43  H7  12C d   1       0.988  -3.062  46.542  0.00  0.00     0.167 HD
ATOM     44  C13 12C d   1      -0.581  -0.905  48.435  0.00  0.00     0.086 A 
ATOM     45  C14 12C d   1      -1.691  -2.913  47.650  0.00  0.00    -0.055 A 
ATOM     46  N4  12C d   1       0.674  -0.369  48.281  0.00  0.00    -0.228 NA
ATOM     47  C17 12C d   1      -1.721  -0.471  49.129  0.00  0.00    -0.053 A 
ATOM     48  C16 12C d   1      -2.859  -1.300  49.060  0.00  0.00    -0.081 A 
ATOM     49  H11 12C d   1      -1.726   0.456  49.691  0.00  0.00     0.087 H 
ATOM     50  C15 12C d   1      -2.847  -2.502  48.334  0.00  0.00    -0.081 A 
ATOM     51  H10 12C d   1      -3.763  -1.003  49.579  0.00  0.00     0.083 H 
ATOM     52  H9  12C d   1      -3.738  -3.118  48.301  0.00  0.00     0.083 H 
ATOM     53  H8  12C d   1      -1.681  -3.840  47.088  0.00  0.00     0.087 H 
ENDBRANCH  11  40
TORSDOF 3
