REMARK  16 active torsions:
REMARK  status: ('A' for Active; 'I' for Inactive)
REMARK    1  A    between atoms: N2_1  and  C2_2 
REMARK    2  A    between atoms: N9_11  and  C1'_12 
REMARK    3  A    between atoms: C2'_13  and  O2'_14 
REMARK    4  A    between atoms: C3'_15  and  O3'_16 
REMARK    5  A    between atoms: C4'_17  and  C5'_19 
REMARK    6  A    between atoms: C5'_19  and  O5'_20 
REMARK    7  A    between atoms: O5'_20  and  PA_21 
REMARK    8  A    between atoms: PA_21  and  O3A_24 
REMARK    9  A    between atoms: O3A_24  and  PB_25 
REMARK   10  A    between atoms: PB_25  and  O1B_28 
REMARK   11  A    between atoms: O1B_28  and  C11_29 
REMARK   12  A    between atoms: C51_31  and  C61_32 
REMARK   13  A    between atoms: C61_32  and  O6A_33 
REMARK   14  A    between atoms: C21_34  and  O21_35 
REMARK   15  A    between atoms: C31_36  and  O31_37 
REMARK   16  A    between atoms: C41_38  and  O41_39 
ROOT
ATOM      1  C5' GDD d   1      -1.540  43.927  27.804  0.00  0.00     0.058 C 
ATOM      2  H   GDD d   1      -1.481  42.958  27.309  0.00  0.00     0.079 H 
ATOM      3  H   GDD d   1      -2.390  44.517  27.462  0.00  0.00     0.079 H 
ENDROOT
BRANCH   1   4
ATOM      4  C4' GDD d   1      -0.268  44.701  27.479  0.00  0.00     0.089 C 
ATOM      5  C3' GDD d   1       0.941  44.101  28.261  0.00  0.00     0.091 C 
ATOM      6  C2' GDD d   1       1.197  45.168  29.347  0.00  0.00     0.105 C 
ATOM      7  H   GDD d   1       0.806  43.124  28.724  0.00  0.00     0.091 H 
ATOM      8  C1' GDD d   1       0.903  46.389  28.560  0.00  0.00     0.139 C 
ATOM      9  H   GDD d   1       0.637  44.968  30.260  0.00  0.00     0.093 H 
ATOM     10  O4' GDD d   1      -0.373  46.072  27.933  0.00  0.00    -0.353 OA
ATOM     11  H   GDD d   1       1.737  46.668  27.916  0.00  0.00     0.122 H 
ATOM     12  H   GDD d   1      -0.129  44.644  26.399  0.00  0.00     0.090 H 
BRANCH   5  13
ATOM     13  O3' GDD d   1       2.016  43.944  27.305  0.00  0.00    -0.390 OA
ATOM     14  H   GDD d   1       2.817  43.686  27.766  0.00  0.00     0.210 HD
ENDBRANCH   5  13
BRANCH   6  15
ATOM     15  O2' GDD d   1       2.558  45.282  29.714  0.00  0.00    -0.388 OA
ATOM     16  H   GDD d   1       2.814  44.515  30.231  0.00  0.00     0.210 HD
ENDBRANCH   6  15
BRANCH   8  17
ATOM     17  N9  GDD d   1       0.510  47.433  29.474  0.00  0.00    -0.295 N 
ATOM     18  C4  GDD d   1       1.177  48.567  29.675  0.00  0.00     0.161 A 
ATOM     19  N3  GDD d   1       2.340  49.006  29.188  0.00  0.00    -0.174 N 
ATOM     20  C5  GDD d   1       0.421  49.313  30.589  0.00  0.00     0.171 A 
ATOM     21  C2  GDD d   1       2.785  50.218  29.562  0.00  0.00     0.680 A 
ATOM     22  H   GDD d   1       2.882  48.431  28.543  0.00  0.00     0.186 HD
ATOM     23  N1  GDD d   1       2.108  50.987  30.479  0.00  0.00    -0.154 N 
ATOM     24  C6  GDD d   1       0.895  50.566  31.003  0.00  0.00     0.292 A 
ATOM     25  H   GDD d   1       2.503  51.879  30.778  0.00  0.00     0.187 HD
ATOM     26  O6  GDD d   1       0.298  51.309  31.809  0.00  0.00    -0.265 OA
ATOM     27  N7  GDD d   1      -0.679  48.596  30.904  0.00  0.00    -0.234 NA
ATOM     28  C8  GDD d   1      -0.629  47.446  30.211  0.00  0.00     0.071 A 
ATOM     29  H   GDD d   1      -1.379  46.655  30.237  0.00  0.00     0.144 H 
BRANCH  21  30
ATOM     30  N2  GDD d   1       3.897  50.745  29.090  0.00  0.00    -0.234 N 
ATOM     31  H   GDD d   1       4.458  50.229  28.412  0.00  0.00     0.174 HD
ATOM     32  H   GDD d   1       4.196  51.669  29.402  0.00  0.00     0.174 HD
ENDBRANCH  21  30
ENDBRANCH   8  17
ENDBRANCH   1   4
BRANCH   1  33
ATOM     33  O5' GDD d   1      -1.691  43.704  29.171  0.00  0.00    -0.287 OA
BRANCH  33  34
ATOM     34  PA  GDD d   1      -3.077  44.056  29.852  0.00  0.00     0.417 P 
ATOM     35  O1A GDD d   1      -3.142  43.455  31.251  0.00  0.00    -0.624 OA
ATOM     36  O2A GDD d   1      -3.366  45.533  29.842  0.00  0.00    -0.624 OA
BRANCH  34  37
ATOM     37  O3A GDD d   1      -4.067  43.049  29.053  0.00  0.00    -0.180 OA
BRANCH  37  38
ATOM     38  PB  GDD d   1      -5.336  43.526  28.225  0.00  0.00     0.420 P 
ATOM     39  O2B GDD d   1      -6.319  44.120  29.423  0.00  0.00    -0.624 OA
ATOM     40  O3B GDD d   1      -4.992  44.501  27.184  0.00  0.00    -0.624 OA
BRANCH  38  41
ATOM     41  O1B GDD d   1      -5.963  42.174  27.688  0.00  0.00    -0.255 OA
BRANCH  41  42
ATOM     42  C11 GDD d   1      -5.377  41.496  26.596  0.00  0.00     0.170 C 
ATOM     43  O51 GDD d   1      -4.013  41.141  27.033  0.00  0.00    -0.348 OA
ATOM     44  C51 GDD d   1      -3.944  40.068  28.026  0.00  0.00     0.089 C 
ATOM     45  C41 GDD d   1      -4.777  38.828  27.626  0.00  0.00     0.090 C 
ATOM     46  H   GDD d   1      -4.388  40.242  29.006  0.00  0.00     0.090 H 
ATOM     47  C31 GDD d   1      -6.271  39.266  27.378  0.00  0.00     0.092 C 
ATOM     48  H   GDD d   1      -4.379  38.395  26.708  0.00  0.00     0.091 H 
ATOM     49  C21 GDD d   1      -6.311  40.311  26.286  0.00  0.00     0.110 C 
ATOM     50  H   GDD d   1      -6.652  39.678  28.312  0.00  0.00     0.091 H 
ATOM     51  H   GDD d   1      -7.303  40.744  26.161  0.00  0.00     0.094 H 
ATOM     52  H   GDD d   1      -5.274  42.062  25.670  0.00  0.00     0.134 H 
BRANCH  44  53
ATOM     53  C61 GDD d   1      -2.451  39.931  28.076  0.00  0.00     0.043 C 
ATOM     54  H   GDD d   1      -2.113  39.873  29.111  0.00  0.00     0.078 H 
ATOM     55  H   GDD d   1      -1.978  40.798  27.614  0.00  0.00     0.078 H 
BRANCH  53  56
ATOM     56  O6A GDD d   1      -2.102  38.774  27.393  0.00  0.00    -0.398 OA
ATOM     57  H   GDD d   1      -2.519  38.018  27.813  0.00  0.00     0.209 HD
ENDBRANCH  53  56
ENDBRANCH  44  53
BRANCH  45  58
ATOM     58  O41 GDD d   1      -4.700  37.828  28.665  0.00  0.00    -0.390 OA
ATOM     59  H   GDD d   1      -3.783  37.577  28.799  0.00  0.00     0.210 HD
ENDBRANCH  45  58
BRANCH  47  60
ATOM     60  O31 GDD d   1      -7.134  38.145  27.026  0.00  0.00    -0.390 OA
ATOM     61  H   GDD d   1      -6.830  37.755  26.203  0.00  0.00     0.210 HD
ENDBRANCH  47  60
BRANCH  49  62
ATOM     62  O21 GDD d   1      -5.850  39.613  25.162  0.00  0.00    -0.388 OA
ATOM     63  H   GDD d   1      -6.440  38.878  24.979  0.00  0.00     0.210 HD
ENDBRANCH  49  62
ENDBRANCH  41  42
ENDBRANCH  38  41
ENDBRANCH  37  38
ENDBRANCH  34  37
ENDBRANCH  33  34
ENDBRANCH   1  33
TORSDOF 16
