REMARK  9 active torsions:
REMARK  status: ('A' for Active; 'I' for Inactive)
REMARK    1  A    between atoms: PB_1  and  O3A_5 
REMARK    2  A    between atoms: O3A_5  and  PA_6 
REMARK    3  A    between atoms: PA_6  and  O5'_9 
REMARK    4  A    between atoms: O5'_9  and  C5'_10 
REMARK    5  A    between atoms: C5'_10  and  C4'_11 
REMARK    6  A    between atoms: C3'_13  and  O3'_14 
REMARK    7  A    between atoms: C2'_15  and  O2'_16 
REMARK    8  A    between atoms: C1'_17  and  N9_18 
REMARK    9  A    between atoms: C2_25  and  N2_26 
ROOT
ATOM      1  C4' GDP d   1       0.211  44.366  27.574  0.00  0.00     0.089 C 
ATOM      2  O4' GDP d   1       0.320  45.770  27.763  0.00  0.00    -0.353 OA
ATOM      3  C3' GDP d   1       1.385  43.768  28.291  0.00  0.00     0.091 C 
ATOM      4  C2' GDP d   1       1.697  44.799  29.348  0.00  0.00     0.105 C 
ATOM      5  C1' GDP d   1       1.365  46.101  28.653  0.00  0.00     0.139 C 
ATOM      6  H   GDP d   1       0.282  44.018  26.544  0.00  0.00     0.090 H 
ATOM      7  H   GDP d   1       1.282  42.783  28.747  0.00  0.00     0.091 H 
ATOM      8  H   GDP d   1       1.149  44.581  30.265  0.00  0.00     0.093 H 
ATOM      9  H   GDP d   1       2.239  46.529  28.161  0.00  0.00     0.122 H 
ENDROOT
BRANCH   5  10
ATOM     10  N9  GDP d   1       0.858  47.101  29.628  0.00  0.00    -0.295 N 
ATOM     11  C8  GDP d   1      -0.262  47.036  30.407  0.00  0.00     0.071 A 
ATOM     12  N7  GDP d   1      -0.337  48.181  31.114  0.00  0.00    -0.234 NA
ATOM     13  H   GDP d   1      -0.968  46.207  30.449  0.00  0.00     0.144 H 
ATOM     14  C5  GDP d   1       0.722  48.953  30.800  0.00  0.00     0.171 A 
ATOM     15  C6  GDP d   1       1.255  50.280  31.184  0.00  0.00     0.292 A 
ATOM     16  C4  GDP d   1       1.497  48.237  29.821  0.00  0.00     0.161 A 
ATOM     17  O6  GDP d   1       0.603  50.929  32.064  0.00  0.00    -0.265 OA
ATOM     18  N1  GDP d   1       2.416  50.724  30.591  0.00  0.00    -0.154 N 
ATOM     19  C2  GDP d   1       3.061  49.997  29.670  0.00  0.00     0.680 A 
ATOM     20  H   GDP d   1       2.795  51.632  30.861  0.00  0.00     0.187 HD
ATOM     21  N3  GDP d   1       2.617  48.772  29.306  0.00  0.00    -0.174 N 
ATOM     22  H   GDP d   1       3.149  48.238  28.619  0.00  0.00     0.186 HD
BRANCH  19  23
ATOM     23  N2  GDP d   1       4.203  50.430  29.081  0.00  0.00    -0.234 N 
ATOM     24  H   GDP d   1       4.597  51.336  29.336  0.00  0.00     0.174 HD
ATOM     25  H   GDP d   1       4.668  49.850  28.383  0.00  0.00     0.174 HD
ENDBRANCH  19  23
ENDBRANCH   5  10
BRANCH   4  26
ATOM     26  O2' GDP d   1       3.073  44.852  29.715  0.00  0.00    -0.388 OA
ATOM     27  H   GDP d   1       3.344  43.999  30.061  0.00  0.00     0.210 HD
ENDBRANCH   4  26
BRANCH   1  28
ATOM     28  C5' GDP d   1      -1.193  43.914  27.968  0.00  0.00     0.058 C 
ATOM     29  H   GDP d   1      -1.757  44.837  28.107  0.00  0.00     0.079 H 
ATOM     30  H   GDP d   1      -1.497  43.223  27.182  0.00  0.00     0.079 H 
BRANCH  28  31
ATOM     31  O5' GDP d   1      -1.368  43.196  29.171  0.00  0.00    -0.287 OA
BRANCH  31  32
ATOM     32  PA  GDP d   1      -2.691  43.572  30.008  0.00  0.00     0.418 P 
ATOM     33  O1A GDP d   1      -2.889  45.029  29.716  0.00  0.00    -0.624 OA
ATOM     34  O2A GDP d   1      -2.649  43.560  31.533  0.00  0.00    -0.624 OA
BRANCH  32  35
ATOM     35  O3A GDP d   1      -3.955  42.937  29.270  0.00  0.00    -0.173 OA
BRANCH  35  36
ATOM     36  PB  GDP d   1      -5.164  43.972  28.804  0.00  0.00     0.431 P 
ATOM     37  O1B GDP d   1      -5.178  45.416  29.262  0.00  0.00    -0.616 OA
ATOM     38  O2B GDP d   1      -6.398  43.509  29.576  0.00  0.00    -0.616 OA
ATOM     39  O3B GDP d   1      -5.152  43.849  27.273  0.00  0.00    -0.616 OA
ENDBRANCH  35  36
ENDBRANCH  32  35
ENDBRANCH  31  32
ENDBRANCH  28  31
ENDBRANCH   1  28
BRANCH   3  40
ATOM     40  O3' GDP d   1       2.359  43.770  27.268  0.00  0.00    -0.390 OA
ATOM     41  H   GDP d   1       3.178  43.402  27.607  0.00  0.00     0.210 HD
ENDBRANCH   3  40
TORSDOF 9
