REMARK WARNING: 32 MAX_TORS EXCEEDED!!!
REMARK  38 active torsions:
REMARK  status: ('A' for Active; 'I' for Inactive)
REMARK    1  A    between atoms: CA_2  and  N_1 
REMARK    2  A    between atoms: CA_2  and  CB_5 
REMARK    3  A    between atoms: C_3  and  CA_2 
REMARK       I    between atoms: N_6  and  C_3 
REMARK    4  A    between atoms: CA_7  and  N_6 
REMARK    5  A    between atoms: CA_7  and  CB_10 
REMARK    6  A    between atoms: C_8  and  CA_7 
REMARK       I    between atoms: N_17  and  C_8 
REMARK    7  A    between atoms: CB_10  and  CG_11 
REMARK    8  A    between atoms: CG_11  and  CD_12 
REMARK    9  A    between atoms: CD_12  and  NE_13 
REMARK       I    between atoms: NE_13  and  CZ_14 
REMARK       I    between atoms: CZ_14  and  NH1_15 
REMARK   10  A    between atoms: CA_18  and  N_17 
REMARK   11  A    between atoms: CA_18  and  CB_21 
REMARK   12  A    between atoms: C_19  and  CA_18 
REMARK       I    between atoms: N_24  and  C_19 
REMARK   13  A    between atoms: CB_21  and  CG2_23 
REMARK   14  A    between atoms: CB_21  and  OG1_22 
REMARK   15  A    between atoms: CA_25  and  N_24 
REMARK   16  A    between atoms: CA_25  and  CB_26 
REMARK   17  A    between atoms: C_31  and  CA_25 
REMARK   18  A    between atoms: CB_26  and  CG_27 
REMARK   19  A    between atoms: CG_27  and  CD_28 
REMARK   20  A    between atoms: CD_28  and  CE_29 
REMARK   21  A    between atoms: CE_29  and  NZ_30 
REMARK   22  A    between atoms: NZ_30  and  CM1_33 
REMARK   23  A    between atoms: NZ_30  and  CM2_34 
REMARK   24  A    between atoms: NZ_30  and  CM3_35 
REMARK       I    between atoms: C_31  and  N_36 
REMARK   25  A    between atoms: N_36  and  CA_37 
REMARK   26  A    between atoms: CA_37  and  CB_40 
REMARK   27  A    between atoms: CA_37  and  C_38 
REMARK       I    between atoms: C_38  and  N_45 
REMARK   28  A    between atoms: CB_40  and  CG_41 
REMARK   29  A    between atoms: CG_41  and  CD_42 
REMARK       I    between atoms: CD_42  and  NE2_44 
REMARK   30  A    between atoms: N_45  and  CA_46 
REMARK   31  A    between atoms: CA_46  and  CB_49 
REMARK   32  A    between atoms: CA_46  and  C_47 
REMARK       I    between atoms: C_47  and  N_52 
REMARK   33  A    between atoms: CB_49  and  CG2_51 
REMARK   34  A    between atoms: CB_49  and  OG1_50 
REMARK   35  A    between atoms: N_52  and  CA_53 
REMARK   36  A    between atoms: CA_53  and  CB_56 
REMARK   37  A    between atoms: CA_53  and  C_54 
REMARK   38  A    between atoms: C_54  and  O1_57 
ROOT
ATOM      1  CA  M3L d   1      33.114  14.459 -22.427  0.00  0.00     0.089 C 
ATOM      2  H29 M3L d   1      33.821  14.983 -21.766  0.00  0.00     0.087 H 
ENDROOT
BRANCH   1   3
ATOM      3  N   M3L d   1      31.940  15.291 -22.647  0.00  0.00    -0.346 N 
ATOM      4  C   THR d   1      31.780  16.463 -22.047  0.00  0.00     0.243 C 
ATOM      5  O   THR d   1      32.628  16.966 -21.298  0.00  0.00    -0.271 OA
ATOM      6  H28 M3L d   1      31.230  14.968 -23.272  0.00  0.00     0.163 HD
BRANCH   4   7
ATOM      7  CA  THR d   1      30.469  17.183 -22.345  0.00  0.00     0.113 C 
ATOM      8  H22 THR d   1      29.689  16.445 -22.585  0.00  0.00     0.091 H 
BRANCH   7   9
ATOM      9  N   THR d   1      30.089  17.905 -21.137  0.00  0.00    -0.344 N 
ATOM     10  C   ARG d   1      28.891  17.768 -20.582  0.00  0.00     0.241 C 
ATOM     11  O   ARG d   1      28.005  17.055 -21.062  0.00  0.00    -0.271 OA
ATOM     12  H21 THR d   1      30.751  18.523 -20.713  0.00  0.00     0.163 HD
BRANCH  10  13
ATOM     13  CA  ARG d   1      28.654  18.559 -19.292  0.00  0.00     0.089 C 
ATOM     14  H9  ARG d   1      29.515  18.374 -18.634  0.00  0.00     0.087 H 
BRANCH  13  15
ATOM     15  N   ARG d   1      28.549  20.006 -19.468  0.00  0.00    -0.346 N 
ATOM     16  C   ALA d   1      27.958  20.547 -20.529  0.00  0.00     0.248 C 
ATOM     17  O   ALA d   1      27.488  19.879 -21.449  0.00  0.00    -0.271 OA
ATOM     18  H8  ARG d   1      28.934  20.608 -18.768  0.00  0.00     0.163 HD
BRANCH  16  19
ATOM     19  CA  ALA d   1      27.903  22.070 -20.566  0.00  0.00     0.172 C 
ATOM     20  H4  ALA d   1      26.947  22.376 -21.016  0.00  0.00     0.098 H 
BRANCH  19  21
ATOM     21  N   ALA d   1      27.983  22.639 -19.180  0.00  0.00    -0.067 N 
ATOM     22  H1  ALA d   1      27.945  23.645 -19.227  0.00  0.00     0.275 HD
ATOM     23  H2  ALA d   1      28.849  22.355 -18.750  0.00  0.00     0.275 HD
ATOM     24  H3  ALA d   1      27.208  22.299 -18.632  0.00  0.00     0.275 HD
ENDBRANCH  19  21
BRANCH  19  25
ATOM     25  CB  ALA d   1      29.042  22.612 -21.422  0.00  0.00    -0.042 C 
ATOM     26  H5  ALA d   1      28.973  22.188 -22.435  0.00  0.00     0.030 H 
ATOM     27  H6  ALA d   1      30.005  22.331 -20.972  0.00  0.00     0.030 H 
ATOM     28  H7  ALA d   1      28.970  23.708 -21.477  0.00  0.00     0.030 H 
ENDBRANCH  19  25
ENDBRANCH  16  19
ENDBRANCH  13  15
BRANCH  13  29
ATOM     29  CB  ARG d   1      27.397  18.031 -18.597  0.00  0.00    -0.036 C 
ATOM     30  H10 ARG d   1      27.427  16.932 -18.616  0.00  0.00     0.036 H 
ATOM     31  H11 ARG d   1      26.518  18.383 -19.157  0.00  0.00     0.036 H 
BRANCH  29  32
ATOM     32  CG  ARG d   1      27.254  18.479 -17.156  0.00  0.00    -0.048 C 
ATOM     33  H12 ARG d   1      27.836  19.401 -17.008  0.00  0.00     0.035 H 
ATOM     34  H13 ARG d   1      27.643  17.690 -16.495  0.00  0.00     0.035 H 
BRANCH  32  35
ATOM     35  CD  ARG d   1      25.804  18.749 -16.802  0.00  0.00     0.009 C 
ATOM     36  H14 ARG d   1      25.192  17.897 -17.133  0.00  0.00     0.064 H 
ATOM     37  H15 ARG d   1      25.474  19.661 -17.322  0.00  0.00     0.064 H 
BRANCH  35  38
ATOM     38  NE  ARG d   1      25.621  18.932 -15.369  0.00  0.00    -0.227 N 
ATOM     39  CZ  ARG d   1      24.556  19.505 -14.818  0.00  0.00     0.665 C 
ATOM     40  NH2 ARG d   1      24.472  19.618 -13.498  0.00  0.00    -0.235 N 
ATOM     41  NH1 ARG d   1      23.570  19.960 -15.581  0.00  0.00    -0.235 N 
ATOM     42  H19 ARG d   1      25.235  19.267 -12.902  0.00  0.00     0.174 HD
ATOM     43  H20 ARG d   1      23.644  20.057 -13.070  0.00  0.00     0.174 HD
ATOM     44  H17 ARG d   1      22.747  20.403 -15.149  0.00  0.00     0.174 HD
ATOM     45  H18 ARG d   1      23.628  19.870 -16.605  0.00  0.00     0.174 HD
ATOM     46  H16 ARG d   1      26.365  18.596 -14.742  0.00  0.00     0.177 HD
ENDBRANCH  35  38
ENDBRANCH  32  35
ENDBRANCH  29  32
ENDBRANCH  13  29
ENDBRANCH  10  13
ENDBRANCH   7   9
BRANCH   7  47
ATOM     47  CB  THR d   1      30.648  18.126 -23.561  0.00  0.00     0.060 C 
ATOM     48  H23 THR d   1      31.015  17.539 -24.416  0.00  0.00     0.086 H 
BRANCH  47  49
ATOM     49  CG2 THR d   1      29.311  18.774 -23.940  0.00  0.00    -0.050 C 
ATOM     50  H25 THR d   1      29.458  19.439 -24.804  0.00  0.00     0.031 H 
ATOM     51  H26 THR d   1      28.932  19.358 -23.088  0.00  0.00     0.031 H 
ATOM     52  H27 THR d   1      28.584  17.990 -24.200  0.00  0.00     0.031 H 
ENDBRANCH  47  49
BRANCH  47  53
ATOM     53  OG1 THR d   1      31.601  19.145 -23.250  0.00  0.00    -0.393 OA
ATOM     54  H24 THR d   1      32.429  18.742 -23.015  0.00  0.00     0.210 HD
ENDBRANCH  47  53
ENDBRANCH   7  47
ENDBRANCH   4   7
ENDBRANCH   1   3
BRANCH   1  55
ATOM     55  CB  M3L d   1      32.645  13.163 -21.756  0.00  0.00    -0.038 C 
ATOM     56  H30 M3L d   1      31.861  12.723 -22.390  0.00  0.00     0.036 H 
ATOM     57  H31 M3L d   1      32.219  13.428 -20.777  0.00  0.00     0.036 H 
BRANCH  55  58
ATOM     58  CG  M3L d   1      33.689  12.113 -21.529  0.00  0.00    -0.061 C 
ATOM     59  H32 M3L d   1      34.261  12.362 -20.623  0.00  0.00     0.033 H 
ATOM     60  H33 M3L d   1      34.367  12.084 -22.395  0.00  0.00     0.033 H 
BRANCH  58  61
ATOM     61  CD  M3L d   1      33.037  10.732 -21.352  0.00  0.00    -0.042 C 
ATOM     62  H34 M3L d   1      33.828   9.983 -21.200  0.00  0.00     0.035 H 
ATOM     63  H35 M3L d   1      32.471  10.488 -22.263  0.00  0.00     0.035 H 
BRANCH  61  64
ATOM     64  CE  M3L d   1      32.092  10.696 -20.162  0.00  0.00     0.084 C 
ATOM     65  H36 M3L d   1      31.125  11.105 -20.490  0.00  0.00     0.076 H 
ATOM     66  H37 M3L d   1      32.516  11.341 -19.378  0.00  0.00     0.076 H 
BRANCH  64  67
ATOM     67  NZ  M3L d   1      31.828   9.320 -19.540  0.00  0.00    -0.079 N 
BRANCH  67  68
ATOM     68  CM1 M3L d   1      31.228   8.441 -20.604  0.00  0.00     0.067 C 
ATOM     69  H38 M3L d   1      31.027   7.444 -20.186  0.00  0.00     0.068 H 
ATOM     70  H39 M3L d   1      31.931   8.351 -21.445  0.00  0.00     0.068 H 
ATOM     71  H40 M3L d   1      30.287   8.886 -20.959  0.00  0.00     0.068 H 
ENDBRANCH  67  68
BRANCH  67  72
ATOM     72  CM2 M3L d   1      33.032   8.605 -19.035  0.00  0.00     0.067 C 
ATOM     73  H41 M3L d   1      33.513   9.207 -18.250  0.00  0.00     0.068 H 
ATOM     74  H42 M3L d   1      33.740   8.449 -19.863  0.00  0.00     0.068 H 
ATOM     75  H43 M3L d   1      32.733   7.631 -18.619  0.00  0.00     0.068 H 
ENDBRANCH  67  72
BRANCH  67  76
ATOM     76  CM3 M3L d   1      30.876   9.565 -18.423  0.00  0.00     0.067 C 
ATOM     77  H44 M3L d   1      29.990  10.093 -18.805  0.00  0.00     0.068 H 
ATOM     78  H45 M3L d   1      31.365  10.179 -17.652  0.00  0.00     0.068 H 
ATOM     79  H46 M3L d   1      30.569   8.604 -17.985  0.00  0.00     0.068 H 
ENDBRANCH  67  76
ENDBRANCH  64  67
ENDBRANCH  61  64
ENDBRANCH  58  61
ENDBRANCH  55  58
ENDBRANCH   1  55
BRANCH   1  80
ATOM     80  C   M3L d   1      33.804  14.153 -23.755  0.00  0.00     0.241 C 
ATOM     81  O   M3L d   1      33.185  14.264 -24.811  0.00  0.00    -0.271 OA
ATOM     82  N   GLN d   1      35.079  13.775 -23.703  0.00  0.00    -0.346 N 
ATOM     83  H47 GLN d   1      35.538  13.723 -22.816  0.00  0.00     0.163 HD
BRANCH  82  84
ATOM     84  CA  GLN d   1      35.825  13.434 -24.915  0.00  0.00     0.090 C 
ATOM     85  H48 GLN d   1      35.272  12.634 -25.429  0.00  0.00     0.087 H 
BRANCH  84  86
ATOM     86  CB  GLN d   1      35.931  14.636 -25.868  0.00  0.00    -0.030 C 
ATOM     87  H49 GLN d   1      34.924  15.058 -25.999  0.00  0.00     0.037 H 
ATOM     88  H50 GLN d   1      36.305  14.272 -26.837  0.00  0.00     0.037 H 
BRANCH  86  89
ATOM     89  CG  GLN d   1      36.857  15.756 -25.392  0.00  0.00     0.011 C 
ATOM     90  H51 GLN d   1      37.187  16.335 -26.267  0.00  0.00     0.047 H 
ATOM     91  H52 GLN d   1      37.731  15.305 -24.900  0.00  0.00     0.047 H 
BRANCH  89  92
ATOM     92  CD  GLN d   1      36.180  16.699 -24.412  0.00  0.00     0.215 C 
ATOM     93  NE2 GLN d   1      36.808  16.919 -23.259  0.00  0.00    -0.370 N 
ATOM     94  H53 GLN d   1      36.405  17.532 -22.579  0.00  0.00     0.159 HD
ATOM     95  H54 GLN d   1      37.683  16.472 -23.073  0.00  0.00     0.159 HD
ATOM     96  OE1 GLN d   1      35.106  17.229 -24.694  0.00  0.00    -0.274 OA
ENDBRANCH  89  92
ENDBRANCH  86  89
ENDBRANCH  84  86
BRANCH  84  97
ATOM     97  C   GLN d   1      37.229  12.920 -24.616  0.00  0.00     0.241 C 
ATOM     98  O   GLN d   1      37.776  13.140 -23.529  0.00  0.00    -0.271 OA
ATOM     99  N   THR d   1      37.805  12.240 -25.602  0.00  0.00    -0.344 N 
ATOM    100  H55 THR d   1      37.301  12.113 -26.456  0.00  0.00     0.163 HD
BRANCH  99 101
ATOM    101  CA  THR d   1      39.140  11.674 -25.486  0.00  0.00     0.113 C 
ATOM    102  H56 THR d   1      39.489  11.766 -24.447  0.00  0.00     0.091 H 
BRANCH 101 103
ATOM    103  CB  THR d   1      39.182  10.191 -25.920  0.00  0.00     0.060 C 
ATOM    104  H57 THR d   1      38.931  10.124 -26.989  0.00  0.00     0.086 H 
BRANCH 103 105
ATOM    105  CG2 THR d   1      40.575   9.619 -25.698  0.00  0.00    -0.050 C 
ATOM    106  H59 THR d   1      40.592   8.564 -26.010  0.00  0.00     0.031 H 
ATOM    107  H60 THR d   1      40.835   9.690 -24.631  0.00  0.00     0.031 H 
ATOM    108  H61 THR d   1      41.304  10.189 -26.292  0.00  0.00     0.031 H 
ENDBRANCH 103 105
BRANCH 103 109
ATOM    109  OG1 THR d   1      38.231   9.427 -25.164  0.00  0.00    -0.393 OA
ATOM    110  H58 THR d   1      37.361   9.782 -25.301  0.00  0.00     0.210 HD
ENDBRANCH 103 109
ENDBRANCH 101 103
BRANCH 101 111
ATOM    111  C   THR d   1      40.053  12.437 -26.421  0.00  0.00     0.243 C 
ATOM    112  O   THR d   1      40.093  12.161 -27.616  0.00  0.00    -0.271 OA
ATOM    113  N   ALA d   1      40.780  13.404 -25.884  0.00  0.00    -0.345 N 
ATOM    114  H62 ALA d   1      40.701  13.604 -24.907  0.00  0.00     0.163 HD
BRANCH 113 115
ATOM    115  CA  ALA d   1      41.693  14.176 -26.710  0.00  0.00     0.090 C 
ATOM    116  H63 ALA d   1      41.653  13.812 -27.747  0.00  0.00     0.088 H 
BRANCH 115 117
ATOM    117  CB  ALA d   1      41.302  15.661 -26.682  0.00  0.00    -0.048 C 
ATOM    118  H64 ALA d   1      41.999  16.235 -27.310  0.00  0.00     0.030 H 
ATOM    119  H65 ALA d   1      41.348  16.033 -25.648  0.00  0.00     0.030 H 
ATOM    120  H66 ALA d   1      40.279  15.778 -27.068  0.00  0.00     0.030 H 
ENDBRANCH 115 117
BRANCH 115 121
ATOM    121  C   ALA d   1      43.096  13.983 -26.155  0.00  0.00     0.163 C 
ATOM    122  O   ALA d   1      43.880  13.217 -26.771  0.00  0.00    -0.648 OA
BRANCH 121 123
ATOM    123  O1  ALA d   1      43.483  14.608 -25.047  0.00  0.00    -0.775 OA
ATOM    124  H67 ALA d   1      43.728  13.966 -24.391  0.00  0.00     0.167 HD
ENDBRANCH 121 123
ENDBRANCH 115 121
ENDBRANCH 113 115
ENDBRANCH 101 111
ENDBRANCH  99 101
ENDBRANCH  84  97
ENDBRANCH  82  84
ENDBRANCH   1  80
TORSDOF 38
