REMARK  4 active torsions:
REMARK  status: ('A' for Active; 'I' for Inactive)
REMARK    1  A    between atoms: C18_2  and  C4_4 
REMARK    2  A    between atoms: N5_5  and  C6_6 
REMARK    3  A    between atoms: C3_13  and  C19_14 
REMARK    4  A    between atoms: C2_17  and  C12_18 
ROOT
ATOM      1  C4   VI d   1      11.785  29.423  33.503  0.00  0.00     0.154 A 
ATOM      2  N5   VI d   1      10.986  28.466  33.028  0.00  0.00    -0.226 N 
ATOM      3  N1   VI d   1      10.978  28.308  31.647  0.00  0.00    -0.165 NA
ATOM      4  C3   VI d   1      12.489  29.898  32.289  0.00  0.00     0.107 A 
ATOM      5  C2   VI d   1      11.895  29.146  31.138  0.00  0.00     0.107 A 
ENDROOT
BRANCH   2   6
ATOM      6  C6   VI d   1      10.067  27.801  33.741  0.00  0.00     0.059 A 
ATOM      7  C11  VI d   1       9.065  28.585  34.369  0.00  0.00    -0.055 A 
ATOM      8  C10  VI d   1       8.016  28.085  35.121  0.00  0.00    -0.081 A 
ATOM      9  H1   VI d   1       9.126  29.661  34.251  0.00  0.00     0.087 H 
ATOM     10  C9   VI d   1       7.897  26.700  35.207  0.00  0.00    -0.083 A 
ATOM     11  H2   VI d   1       7.316  28.744  35.622  0.00  0.00     0.083 H 
ATOM     12  C8   VI d   1       8.833  25.865  34.568  0.00  0.00    -0.081 A 
ATOM     13  H3   VI d   1       7.080  26.263  35.769  0.00  0.00     0.083 H 
ATOM     14  C7   VI d   1       9.908  26.403  33.835  0.00  0.00    -0.055 A 
ATOM     15  H4   VI d   1       8.724  24.789  34.642  0.00  0.00     0.083 H 
ATOM     16  H5   VI d   1      10.613  25.743  33.343  0.00  0.00     0.087 H 
ENDBRANCH   2   6
BRANCH   1  17
ATOM     17  C18  VI d   1      12.064  29.883  34.882  0.00  0.00     0.230 C 
ATOM     18  O23  VI d   1      12.478  31.051  35.111  0.00  0.00    -0.643 OA
ATOM     19  O22  VI d   1      11.944  29.027  35.779  0.00  0.00    -0.643 OA
ENDBRANCH   1  17
BRANCH   4  20
ATOM     20  C19  VI d   1      13.475  31.002  32.229  0.00  0.00     0.214 C 
ATOM     21  O21  VI d   1      13.021  32.184  31.938  0.00  0.00    -0.644 OA
ATOM     22  O20  VI d   1      14.654  30.814  32.500  0.00  0.00    -0.644 OA
ENDBRANCH   4  20
BRANCH   5  23
ATOM     23  C12  VI d   1      12.169  29.254  29.687  0.00  0.00    -0.004 A 
ATOM     24  C17  VI d   1      11.288  28.576  28.826  0.00  0.00    -0.071 A 
ATOM     25  C16  VI d   1      11.474  28.666  27.441  0.00  0.00    -0.082 A 
ATOM     26  H6   VI d   1      10.472  27.989  29.231  0.00  0.00     0.084 H 
ATOM     27  C15  VI d   1      12.513  29.440  26.941  0.00  0.00    -0.083 A 
ATOM     28  H7   VI d   1      10.813  28.136  26.765  0.00  0.00     0.083 H 
ATOM     29  C14  VI d   1      13.388  30.114  27.806  0.00  0.00    -0.082 A 
ATOM     30  H8   VI d   1      12.650  29.524  25.869  0.00  0.00     0.083 H 
ATOM     31  C13  VI d   1      13.209  30.024  29.185  0.00  0.00    -0.071 A 
ATOM     32  H9   VI d   1      14.203  30.704  27.402  0.00  0.00     0.083 H 
ATOM     33  H10  VI d   1      13.875  30.550  29.859  0.00  0.00     0.084 H 
ENDBRANCH   5  23
TORSDOF 4
