REMARK  4 active torsions:
REMARK  status: ('A' for Active; 'I' for Inactive)
REMARK    1  A    between atoms: C12_6  and  C10_7 
REMARK    2  A    between atoms: C9_9  and  C18_10 
REMARK    3  A    between atoms: C8_13  and  C19_14 
REMARK    4  A    between atoms: C7_17  and  C1_18 
ROOT
ATOM      1  C10 VII d   1      11.755  29.040  31.055  0.00  0.00     0.104 A 
ATOM      2  O11 VII d   1      10.784  28.238  31.579  0.00  0.00    -0.307 OA
ATOM      3  C9  VII d   1      12.319  29.796  32.203  0.00  0.00     0.095 A 
ATOM      4  C8  VII d   1      11.553  29.371  33.394  0.00  0.00     0.095 A 
ATOM      5  C7  VII d   1      10.622  28.333  32.925  0.00  0.00     0.104 A 
ENDROOT
BRANCH   1   6
ATOM      6  C12 VII d   1      12.046  29.076  29.606  0.00  0.00    -0.001 A 
ATOM      7  C17 VII d   1      11.240  28.276  28.778  0.00  0.00    -0.070 A 
ATOM      8  C16 VII d   1      11.436  28.279  27.401  0.00  0.00    -0.082 A 
ATOM      9  H1  VII d   1      10.465  27.656  29.213  0.00  0.00     0.084 H 
ATOM     10  C15 VII d   1      12.416  29.090  26.858  0.00  0.00    -0.083 A 
ATOM     11  H2  VII d   1      10.827  27.652  26.760  0.00  0.00     0.083 H 
ATOM     12  C14 VII d   1      13.217  29.890  27.678  0.00  0.00    -0.082 A 
ATOM     13  H3  VII d   1      12.565  29.105  25.784  0.00  0.00     0.083 H 
ATOM     14  C13 VII d   1      13.031  29.887  29.055  0.00  0.00    -0.070 A 
ATOM     15  H4  VII d   1      13.986  30.515  27.238  0.00  0.00     0.083 H 
ATOM     16  H5  VII d   1      13.647  30.510  29.692  0.00  0.00     0.084 H 
ENDBRANCH   1   6
BRANCH   3  17
ATOM     17  C18 VII d   1      13.338  30.871  32.143  0.00  0.00     0.213 C 
ATOM     18  O22 VII d   1      14.528  30.664  32.413  0.00  0.00    -0.644 OA
ATOM     19  O23 VII d   1      12.902  32.013  31.801  0.00  0.00    -0.644 OA
ENDBRANCH   3  17
BRANCH   5  20
ATOM     20  C1  VII d   1       9.578  27.535  33.601  0.00  0.00    -0.001 A 
ATOM     21  C6  VII d   1       8.743  28.163  34.527  0.00  0.00    -0.070 A 
ATOM     22  C5  VII d   1       7.725  27.419  35.123  0.00  0.00    -0.082 A 
ATOM     23  H6  VII d   1       8.883  29.208  34.778  0.00  0.00     0.084 H 
ATOM     24  C4  VII d   1       7.543  26.092  34.742  0.00  0.00    -0.083 A 
ATOM     25  H7  VII d   1       7.084  27.868  35.873  0.00  0.00     0.083 H 
ATOM     26  C3  VII d   1       8.365  25.472  33.798  0.00  0.00    -0.082 A 
ATOM     27  H8  VII d   1       6.738  25.522  35.192  0.00  0.00     0.083 H 
ATOM     28  C2  VII d   1       9.386  26.210  33.197  0.00  0.00    -0.070 A 
ATOM     29  H9  VII d   1       8.212  24.431  33.536  0.00  0.00     0.083 H 
ATOM     30  H10 VII d   1      10.016  25.766  32.434  0.00  0.00     0.084 H 
ENDBRANCH   5  20
BRANCH   4  31
ATOM     31  C19 VII d   1      11.776  29.855  34.775  0.00  0.00     0.213 C 
ATOM     32  O20 VII d   1      11.590  29.090  35.756  0.00  0.00    -0.644 OA
ATOM     33  O21 VII d   1      12.176  31.029  34.889  0.00  0.00    -0.644 OA
ENDBRANCH   4  31
TORSDOF 4
