REMARK  10 active torsions:
REMARK  status: ('A' for Active; 'I' for Inactive)
REMARK    1  A    between atoms: N1_1  and  C2_2 
REMARK    2  A    between atoms: C3_3  and  C14_14 
REMARK    3  A    between atoms: N6_6  and  C7_7 
REMARK    4  A    between atoms: C14_14  and  C16_16 
REMARK    5  A    between atoms: C20_20  and  O21_21 
REMARK    6  A    between atoms: O21_21  and  C22_22 
REMARK    7  A    between atoms: C22_22  and  C23_23 
REMARK    8  A    between atoms: C23_23  and  O25_24 
REMARK    9  A    between atoms: C23_23  and  C26_25 
REMARK   10  A    between atoms: C26_25  and  O27_26 
ROOT
ATOM      1  C16 PQB d   1      24.339   9.369  31.176  0.00  0.00     0.018 A 
ATOM      2  C17 PQB d   1      25.049  10.351  30.484  0.00  0.00    -0.069 A 
ATOM      3  C18 PQB d   1      26.439  10.406  30.583  0.00  0.00    -0.079 A 
ATOM      4  C19 PQB d   1      27.116   9.472  31.363  0.00  0.00    -0.051 A 
ATOM      5  C20 PQB d   1      26.412   8.481  32.043  0.00  0.00     0.069 A 
ATOM      6  C28 PQB d   1      25.022   8.431  31.945  0.00  0.00    -0.037 A 
ATOM      7  H8  PQB d   1      24.520  11.071  29.870  0.00  0.00     0.085 H 
ATOM      8  H9  PQB d   1      26.991  11.174  30.054  0.00  0.00     0.083 H 
ATOM      9  H10 PQB d   1      28.196   9.516  31.441  0.00  0.00     0.087 H 
ATOM     10  H18 PQB d   1      24.471   7.659  32.470  0.00  0.00     0.089 H 
ENDROOT
BRANCH   1  11
ATOM     11  C14 PQB d   1      22.839   9.283  31.076  0.00  0.00     0.197 C 
ATOM     12  O15 PQB d   1      22.342   8.187  30.872  0.00  0.00    -0.286 OA
BRANCH  11  13
ATOM     13  C3  PQB d   1      21.979  10.498  31.218  0.00  0.00     0.079 A 
ATOM     14  C2  PQB d   1      20.599  10.449  31.127  0.00  0.00     0.139 A 
ATOM     15  N6  PQB d   1      20.101  11.667  31.289  0.00  0.00    -0.217 N 
ATOM     16  N5  PQB d   1      21.140  12.581  31.510  0.00  0.00    -0.177 NA
ATOM     17  C4  PQB d   1      22.296  11.842  31.463  0.00  0.00     0.040 A 
ATOM     18  H3  PQB d   1      23.302  12.238  31.595  0.00  0.00     0.119 H 
BRANCH  14  19
ATOM     19  N1  PQB d   1      19.894   9.309  30.890  0.00  0.00    -0.383 N 
ATOM     20  H1  PQB d   1      20.388   8.412  30.780  0.00  0.00     0.157 HD
ATOM     21  H2  PQB d   1      18.867   9.344  30.821  0.00  0.00     0.157 HD
ENDBRANCH  14  19
BRANCH  15  22
ATOM     22  C7  PQB d   1      18.805  12.018  31.272  0.00  0.00     0.060 A 
ATOM     23  C8  PQB d   1      17.881  11.512  32.193  0.00  0.00    -0.052 A 
ATOM     24  C9  PQB d   1      16.534  11.878  32.197  0.00  0.00    -0.043 A 
ATOM     25  H4  PQB d   1      18.227  10.804  32.937  0.00  0.00     0.087 H 
ATOM     26  C10 PQB d   1      16.059  12.787  31.258  0.00  0.00     0.116 A 
ATOM     27  H5  PQB d   1      15.859  11.454  32.931  0.00  0.00     0.088 H 
ATOM     28  F11 PQB d   1      14.757  13.147  31.245  0.00  0.00    -0.206 F 
ATOM     29  C12 PQB d   1      16.949  13.308  30.329  0.00  0.00    -0.043 A 
ATOM     30  C13 PQB d   1      18.292  12.933  30.345  0.00  0.00    -0.052 A 
ATOM     31  H6  PQB d   1      16.597  14.013  29.584  0.00  0.00     0.088 H 
ATOM     32  H7  PQB d   1      18.964  13.366  29.613  0.00  0.00     0.087 H 
ENDBRANCH  15  22
ENDBRANCH  11  13
ENDBRANCH   1  11
BRANCH   5  33
ATOM     33  O21 PQB d   1      27.085   7.559  32.810  0.00  0.00    -0.349 OA
BRANCH  33  34
ATOM     34  C22 PQB d   1      26.558   7.142  34.075  0.00  0.00     0.052 C 
ATOM     35  H11 PQB d   1      25.722   6.447  33.911  0.00  0.00     0.079 H 
ATOM     36  H12 PQB d   1      26.200   8.022  34.629  0.00  0.00     0.079 H 
BRANCH  34  37
ATOM     37  C23 PQB d   1      27.644   6.444  34.883  0.00  0.00     0.076 C 
ATOM     38  H13 PQB d   1      28.258   5.828  34.210  0.00  0.00     0.089 H 
BRANCH  37  39
ATOM     39  O25 PQB d   1      28.477   7.426  35.509  0.00  0.00    -0.391 OA
ATOM     40  H14 PQB d   1      29.154   6.990  36.013  0.00  0.00     0.210 HD
ENDBRANCH  37  39
BRANCH  37  41
ATOM     41  C26 PQB d   1      27.000   5.545  35.931  0.00  0.00     0.042 C 
ATOM     42  H15 PQB d   1      26.093   6.028  36.323  0.00  0.00     0.078 H 
ATOM     43  H16 PQB d   1      27.709   5.373  36.755  0.00  0.00     0.078 H 
BRANCH  41  44
ATOM     44  O27 PQB d   1      26.654   4.292  35.326  0.00  0.00    -0.398 OA
ATOM     45  H17 PQB d   1      26.252   3.728  35.976  0.00  0.00     0.209 HD
ENDBRANCH  41  44
ENDBRANCH  37  41
ENDBRANCH  34  37
ENDBRANCH  33  34
ENDBRANCH   5  33
TORSDOF 10
