REMARK  13 active torsions:
REMARK  status: ('A' for Active; 'I' for Inactive)
REMARK    1  A    between atoms: C9_2  and  C5_5 
REMARK    2  A    between atoms: C7_10  and  C11_11 
REMARK    3  A    between atoms: C11_11  and  N24_12 
REMARK    4  A    between atoms: C11_11  and  C23_13 
REMARK    5  A    between atoms: C23_13  and  O27_14 
REMARK    6  A    between atoms: C23_13  and  C25_15 
REMARK       I    between atoms: C25_15  and  N32_17 
REMARK    7  A    between atoms: N32_17  and  C33_18 
REMARK    8  A    between atoms: C33_18  and  C37_19 
REMARK    9  A    between atoms: C33_18  and  C36_20 
REMARK       I    between atoms: C36_20  and  N42_22 
REMARK   10  A    between atoms: N42_22  and  C43_23 
REMARK   11  A    between atoms: C43_23  and  C47_24 
REMARK   12  A    between atoms: C47_24  and  O61_26 
REMARK   13  A    between atoms: O61_26  and  C62_27 
ROOT
ATOM      1  C23 U11 d   1      10.850   0.048  15.409  0.00  0.00     0.143 C 
ATOM      2  H9  U11 d   1      11.095  -0.667  14.610  0.00  0.00     0.101 H 
ENDROOT
BRANCH   1   3
ATOM      3  C11 U11 d   1      11.708   1.313  15.286  0.00  0.00     0.158 C 
ATOM      4  H5  U11 d   1      11.579   1.860  16.232  0.00  0.00     0.096 H 
BRANCH   3   5
ATOM      5  C7  U11 d   1      13.168   0.960  15.209  0.00  0.00    -0.025 A 
ATOM      6  C4  U11 d   1      13.729   0.501  14.014  0.00  0.00    -0.074 A 
ATOM      7  C2  U11 d   1      15.086   0.157  13.951  0.00  0.00    -0.068 A 
ATOM      8  H2  U11 d   1      13.110   0.410  13.129  0.00  0.00     0.084 H 
ATOM      9  C5  U11 d   1      15.893   0.268  15.075  0.00  0.00     0.047 A 
ATOM     10  H1  U11 d   1      15.508  -0.198  13.018  0.00  0.00     0.084 H 
ATOM     11  C6  U11 d   1      15.349   0.720  16.269  0.00  0.00    -0.068 A 
ATOM     12  C3  U11 d   1      13.998   1.045  16.333  0.00  0.00    -0.074 A 
ATOM     13  H3  U11 d   1      15.975   0.819  17.149  0.00  0.00     0.084 H 
ATOM     14  H4  U11 d   1      13.577   1.372  17.277  0.00  0.00     0.084 H 
BRANCH   9  15
ATOM     15  C9  U11 d   1      17.368  -0.052  15.003  0.00  0.00     0.417 C 
ATOM     16  F29 U11 d   1      17.957   1.067  14.568  0.00  0.00    -0.166 F 
ATOM     17  F30 U11 d   1      17.825  -0.302  16.216  0.00  0.00    -0.166 F 
ATOM     18  F31 U11 d   1      17.704  -1.066  14.204  0.00  0.00    -0.166 F 
ENDBRANCH   9  15
ENDBRANCH   3   5
BRANCH   3  19
ATOM     19  N24 U11 d   1      11.261   2.234  14.243  0.00  0.00    -0.068 N 
ATOM     20  H6  U11 d   1      11.869   3.038  14.221  0.00  0.00     0.275 HD
ATOM     21  H7  U11 d   1      10.318   2.532  14.439  0.00  0.00     0.275 HD
ATOM     22  H8  U11 d   1      11.287   1.768  13.350  0.00  0.00     0.275 HD
ENDBRANCH   3  19
ENDBRANCH   1   3
BRANCH   1  23
ATOM     23  O27 U11 d   1       9.454   0.371  15.378  0.00  0.00    -0.384 OA
ATOM     24  H10 U11 d   1       8.944  -0.427  15.456  0.00  0.00     0.210 HD
ENDBRANCH   1  23
BRANCH   1  25
ATOM     25  C25 U11 d   1      11.152  -0.524  16.768  0.00  0.00     0.249 C 
ATOM     26  O31 U11 d   1      10.675   0.020  17.767  0.00  0.00    -0.271 OA
ATOM     27  N32 U11 d   1      11.950  -1.585  16.786  0.00  0.00    -0.346 N 
ATOM     28  H11 U11 d   1      12.268  -1.974  15.921  0.00  0.00     0.163 HD
BRANCH  27  29
ATOM     29  C33 U11 d   1      12.369  -2.189  18.030  0.00  0.00     0.086 C 
ATOM     30  H12 U11 d   1      12.579  -1.409  18.776  0.00  0.00     0.086 H 
BRANCH  29  31
ATOM     31  C37 U11 d   1      11.275  -3.107  18.530  0.00  0.00    -0.049 C 
ATOM     32  H13 U11 d   1      11.589  -3.570  19.477  0.00  0.00     0.030 H 
ATOM     33  H14 U11 d   1      11.086  -3.892  17.784  0.00  0.00     0.030 H 
ATOM     34  H15 U11 d   1      10.355  -2.526  18.693  0.00  0.00     0.030 H 
ENDBRANCH  29  31
BRANCH  29  35
ATOM     35  C36 U11 d   1      13.594  -3.005  17.780  0.00  0.00     0.240 C 
ATOM     36  O41 U11 d   1      13.795  -3.591  16.735  0.00  0.00    -0.271 OA
ATOM     37  N42 U11 d   1      14.479  -3.093  18.775  0.00  0.00    -0.350 N 
ATOM     38  H16 U11 d   1      14.273  -2.574  19.604  0.00  0.00     0.163 HD
BRANCH  37  39
ATOM     39  C43 U11 d   1      15.710  -3.863  18.781  0.00  0.00     0.075 C 
ATOM     40  H17 U11 d   1      16.440  -3.438  19.485  0.00  0.00     0.079 H 
ATOM     41  H18 U11 d   1      16.154  -3.908  17.776  0.00  0.00     0.079 H 
BRANCH  39  42
ATOM     42  C47 U11 d   1      15.247  -5.231  19.235  0.00  0.00     0.276 C 
ATOM     43  O60 U11 d   1      14.125  -5.408  19.705  0.00  0.00    -0.263 OA
BRANCH  42  44
ATOM     44  O61 U11 d   1      16.125  -6.382  19.111  0.00  0.00    -0.325 OA
BRANCH  44  45
ATOM     45  C62 U11 d   1      16.062  -7.427  20.089  0.00  0.00     0.013 C 
ATOM     46  H19 U11 d   1      16.792  -8.210  19.836  0.00  0.00     0.067 H 
ATOM     47  H20 U11 d   1      15.050  -7.859  20.100  0.00  0.00     0.067 H 
ATOM     48  H21 U11 d   1      16.295  -7.015  21.082  0.00  0.00     0.067 H 
ENDBRANCH  44  45
ENDBRANCH  42  44
ENDBRANCH  39  42
ENDBRANCH  37  39
ENDBRANCH  29  35
ENDBRANCH  27  29
ENDBRANCH   1  25
TORSDOF 13
