REMARK  4 active torsions:
REMARK  status: ('A' for Active; 'I' for Inactive)
REMARK    1  A    between atoms: C10_2  and  C8_5 
REMARK    2  A    between atoms: C4_10  and  N6_11 
REMARK    3  A    between atoms: N3_12  and  C1_13 
REMARK    4  A    between atoms: C3_14  and  N5_15 
ROOT
ATOM      1  C8  U12 d   1      -6.614  -1.359   8.908  0.00  0.00     0.050 A 
ATOM      2  C5  U12 d   1      -7.420  -0.651   9.795  0.00  0.00    -0.068 A 
ATOM      3  C9  U12 d   1      -6.876   0.333  10.613  0.00  0.00    -0.080 A 
ATOM      4  C6  U12 d   1      -5.519   0.612  10.546  0.00  0.00    -0.053 A 
ATOM      5  C7  U12 d   1      -5.248  -1.078   8.842  0.00  0.00    -0.039 A 
ATOM      6  C4  U12 d   1      -4.706  -0.093   9.666  0.00  0.00     0.080 A 
ATOM      7  H1  U12 d   1      -8.481  -0.869   9.848  0.00  0.00     0.084 H 
ATOM      8  H2  U12 d   1      -7.510   0.880  11.301  0.00  0.00     0.083 H 
ATOM      9  H3  U12 d   1      -5.092   1.380  11.180  0.00  0.00     0.087 H 
ATOM     10  H4  U12 d   1      -4.612  -1.623   8.154  0.00  0.00     0.088 H 
ENDROOT
BRANCH   6  11
ATOM     11  N6  U12 d   1      -3.388   0.234   9.656  0.00  0.00    -0.150 NA
ATOM     12  N3  U12 d   1      -2.486  -0.460   9.155  0.00  0.00    -0.142 NA
BRANCH  12  13
ATOM     13  C1  U12 d   1      -1.209   0.033   9.239  0.00  0.00     0.170 A 
ATOM     14  C3  U12 d   1      -0.697   0.903  10.180  0.00  0.00     0.176 A 
ATOM     15  N4  U12 d   1       0.607   1.175   9.922  0.00  0.00    -0.153 NA
ATOM     16  N1  U12 d   1       1.038   0.464   8.789  0.00  0.00    -0.259 N 
ATOM     17  C2  U12 d   1      -0.069  -0.211   8.339  0.00  0.00     0.150 A 
ATOM     18  H7  U12 d   1       1.984   0.452   8.382  0.00  0.00     0.191 HD
ATOM     19  N2  U12 d   1      -0.139  -1.030   7.250  0.00  0.00    -0.382 N 
ATOM     20  H8  U12 d   1      -1.029  -1.487   7.006  0.00  0.00     0.157 HD
ATOM     21  H9  U12 d   1       0.698  -1.191   6.672  0.00  0.00     0.157 HD
BRANCH  14  22
ATOM     22  N5  U12 d   1      -1.350   1.444  11.248  0.00  0.00    -0.381 N 
ATOM     23  H5  U12 d   1      -0.855   2.086  11.883  0.00  0.00     0.157 HD
ATOM     24  H6  U12 d   1      -2.339   1.211  11.419  0.00  0.00     0.157 HD
ENDBRANCH  14  22
ENDBRANCH  12  13
ENDBRANCH   6  11
BRANCH   1  25
ATOM     25  C10 U12 d   1      -7.251  -2.411   8.044  0.00  0.00     0.417 C 
ATOM     26  F3  U12 d   1      -6.407  -2.857   7.134  0.00  0.00    -0.166 F 
ATOM     27  F1  U12 d   1      -7.647  -3.424   8.794  0.00  0.00    -0.166 F 
ATOM     28  F2  U12 d   1      -8.301  -1.894   7.432  0.00  0.00    -0.166 F 
ENDBRANCH   1  25
TORSDOF 4
