REMARK  3 active torsions:
REMARK  status: ('A' for Active; 'I' for Inactive)
REMARK    1  A    between atoms: C5_5  and  N9_8 
REMARK    2  A    between atoms: N13_9  and  C14_10 
REMARK    3  A    between atoms: C19_11  and  N16_12 
ROOT
ATOM      1  N9  U13 d   1      -3.448  -0.200   9.446  0.00  0.00    -0.150 NA
ATOM      2  N13 U13 d   1      -2.485  -0.476   8.724  0.00  0.00    -0.142 NA
ENDROOT
BRANCH   2   3
ATOM      3  C14 U13 d   1      -1.209  -0.039   8.989  0.00  0.00     0.170 A 
ATOM      4  C19 U13 d   1      -0.666   0.802  10.064  0.00  0.00     0.176 A 
ATOM      5  N20 U13 d   1       0.670   0.986   9.893  0.00  0.00    -0.153 NA
ATOM      6  N17 U13 d   1       1.085   0.302   8.736  0.00  0.00    -0.259 N 
ATOM      7  C15 U13 d   1      -0.010  -0.293   8.192  0.00  0.00     0.150 A 
ATOM      8  H7  U13 d   1       2.046   0.260   8.367  0.00  0.00     0.191 HD
ATOM      9  N18 U13 d   1       0.001  -1.049   7.065  0.00  0.00    -0.382 N 
ATOM     10  H8  U13 d   1      -0.874  -1.466   6.716  0.00  0.00     0.157 HD
ATOM     11  H9  U13 d   1       0.884  -1.205   6.558  0.00  0.00     0.157 HD
BRANCH   4  12
ATOM     12  N16 U13 d   1      -1.342   1.348  11.130  0.00  0.00    -0.381 N 
ATOM     13  H5  U13 d   1      -0.838   1.924  11.819  0.00  0.00     0.157 HD
ATOM     14  H6  U13 d   1      -2.353   1.181  11.239  0.00  0.00     0.157 HD
ENDBRANCH   4  12
ENDBRANCH   2   3
BRANCH   1  15
ATOM     15  C5  U13 d   1      -4.683  -0.681   8.991  0.00  0.00     0.079 A 
ATOM     16  C2  U13 d   1      -4.790  -1.678   8.016  0.00  0.00    -0.051 A 
ATOM     17  C6  U13 d   1      -6.054  -2.067   7.569  0.00  0.00    -0.043 A 
ATOM     18  H2  U13 d   1      -3.899  -2.145   7.611  0.00  0.00     0.087 H 
ATOM     19  C3  U13 d   1      -7.188  -1.429   8.068  0.00  0.00     0.116 A 
ATOM     20  H1  U13 d   1      -6.153  -2.861   6.838  0.00  0.00     0.088 H 
ATOM     21  F7  U13 d   1      -8.427  -1.781   7.652  0.00  0.00    -0.206 F 
ATOM     22  C1  U13 d   1      -7.066  -0.417   9.012  0.00  0.00    -0.043 A 
ATOM     23  C4  U13 d   1      -5.813  -0.025   9.463  0.00  0.00    -0.051 A 
ATOM     24  H4  U13 d   1      -7.954   0.069   9.399  0.00  0.00     0.088 H 
ATOM     25  H3  U13 d   1      -5.717   0.785  10.177  0.00  0.00     0.087 H 
ENDBRANCH   1  15
TORSDOF 3
