REMARK  4 active torsions:
REMARK  status: ('A' for Active; 'I' for Inactive)
REMARK    1  A    between atoms: C7_2  and  C3_5 
REMARK    2  A    between atoms: C1_8  and  N1_11 
REMARK    3  A    between atoms: N2_12  and  C8_13 
REMARK    4  A    between atoms: C10_14  and  N5_15 
ROOT
ATOM      1  C3  U19 d   1      17.023  -0.069  16.396  0.00  0.00     0.078 A 
ATOM      2  C6  U19 d   1      18.273  -0.562  16.780  0.00  0.00    -0.066 A 
ATOM      3  C2  U19 d   1      18.382  -1.537  17.769  0.00  0.00    -0.082 A 
ATOM      4  C1  U19 d   1      15.885  -0.583  17.030  0.00  0.00     0.094 A 
ATOM      5  C4  U19 d   1      15.980  -1.569  18.028  0.00  0.00    -0.053 A 
ATOM      6  C5  U19 d   1      17.242  -2.043  18.385  0.00  0.00    -0.081 A 
ATOM      7  H1  U19 d   1      19.169  -0.181  16.302  0.00  0.00     0.084 H 
ATOM      8  H2  U19 d   1      19.360  -1.903  18.060  0.00  0.00     0.083 H 
ATOM      9  H3  U19 d   1      15.089  -1.954  18.511  0.00  0.00     0.087 H 
ATOM     10  H4  U19 d   1      17.335  -2.809  19.146  0.00  0.00     0.083 H 
ENDROOT
BRANCH   4  11
ATOM     11  N1  U19 d   1      14.657  -0.113  16.661  0.00  0.00    -0.149 NA
ATOM     12  N2  U19 d   1      13.666  -0.568  17.239  0.00  0.00    -0.142 NA
BRANCH  12  13
ATOM     13  C8  U19 d   1      12.393  -0.183  16.958  0.00  0.00     0.170 A 
ATOM     14  C10 U19 d   1      11.894   0.792  15.992  0.00  0.00     0.176 A 
ATOM     15  N6  U19 d   1      10.555   0.858  16.062  0.00  0.00    -0.153 NA
ATOM     16  N3  U19 d   1      10.081  -0.035  17.047  0.00  0.00    -0.259 N 
ATOM     17  C9  U19 d   1      11.166  -0.658  17.592  0.00  0.00     0.150 A 
ATOM     18  H7  U19 d   1       9.096  -0.188  17.307  0.00  0.00     0.191 HD
ATOM     19  N4  U19 d   1      11.176  -1.607  18.571  0.00  0.00    -0.382 N 
ATOM     20  H8  U19 d   1      12.070  -2.001  18.897  0.00  0.00     0.157 HD
ATOM     21  H9  U19 d   1      10.290  -1.930  18.985  0.00  0.00     0.157 HD
BRANCH  14  22
ATOM     22  N5  U19 d   1      12.679   1.515  15.147  0.00  0.00    -0.381 N 
ATOM     23  H5  U19 d   1      12.251   2.185  14.493  0.00  0.00     0.157 HD
ATOM     24  H6  U19 d   1      13.701   1.392  15.162  0.00  0.00     0.157 HD
ENDBRANCH  14  22
ENDBRANCH  12  13
ENDBRANCH   4  11
BRANCH   1  25
ATOM     25  C7  U19 d   1      16.877   1.015  15.327  0.00  0.00     0.419 C 
ATOM     26  F3  U19 d   1      16.330   0.629  14.189  0.00  0.00    -0.166 F 
ATOM     27  F1  U19 d   1      18.040   1.616  15.096  0.00  0.00    -0.166 F 
ATOM     28  F2  U19 d   1      16.097   1.965  15.821  0.00  0.00    -0.166 F 
ENDBRANCH   1  25
TORSDOF 4
