REMARK  6 active torsions:
REMARK  status: ('A' for Active; 'I' for Inactive)
REMARK    1  A    between atoms: C4_2  and  C9_4 
REMARK    2  A    between atoms: C5_9  and  N6_10 
REMARK    3  A    between atoms: N6_10  and  N5_11 
REMARK    4  A    between atoms: N5_11  and  C2_12 
REMARK    5  A    between atoms: C3_13  and  N4_14 
REMARK    6  A    between atoms: C1_16  and  N1_18 
ROOT
ATOM      1  N6  U14 d   1      -3.298   0.009   9.736  0.00  0.00    -0.150 NA
ENDROOT
BRANCH   1   2
ATOM      2  C5  U14 d   1      -4.644  -0.306   9.558  0.00  0.00     0.080 A 
ATOM      3  C7  U14 d   1      -5.535   0.455  10.311  0.00  0.00    -0.053 A 
ATOM      4  C10 U14 d   1      -6.903   0.276  10.191  0.00  0.00    -0.080 A 
ATOM      5  H3  U14 d   1      -5.152   1.198  11.001  0.00  0.00     0.087 H 
ATOM      6  C6  U14 d   1      -7.377  -0.673   9.298  0.00  0.00    -0.066 A 
ATOM      7  H2  U14 d   1      -7.591   0.867  10.785  0.00  0.00     0.083 H 
ATOM      8  C9  U14 d   1      -6.494  -1.430   8.535  0.00  0.00     0.043 A 
ATOM      9  H1  U14 d   1      -8.445  -0.826   9.194  0.00  0.00     0.085 H 
ATOM     10  C8  U14 d   1      -5.107  -1.249   8.643  0.00  0.00    -0.037 A 
ATOM     11  H4  U14 d   1      -4.418  -1.824   8.035  0.00  0.00     0.088 H 
BRANCH   8  12
ATOM     12  C4  U14 d   1      -7.066  -2.434   7.587  0.00  0.00     0.209 C 
ATOM     13  O2  U14 d   1      -6.278  -3.069   6.855  0.00  0.00    -0.644 OA
ATOM     14  O1  U14 d   1      -8.311  -2.590   7.544  0.00  0.00    -0.644 OA
ENDBRANCH   8  12
ENDBRANCH   1   2
BRANCH   1  15
ATOM     15  N5  U14 d   1      -2.399  -0.522   8.979  0.00  0.00    -0.142 NA
BRANCH  15  16
ATOM     16  C2  U14 d   1      -1.127  -0.061   9.174  0.00  0.00     0.170 A 
ATOM     17  C3  U14 d   1      -0.067  -0.266   8.312  0.00  0.00     0.150 A 
ATOM     18  N2  U14 d   1       1.024   0.387   8.754  0.00  0.00    -0.259 N 
ATOM     19  N3  U14 d   1       0.621   1.077   9.900  0.00  0.00    -0.153 NA
ATOM     20  H7  U14 d   1       1.964   0.380   8.333  0.00  0.00     0.191 HD
ATOM     21  C1  U14 d   1      -0.655   0.813  10.140  0.00  0.00     0.176 A 
BRANCH  17  22
ATOM     22  N4  U14 d   1      -0.066  -1.048   7.200  0.00  0.00    -0.382 N 
ATOM     23  H5  U14 d   1       0.786  -1.128   6.627  0.00  0.00     0.157 HD
ATOM     24  H6  U14 d   1      -0.918  -1.560   6.930  0.00  0.00     0.157 HD
ENDBRANCH  17  22
BRANCH  21  25
ATOM     25  N1  U14 d   1      -1.296   1.341  11.218  0.00  0.00    -0.381 N 
ATOM     26  H8  U14 d   1      -0.798   1.985  11.849  0.00  0.00     0.157 HD
ATOM     27  H9  U14 d   1      -2.279   1.097  11.403  0.00  0.00     0.157 HD
ENDBRANCH  21  25
ENDBRANCH  15  16
ENDBRANCH   1  15
TORSDOF 6
