REMARK  4 active torsions:
REMARK  status: ('A' for Active; 'I' for Inactive)
REMARK    1  A    between atoms: C1_7  and  P1_1 
REMARK    2  A    between atoms: N1_10  and  C1_7 
REMARK    3  A    between atoms: C2_8  and  C3_9 
REMARK    4  A    between atoms: C2_8  and  N1_10 
ROOT
ATOM      1  N1  GPJ d   1    -132.584  29.660 126.197  0.00  0.00    -0.053 N 
ATOM      2  H5  GPJ d   1    -132.205  29.272 125.347  0.00  0.00     0.278 HD
ATOM      3  H6  GPJ d   1    -131.906  30.277 126.616  0.00  0.00     0.278 HD
ENDROOT
BRANCH   1   4
ATOM      4  C1  GPJ d   1    -132.787  28.525 127.144  0.00  0.00     0.183 C 
ATOM      5  H1  GPJ d   1    -132.968  28.934 128.149  0.00  0.00     0.097 H 
ATOM      6  H2  GPJ d   1    -133.666  27.949 126.819  0.00  0.00     0.097 H 
BRANCH   4   7
ATOM      7  P1  GPJ d   1    -131.448  27.477 127.218  0.00  0.00     0.285 P 
ATOM      8  O1  GPJ d   1    -130.655  27.669 125.988  0.00  0.00    -0.638 OA
ATOM      9  O2  GPJ d   1    -132.124  26.108 127.285  0.00  0.00    -0.638 OA
ATOM     10  O3  GPJ d   1    -130.649  27.722 128.447  0.00  0.00    -0.638 OA
ENDBRANCH   4   7
ENDBRANCH   1   4
BRANCH   1  11
ATOM     11  C2  GPJ d   1    -133.736  30.483 125.817  0.00  0.00     0.161 C 
ATOM     12  H3  GPJ d   1    -133.349  31.272 125.155  0.00  0.00     0.092 H 
ATOM     13  H4  GPJ d   1    -134.412  29.827 125.249  0.00  0.00     0.092 H 
BRANCH  11  14
ATOM     14  C3  GPJ d   1    -134.586  31.176 126.852  0.00  0.00     0.199 C 
ATOM     15  O4  GPJ d   1    -134.311  31.120 128.089  0.00  0.00    -0.647 OA
ATOM     16  O5  GPJ d   1    -135.544  31.765 126.387  0.00  0.00    -0.647 OA
ENDBRANCH  11  14
ENDBRANCH   1  11
TORSDOF 4
