REMARK  20 active torsions:
REMARK  status: ('A' for Active; 'I' for Inactive)
REMARK    1  A    between atoms: C10_2  and  C9_3 
REMARK       I    between atoms: C10_2  and  N2_11 
REMARK    2  A    between atoms: C9_3  and  C7_4 
REMARK    3  A    between atoms: C9_3  and  O1_10 
REMARK    4  A    between atoms: C7_4  and  C3_5 
REMARK    5  A    between atoms: C7_4  and  N1_9 
REMARK    6  A    between atoms: C3_5  and  C6_6 
REMARK    7  A    between atoms: C6_6  and  C2_7 
REMARK    8  A    between atoms: C2_7  and  C5_8 
REMARK    9  A    between atoms: N2_11  and  C11_12 
REMARK   10  A    between atoms: C11_12  and  C13_13 
REMARK   11  A    between atoms: C11_12  and  C12_15 
REMARK   12  A    between atoms: C13_13  and  O6_14 
REMARK       I    between atoms: C12_15  and  N3_17 
REMARK   13  A    between atoms: N3_17  and  C14_18 
REMARK   14  A    between atoms: C14_18  and  C15_19 
REMARK   15  A    between atoms: C14_18  and  C16_23 
REMARK   16  A    between atoms: C15_19  and  C17_20 
REMARK   17  A    between atoms: C17_20  and  C18_21 
REMARK   18  A    between atoms: C17_20  and  C19_22 
REMARK   19  A    between atoms: C16_23  and  O5_25 
REMARK   20  A    between atoms: O5_25  and  C20_26 
ROOT
ATOM      1  C11 U17 d   1      12.673  -2.502  18.649  0.00  0.00     0.109 C 
ATOM      2  H13 U17 d   1      12.849  -1.740  19.423  0.00  0.00     0.090 H 
ENDROOT
BRANCH   1   3
ATOM      3  N2  U17 d   1      12.327  -1.805  17.401  0.00  0.00    -0.344 N 
ATOM      4  C10 U17 d   1      11.833  -0.576  17.344  0.00  0.00     0.249 C 
ATOM      5  O2  U17 d   1      11.720   0.163  18.271  0.00  0.00    -0.271 OA
ATOM      6  H12 U17 d   1      12.474  -2.290  16.539  0.00  0.00     0.163 HD
BRANCH   4   7
ATOM      7  C9  U17 d   1      11.331   0.051  16.089  0.00  0.00     0.139 C 
ATOM      8  H1  U17 d   1      11.434  -0.619  15.223  0.00  0.00     0.101 H 
BRANCH   7   9
ATOM      9  C7  U17 d   1      12.114   1.337  15.887  0.00  0.00     0.134 C 
ATOM     10  H2  U17 d   1      11.842   1.912  16.785  0.00  0.00     0.088 H 
BRANCH   9  11
ATOM     11  C3  U17 d   1      13.603   1.135  16.144  0.00  0.00    -0.016 C 
ATOM     12  H3  U17 d   1      13.602   0.303  16.864  0.00  0.00     0.038 H 
ATOM     13  H4  U17 d   1      13.876   2.067  16.661  0.00  0.00     0.038 H 
BRANCH  11  14
ATOM     14  C6  U17 d   1      14.652   0.893  15.458  0.00  0.00     0.052 C 
BRANCH  14  15
ATOM     15  C2  U17 d   1      15.826   0.881  15.135  0.00  0.00    -0.174 C 
BRANCH  15  16
ATOM     16  C5  U17 d   1      17.079   1.025  15.026  0.00  0.00    -0.031 C 
ATOM     17  H5  U17 d   1      17.433   0.491  14.132  0.00  0.00     0.043 H 
ATOM     18  H6  U17 d   1      17.574   0.614  15.918  0.00  0.00     0.043 H 
ATOM     19  H7  U17 d   1      17.319   2.095  14.933  0.00  0.00     0.043 H 
ENDBRANCH  15  16
ENDBRANCH  14  15
ENDBRANCH  11  14
ENDBRANCH   9  11
BRANCH   9  20
ATOM     20  N1  U17 d   1      11.559   2.233  14.848  0.00  0.00    -0.072 N 
ATOM     21  H8  U17 d   1      10.552   2.195  14.875  0.00  0.00     0.274 HD
ATOM     22  H9  U17 d   1      11.882   1.936  13.941  0.00  0.00     0.274 HD
ATOM     23  H10 U17 d   1      11.864   3.178  15.021  0.00  0.00     0.274 HD
ENDBRANCH   9  20
ENDBRANCH   7   9
BRANCH   7  24
ATOM     24  O1  U17 d   1       9.966   0.367  16.348  0.00  0.00    -0.384 OA
ATOM     25  H11 U17 d   1       9.475  -0.436  16.475  0.00  0.00     0.210 HD
ENDBRANCH   7  24
ENDBRANCH   4   7
ENDBRANCH   1   3
BRANCH   1  26
ATOM     26  C13 U17 d   1      11.553  -3.429  19.204  0.00  0.00     0.044 C 
ATOM     27  H14 U17 d   1      10.933  -3.728  18.346  0.00  0.00     0.077 H 
ATOM     28  H15 U17 d   1      10.952  -2.822  19.897  0.00  0.00     0.077 H 
BRANCH  26  29
ATOM     29  O6  U17 d   1      11.907  -4.640  19.907  0.00  0.00    -0.398 OA
ATOM     30  H16 U17 d   1      11.116  -5.090  20.179  0.00  0.00     0.209 HD
ENDBRANCH  26  29
ENDBRANCH   1  26
BRANCH   1  31
ATOM     31  C12 U17 d   1      13.984  -3.192  18.374  0.00  0.00     0.243 C 
ATOM     32  O3  U17 d   1      13.935  -3.817  17.334  0.00  0.00    -0.271 OA
ATOM     33  N3  U17 d   1      15.052  -3.088  19.193  0.00  0.00    -0.345 N 
ATOM     34  H17 U17 d   1      15.018  -2.349  19.866  0.00  0.00     0.163 HD
BRANCH  33  35
ATOM     35  C14 U17 d   1      16.260  -3.927  19.218  0.00  0.00     0.096 C 
ATOM     36  H18 U17 d   1      16.465  -4.280  18.197  0.00  0.00     0.088 H 
BRANCH  35  37
ATOM     37  C15 U17 d   1      17.403  -3.011  19.687  0.00  0.00    -0.035 C 
ATOM     38  H19 U17 d   1      17.664  -3.325  20.708  0.00  0.00     0.037 H 
ATOM     39  H20 U17 d   1      17.002  -1.987  19.709  0.00  0.00     0.037 H 
BRANCH  37  40
ATOM     40  C17 U17 d   1      18.716  -2.957  18.889  0.00  0.00    -0.059 C 
ATOM     41  H21 U17 d   1      18.560  -3.513  17.953  0.00  0.00     0.038 H 
BRANCH  40  42
ATOM     42  C18 U17 d   1      18.971  -1.493  18.541  0.00  0.00    -0.073 C 
ATOM     43  H22 U17 d   1      19.906  -1.410  17.967  0.00  0.00     0.028 H 
ATOM     44  H23 U17 d   1      19.056  -0.905  19.467  0.00  0.00     0.028 H 
ATOM     45  H24 U17 d   1      18.135  -1.108  17.938  0.00  0.00     0.028 H 
ENDBRANCH  40  42
BRANCH  40  46
ATOM     46  C19 U17 d   1      19.934  -3.593  19.586  0.00  0.00    -0.073 C 
ATOM     47  H25 U17 d   1      19.714  -4.645  19.821  0.00  0.00     0.028 H 
ATOM     48  H26 U17 d   1      20.151  -3.047  20.516  0.00  0.00     0.028 H 
ATOM     49  H27 U17 d   1      20.807  -3.541  18.919  0.00  0.00     0.028 H 
ENDBRANCH  40  46
ENDBRANCH  37  40
ENDBRANCH  35  37
BRANCH  35  50
ATOM     50  C16 U17 d   1      16.167  -5.155  20.132  0.00  0.00     0.281 C 
ATOM     51  O4  U17 d   1      15.734  -5.033  21.275  0.00  0.00    -0.263 OA
BRANCH  50  52
ATOM     52  O5  U17 d   1      16.575  -6.522  19.751  0.00  0.00    -0.325 OA
BRANCH  52  53
ATOM     53  C20 U17 d   1      16.458  -7.670  20.610  0.00  0.00     0.013 C 
ATOM     54  H28 U17 d   1      16.832  -8.561  20.084  0.00  0.00     0.067 H 
ATOM     55  H29 U17 d   1      15.402  -7.820  20.880  0.00  0.00     0.067 H 
ATOM     56  H30 U17 d   1      17.050  -7.507  21.523  0.00  0.00     0.067 H 
ENDBRANCH  52  53
ENDBRANCH  50  52
ENDBRANCH  35  50
ENDBRANCH  33  35
ENDBRANCH   1  31
TORSDOF 20
