REMARK  4 active torsions:
REMARK  status: ('A' for Active; 'I' for Inactive)
REMARK    1  A    between atoms: C1_7  and  P1_1 
REMARK    2  A    between atoms: N1_10  and  C1_7 
REMARK    3  A    between atoms: C2_8  and  C3_9 
REMARK    4  A    between atoms: C2_8  and  N1_10 
ROOT
ATOM      1  N1  GPJ d   1    -132.002  29.362 126.497  0.00  0.00    -0.053 N 
ATOM      2  H5  GPJ d   1    -131.364  29.909 127.054  0.00  0.00     0.278 HD
ATOM      3  H6  GPJ d   1    -132.561  28.780 127.101  0.00  0.00     0.278 HD
ENDROOT
BRANCH   1   4
ATOM      4  C1  GPJ d   1    -131.208  28.484 125.642  0.00  0.00     0.183 C 
ATOM      5  H1  GPJ d   1    -131.888  27.942 124.969  0.00  0.00     0.097 H 
ATOM      6  H2  GPJ d   1    -130.519  29.102 125.047  0.00  0.00     0.097 H 
BRANCH   4   7
ATOM      7  P1  GPJ d   1    -130.271  27.318 126.545  0.00  0.00     0.285 P 
ATOM      8  O1  GPJ d   1    -129.783  27.945 127.794  0.00  0.00    -0.638 OA
ATOM      9  O2  GPJ d   1    -129.215  26.930 125.613  0.00  0.00    -0.638 OA
ATOM     10  O3  GPJ d   1    -131.239  26.171 126.828  0.00  0.00    -0.638 OA
ENDBRANCH   4   7
ENDBRANCH   1   4
BRANCH   1  11
ATOM     11  C2  GPJ d   1    -132.920  30.307 125.797  0.00  0.00     0.161 C 
ATOM     12  H3  GPJ d   1    -132.319  30.956 125.143  0.00  0.00     0.092 H 
ATOM     13  H4  GPJ d   1    -133.623  29.722 125.186  0.00  0.00     0.092 H 
BRANCH  11  14
ATOM     14  C3  GPJ d   1    -133.710  31.174 126.731  0.00  0.00     0.199 C 
ATOM     15  O4  GPJ d   1    -133.502  31.098 127.958  0.00  0.00    -0.647 OA
ATOM     16  O5  GPJ d   1    -134.554  31.915 126.203  0.00  0.00    -0.647 OA
ENDBRANCH  11  14
ENDBRANCH   1  11
TORSDOF 4
