REMARK  18 active torsions:
REMARK  status: ('A' for Active; 'I' for Inactive)
REMARK    1  A    between atoms: C1A_1  and  O1X_7 
REMARK    2  A    between atoms: C2A_2  and  O2A_8 
REMARK    3  A    between atoms: C3A_3  and  O3A_9 
REMARK    4  A    between atoms: C4A_4  and  O4A_10 
REMARK    5  A    between atoms: C5A_5  and  C6A_6 
REMARK    6  A    between atoms: C6A_6  and  O6A_12 
REMARK    7  A    between atoms: O4A_10  and  C1B_13 
REMARK    8  A    between atoms: C2B_14  and  O2B_19 
REMARK    9  A    between atoms: C3B_15  and  O3B_20 
REMARK   10  A    between atoms: C4B_16  and  O4B_21 
REMARK   11  A    between atoms: C5B_17  and  C6B_18 
REMARK   12  A    between atoms: C6B_18  and  O6B_23 
REMARK   13  A    between atoms: O4B_21  and  C1C_24 
REMARK   14  A    between atoms: C2C_25  and  O2C_30 
REMARK   15  A    between atoms: C3C_26  and  O3C_31 
REMARK   16  A    between atoms: C4C_27  and  O4C_32 
REMARK   17  A    between atoms: C5C_28  and  C6C_29 
REMARK   18  A    between atoms: C6C_29  and  O6C_34 
ROOT
ATOM      1  C1B MLR d   1      27.117 -11.295   4.719  0.00  0.00     0.159 C 
ATOM      2  C2B MLR d   1      26.947 -12.831   4.925  0.00  0.00     0.110 C 
ATOM      3  C3B MLR d   1      27.030 -13.165   6.455  0.00  0.00     0.092 C 
ATOM      4  C4B MLR d   1      28.408 -12.727   6.990  0.00  0.00     0.096 C 
ATOM      5  C5B MLR d   1      28.584 -11.157   6.780  0.00  0.00     0.089 C 
ATOM      6  O5B MLR d   1      28.463 -10.862   5.316  0.00  0.00    -0.348 OA
ATOM      7  H12 MLR d   1      27.085 -11.052   3.647  0.00  0.00     0.133 H 
ATOM      8  H13 MLR d   1      27.748 -13.367   4.395  0.00  0.00     0.094 H 
ATOM      9  H14 MLR d   1      26.234 -12.633   6.997  0.00  0.00     0.091 H 
ATOM     10  H15 MLR d   1      29.201 -13.261   6.446  0.00  0.00     0.091 H 
ATOM     11  H16 MLR d   1      27.794 -10.626   7.331  0.00  0.00     0.090 H 
ENDROOT
BRANCH   1  12
ATOM     12  O4A MLR d   1      25.964 -10.556   5.469  0.00  0.00    -0.348 OA
BRANCH  12  13
ATOM     13  C4A MLR d   1      25.339  -9.531   4.725  0.00  0.00     0.096 C 
ATOM     14  C3A MLR d   1      23.788  -9.776   4.740  0.00  0.00     0.092 C 
ATOM     15  C2A MLR d   1      23.165  -8.638   3.926  0.00  0.00     0.110 C 
ATOM     16  H3  MLR d   1      23.407  -9.776   5.772  0.00  0.00     0.091 H 
ATOM     17  C1A MLR d   1      23.476  -7.268   4.587  0.00  0.00     0.156 C 
ATOM     18  H2  MLR d   1      23.585  -8.664   2.910  0.00  0.00     0.094 H 
ATOM     19  O5A MLR d   1      24.940  -7.077   4.715  0.00  0.00    -0.349 OA
ATOM     20  H1  MLR d   1      23.033  -7.276   5.594  0.00  0.00     0.133 H 
ATOM     21  C5A MLR d   1      25.640  -8.121   5.441  0.00  0.00     0.089 C 
ATOM     22  H5  MLR d   1      25.261  -8.171   6.473  0.00  0.00     0.090 H 
ATOM     23  H4  MLR d   1      25.716  -9.524   3.692  0.00  0.00     0.091 H 
BRANCH  14  24
ATOM     24  O3A MLR d   1      23.469 -11.027   4.092  0.00  0.00    -0.390 OA
ATOM     25  H10 MLR d   1      23.899 -11.739   4.551  0.00  0.00     0.210 HD
ENDBRANCH  14  24
BRANCH  15  26
ATOM     26  O2A MLR d   1      21.731  -8.739   3.851  0.00  0.00    -0.388 OA
ATOM     27  H9  MLR d   1      21.390  -8.015   3.339  0.00  0.00     0.210 HD
ENDBRANCH  15  26
BRANCH  17  28
ATOM     28  O1X MLR d   1      22.865  -6.003   3.781  0.00  0.00    -0.369 OA
ATOM     29  H8  MLR d   1      23.049  -5.204   4.261  0.00  0.00     0.212 HD
ENDBRANCH  17  28
BRANCH  21  30
ATOM     30  C6A MLR d   1      27.132  -7.731   5.488  0.00  0.00     0.043 C 
ATOM     31  H6  MLR d   1      27.657  -8.527   6.037  0.00  0.00     0.078 H 
ATOM     32  H7  MLR d   1      27.203  -6.789   6.051  0.00  0.00     0.078 H 
BRANCH  30  33
ATOM     33  O6A MLR d   1      27.863  -7.529   4.199  0.00  0.00    -0.398 OA
ATOM     34  H11 MLR d   1      28.765  -7.294   4.381  0.00  0.00     0.209 HD
ENDBRANCH  30  33
ENDBRANCH  21  30
ENDBRANCH  12  13
ENDBRANCH   1  12
BRANCH   2  35
ATOM     35  O2B MLR d   1      25.681 -13.215   4.383  0.00  0.00    -0.388 OA
ATOM     36  H19 MLR d   1      24.989 -12.747   4.835  0.00  0.00     0.210 HD
ENDBRANCH   2  35
BRANCH   3  37
ATOM     37  O3B MLR d   1      26.874 -14.597   6.636  0.00  0.00    -0.390 OA
ATOM     38  H20 MLR d   1      26.937 -14.807   7.560  0.00  0.00     0.210 HD
ENDBRANCH   3  37
BRANCH   5  39
ATOM     39  C6B MLR d   1      29.968 -10.676   7.290  0.00  0.00     0.043 C 
ATOM     40  H17 MLR d   1      30.747 -11.222   6.737  0.00  0.00     0.078 H 
ATOM     41  H18 MLR d   1      30.042 -10.917   8.361  0.00  0.00     0.078 H 
BRANCH  39  42
ATOM     42  O6B MLR d   1      30.206  -9.272   7.130  0.00  0.00    -0.398 OA
ATOM     43  H21 MLR d   1      31.069  -9.058   7.464  0.00  0.00     0.209 HD
ENDBRANCH  39  42
ENDBRANCH   5  39
BRANCH   4  44
ATOM     44  O4B MLR d   1      28.496 -13.045   8.421  0.00  0.00    -0.348 OA
BRANCH  44  45
ATOM     45  C1C MLR d   1      29.087 -14.209   8.955  0.00  0.00     0.159 C 
ATOM     46  C2C MLR d   1      28.155 -14.771  10.110  0.00  0.00     0.110 C 
ATOM     47  C3C MLR d   1      28.060 -13.692  11.270  0.00  0.00     0.092 C 
ATOM     48  H23 MLR d   1      28.581 -15.702  10.513  0.00  0.00     0.094 H 
ATOM     49  C4C MLR d   1      29.502 -13.463  11.814  0.00  0.00     0.090 C 
ATOM     50  H24 MLR d   1      27.643 -12.750  10.884  0.00  0.00     0.091 H 
ATOM     51  C5C MLR d   1      30.423 -12.924  10.663  0.00  0.00     0.089 C 
ATOM     52  H25 MLR d   1      29.904 -14.413  12.195  0.00  0.00     0.091 H 
ATOM     53  O5C MLR d   1      30.442 -13.908   9.529  0.00  0.00    -0.348 OA
ATOM     54  H26 MLR d   1      30.017 -11.966  10.306  0.00  0.00     0.090 H 
ATOM     55  H22 MLR d   1      29.189 -14.963   8.160  0.00  0.00     0.133 H 
BRANCH  46  56
ATOM     56  O2C MLR d   1      26.877 -15.036   9.564  0.00  0.00    -0.388 OA
ATOM     57  H29 MLR d   1      26.305 -15.368  10.246  0.00  0.00     0.210 HD
ENDBRANCH  46  56
BRANCH  47  58
ATOM     58  O3C MLR d   1      27.235 -14.196  12.311  0.00  0.00    -0.390 OA
ATOM     59  H30 MLR d   1      26.356 -14.335  11.978  0.00  0.00     0.210 HD
ENDBRANCH  47  58
BRANCH  49  60
ATOM     60  O4C MLR d   1      29.473 -12.497  12.869  0.00  0.00    -0.390 OA
ATOM     61  H31 MLR d   1      30.354 -12.361  13.197  0.00  0.00     0.210 HD
ENDBRANCH  49  60
BRANCH  51  62
ATOM     62  C6C MLR d   1      31.853 -12.706  11.140  0.00  0.00     0.043 C 
ATOM     63  H27 MLR d   1      32.272 -13.658  11.499  0.00  0.00     0.078 H 
ATOM     64  H28 MLR d   1      31.862 -11.970  11.957  0.00  0.00     0.078 H 
BRANCH  62  65
ATOM     65  O6C MLR d   1      32.627 -12.223  10.054  0.00  0.00    -0.398 OA
ATOM     66  H32 MLR d   1      32.615 -12.861   9.350  0.00  0.00     0.209 HD
ENDBRANCH  62  65
ENDBRANCH  51  62
ENDBRANCH  44  45
ENDBRANCH   4  44
TORSDOF 18
