REMARK  14 active torsions:
REMARK  status: ('A' for Active; 'I' for Inactive)
REMARK    1  A    between atoms: O1A_7  and  C1A_1 
REMARK    2  A    between atoms: C2A_2  and  O2A_8 
REMARK    3  A    between atoms: C3A_3  and  O3A_9 
REMARK    4  A    between atoms: C4A_4  and  O4A_10 
REMARK    5  A    between atoms: C5A_5  and  C6A_6 
REMARK    6  A    between atoms: C6A_6  and  O6A_12 
REMARK    7  A    between atoms: C4B_16  and  O1A_7 
REMARK    8  A    between atoms: O1B_19  and  C1B_13 
REMARK    9  A    between atoms: C2B_14  and  O2B_20 
REMARK   10  A    between atoms: C3B_15  and  O3B_21 
REMARK   11  A    between atoms: C5B_17  and  C6B_18 
REMARK   12  A    between atoms: C6B_18  and  O6B_23 
REMARK   13  A    between atoms: C4C_27  and  O1B_19 
REMARK   14  A    between atoms: C1C_24  and  N1C_30 
ROOT
ATOM      1  C1B NPJ d   1      32.513  51.667  -0.572  0.00  0.00     0.164 C 
ATOM      2  C2B NPJ d   1      32.866  53.159  -0.673  0.00  0.00     0.110 C 
ATOM      3  C3B NPJ d   1      34.392  53.313  -0.668  0.00  0.00     0.092 C 
ATOM      4  C4B NPJ d   1      34.940  52.700   0.642  0.00  0.00     0.096 C 
ATOM      5  C5B NPJ d   1      34.524  51.209   0.677  0.00  0.00     0.089 C 
ATOM      6  O5B NPJ d   1      33.070  51.093   0.654  0.00  0.00    -0.348 OA
ATOM      7  H12 NPJ d   1      31.418  51.573  -0.536  0.00  0.00     0.134 H 
ATOM      8  H13 NPJ d   1      32.441  53.696   0.188  0.00  0.00     0.094 H 
ATOM      9  H14 NPJ d   1      34.821  52.782  -1.530  0.00  0.00     0.091 H 
ATOM     10  H15 NPJ d   1      34.511  53.220   1.511  0.00  0.00     0.091 H 
ATOM     11  H16 NPJ d   1      34.949  50.688  -0.194  0.00  0.00     0.090 H 
ENDROOT
BRANCH   4  12
ATOM     12  O1A NPJ d   1      36.461  52.867   0.653  0.00  0.00    -0.348 OA
BRANCH  12  13
ATOM     13  C1A NPJ d   1      36.913  53.998   1.427  0.00  0.00     0.159 C 
ATOM     14  C2A NPJ d   1      38.100  54.644   0.667  0.00  0.00     0.110 C 
ATOM     15  C3A NPJ d   1      39.236  53.579   0.530  0.00  0.00     0.092 C 
ATOM     16  H2  NPJ d   1      38.472  55.520   1.219  0.00  0.00     0.094 H 
ATOM     17  C4A NPJ d   1      39.689  53.175   1.948  0.00  0.00     0.090 C 
ATOM     18  H3  NPJ d   1      38.862  52.699  -0.014  0.00  0.00     0.091 H 
ATOM     19  C5A NPJ d   1      38.459  52.567   2.691  0.00  0.00     0.089 C 
ATOM     20  H4  NPJ d   1      40.058  54.056   2.493  0.00  0.00     0.091 H 
ATOM     21  O5A NPJ d   1      37.372  53.569   2.772  0.00  0.00    -0.348 OA
ATOM     22  H5  NPJ d   1      38.103  51.680   2.147  0.00  0.00     0.090 H 
ATOM     23  H1  NPJ d   1      36.094  54.724   1.535  0.00  0.00     0.133 H 
BRANCH  14  24
ATOM     24  O2A NPJ d   1      37.650  55.042  -0.633  0.00  0.00    -0.388 OA
ATOM     25  H8  NPJ d   1      38.376  55.417  -1.117  0.00  0.00     0.210 HD
ENDBRANCH  14  24
BRANCH  15  26
ATOM     26  O3A NPJ d   1      40.355  54.143  -0.167  0.00  0.00    -0.390 OA
ATOM     27  H9  NPJ d   1      40.087  54.396  -1.043  0.00  0.00     0.210 HD
ENDBRANCH  15  26
BRANCH  17  28
ATOM     28  O4A NPJ d   1      40.743  52.189   1.842  0.00  0.00    -0.390 OA
ATOM     29  H10 NPJ d   1      41.008  51.915   2.712  0.00  0.00     0.210 HD
ENDBRANCH  17  28
BRANCH  19  30
ATOM     30  C6A NPJ d   1      38.871  52.171   4.110  0.00  0.00     0.043 C 
ATOM     31  H6  NPJ d   1      39.262  53.052   4.641  0.00  0.00     0.078 H 
ATOM     32  H7  NPJ d   1      39.649  51.394   4.066  0.00  0.00     0.078 H 
BRANCH  30  33
ATOM     33  O6A NPJ d   1      37.722  51.663   4.801  0.00  0.00    -0.398 OA
ATOM     34  H11 NPJ d   1      37.052  52.336   4.836  0.00  0.00     0.209 HD
ENDBRANCH  30  33
ENDBRANCH  19  30
ENDBRANCH  12  13
ENDBRANCH   4  12
BRANCH   3  35
ATOM     35  O3B NPJ d   1      34.736  54.705  -0.749  0.00  0.00    -0.390 OA
ATOM     36  H20 NPJ d   1      35.681  54.798  -0.734  0.00  0.00     0.210 HD
ENDBRANCH   3  35
BRANCH   5  37
ATOM     37  C6B NPJ d   1      35.051  50.576   1.966  0.00  0.00     0.043 C 
ATOM     38  H17 NPJ d   1      34.620  51.098   2.833  0.00  0.00     0.078 H 
ATOM     39  H18 NPJ d   1      36.147  50.661   1.994  0.00  0.00     0.078 H 
BRANCH  37  40
ATOM     40  O6B NPJ d   1      34.679  49.195   2.008  0.00  0.00    -0.398 OA
ATOM     41  H21 NPJ d   1      33.732  49.122   1.984  0.00  0.00     0.209 HD
ENDBRANCH  37  40
ENDBRANCH   5  37
BRANCH   2  42
ATOM     42  O2B NPJ d   1      32.327  53.703  -1.883  0.00  0.00    -0.388 OA
ATOM     43  H19 NPJ d   1      32.550  54.624  -1.942  0.00  0.00     0.210 HD
ENDBRANCH   2  42
BRANCH   1  44
ATOM     44  O1B NPJ d   1      32.992  50.940  -1.713  0.00  0.00    -0.318 OA
BRANCH  44  45
ATOM     45  C4C NPJ d   1      32.708  49.696  -2.390  0.00  0.00     0.072 A 
ATOM     46  C3C NPJ d   1      32.058  48.666  -1.659  0.00  0.00    -0.048 A 
ATOM     47  C2C NPJ d   1      31.758  47.459  -2.262  0.00  0.00    -0.048 A 
ATOM     48  H23 NPJ d   1      31.795  48.828  -0.620  0.00  0.00     0.087 H 
ATOM     49  C1C NPJ d   1      32.104  47.235  -3.641  0.00  0.00     0.103 A 
ATOM     50  H22 NPJ d   1      31.261  46.680  -1.695  0.00  0.00     0.087 H 
ATOM     51  C6C NPJ d   1      32.768  48.290  -4.377  0.00  0.00    -0.048 A 
ATOM     52  C5C NPJ d   1      33.062  49.502  -3.751  0.00  0.00    -0.048 A 
ATOM     53  H25 NPJ d   1      33.037  48.138  -5.416  0.00  0.00     0.087 H 
ATOM     54  H24 NPJ d   1      33.559  50.292  -4.302  0.00  0.00     0.087 H 
BRANCH  49  55
ATOM     55  N1C NPJ d   1      31.802  46.043  -4.228  0.00  0.00    -0.116 N 
ATOM     56  O2C NPJ d   1      32.085  45.830  -5.397  0.00  0.00    -0.532 OA
ATOM     57  O3C NPJ d   1      31.240  45.167  -3.587  0.00  0.00    -0.532 OA
ENDBRANCH  49  55
ENDBRANCH  44  45
ENDBRANCH   1  44
TORSDOF 14
