REMARK  9 active torsions:
REMARK  status: ('A' for Active; 'I' for Inactive)
REMARK    1  A    between atoms: C14_6  and  N1_7 
REMARK       I    between atoms: N1_7  and  C12_8 
REMARK    2  A    between atoms: C12_8  and  C10_10 
REMARK    3  A    between atoms: C10_10  and  C8_11 
REMARK    4  A    between atoms: C8_11  and  C6_12 
REMARK    5  A    between atoms: C6_12  and  C7_13 
REMARK    6  A    between atoms: C7_13  and  C9_14 
REMARK    7  A    between atoms: C9_14  and  C11_15 
REMARK    8  A    between atoms: C11_15  and  C13_16 
REMARK    9  A    between atoms: C13_16  and  C15_18 
ROOT
ATOM      1  C8  CF3 d   1      -8.374  11.785  43.351  0.00  0.00    -0.057 C 
ATOM      2  H9  CF3 d   1      -8.584  11.958  42.285  0.00  0.00     0.033 H 
ATOM      3  H10 CF3 d   1      -9.186  11.189  43.793  0.00  0.00     0.033 H 
ENDROOT
BRANCH   1   4
ATOM      4  C10 CF3 d   1      -8.346  13.155  44.061  0.00  0.00     0.010 C 
ATOM      5  H7  CF3 d   1      -7.459  13.208  44.709  0.00  0.00     0.047 H 
ATOM      6  H8  CF3 d   1      -8.296  13.952  43.305  0.00  0.00     0.047 H 
BRANCH   4   7
ATOM      7  C12 CF3 d   1      -9.623  13.352  44.927  0.00  0.00     0.222 C 
ATOM      8  N1  CF3 d   1     -10.603  14.165  44.456  0.00  0.00    -0.327 N 
ATOM      9  H6  CF3 d   1     -10.453  14.602  43.569  0.00  0.00     0.169 HD
ATOM     10  O1  CF3 d   1      -9.686  12.751  45.999  0.00  0.00    -0.273 OA
BRANCH   8  11
ATOM     11  C14 CF3 d   1     -11.783  14.434  45.102  0.00  0.00     0.034 A 
ATOM     12  C4  CF3 d   1     -12.517  13.437  45.787  0.00  0.00    -0.057 A 
ATOM     13  C2  CF3 d   1     -13.724  13.719  46.441  0.00  0.00    -0.081 A 
ATOM     14  H1  CF3 d   1     -12.134  12.423  45.807  0.00  0.00     0.086 H 
ATOM     15  C1  CF3 d   1     -14.223  15.027  46.418  0.00  0.00    -0.083 A 
ATOM     16  H2  CF3 d   1     -14.264  12.934  46.958  0.00  0.00     0.083 H 
ATOM     17  C3  CF3 d   1     -13.510  16.031  45.740  0.00  0.00    -0.081 A 
ATOM     18  H3  CF3 d   1     -15.154  15.264  46.920  0.00  0.00     0.083 H 
ATOM     19  C5  CF3 d   1     -12.304  15.740  45.086  0.00  0.00    -0.057 A 
ATOM     20  H4  CF3 d   1     -13.897  17.043  45.722  0.00  0.00     0.083 H 
ATOM     21  H5  CF3 d   1     -11.770  16.527  44.565  0.00  0.00     0.086 H 
ENDBRANCH   8  11
ENDBRANCH   4   7
ENDBRANCH   1   4
BRANCH   1  22
ATOM     22  C6  CF3 d   1      -7.086  10.975  43.452  0.00  0.00    -0.065 C 
ATOM     23  H11 CF3 d   1      -7.167  10.240  44.267  0.00  0.00     0.033 H 
ATOM     24  H12 CF3 d   1      -6.235  11.645  43.645  0.00  0.00     0.033 H 
BRANCH  22  25
ATOM     25  C7  CF3 d   1      -6.892  10.253  42.111  0.00  0.00    -0.065 C 
ATOM     26  H13 CF3 d   1      -6.275  10.889  41.459  0.00  0.00     0.033 H 
ATOM     27  H14 CF3 d   1      -7.880  10.104  41.650  0.00  0.00     0.033 H 
BRANCH  25  28
ATOM     28  C9  CF3 d   1      -6.207   8.886  42.244  0.00  0.00    -0.059 C 
ATOM     29  H15 CF3 d   1      -6.825   8.202  42.844  0.00  0.00     0.033 H 
ATOM     30  H16 CF3 d   1      -5.218   8.995  42.714  0.00  0.00     0.033 H 
BRANCH  28  31
ATOM     31  C11 CF3 d   1      -6.066   8.365  40.819  0.00  0.00    -0.001 C 
ATOM     32  H17 CF3 d   1      -5.834   9.225  40.173  0.00  0.00     0.044 H 
ATOM     33  H18 CF3 d   1      -7.035   7.936  40.525  0.00  0.00     0.044 H 
BRANCH  31  34
ATOM     34  C13 CF3 d   1      -4.984   7.287  40.568  0.00  0.00     0.232 C 
ATOM     35  O2  CF3 d   1      -4.007   7.130  41.292  0.00  0.00    -0.288 OA
BRANCH  34  36
ATOM     36  C15 CF3 d   1      -5.127   6.486  39.278  0.00  0.00     0.451 C 
ATOM     37  F3  CF3 d   1      -6.367   6.179  38.916  0.00  0.00    -0.163 F 
ATOM     38  F1  CF3 d   1      -4.617   7.331  38.396  0.00  0.00    -0.163 F 
ATOM     39  F2  CF3 d   1      -4.366   5.428  39.195  0.00  0.00    -0.163 F 
ENDBRANCH  34  36
ENDBRANCH  31  34
ENDBRANCH  28  31
ENDBRANCH  25  28
ENDBRANCH  22  25
ENDBRANCH   1  22
TORSDOF 9
