REMARK  9 active torsions:
REMARK  status: ('A' for Active; 'I' for Inactive)
REMARK    1  A    between atoms: C1_1  and  C6_6 
REMARK    2  A    between atoms: C6_6  and  C7_7 
REMARK    3  A    between atoms: C15_15  and  C17_17 
REMARK    4  A    between atoms: C21_21  and  O23_23 
REMARK    5  A    between atoms: O23_23  and  C24_24 
REMARK    6  A    between atoms: C24_24  and  C25_25 
REMARK    7  A    between atoms: C25_25  and  C26_26 
REMARK    8  A    between atoms: C25_25  and  N27_27 
REMARK    9  A    between atoms: C26_26  and  C28_28 
ROOT
ATOM      1  C17 A53 d   1      -7.801   7.405 -16.213  0.00  0.00    -0.006 A 
ATOM      2  C18 A53 d   1      -9.168   7.299 -15.850  0.00  0.00     0.013 A 
ATOM      3  N19 A53 d   1      -9.621   6.353 -14.969  0.00  0.00    -0.269 NA
ATOM      4  C20 A53 d   1      -8.752   5.471 -14.403  0.00  0.00     0.034 A 
ATOM      5  C21 A53 d   1      -7.373   5.489 -14.695  0.00  0.00     0.087 A 
ATOM      6  C22 A53 d   1      -6.919   6.476 -15.610  0.00  0.00    -0.037 A 
ATOM      7  H12 A53 d   1      -9.880   7.991 -16.285  0.00  0.00     0.116 H 
ATOM      8  H13 A53 d   1      -9.132   4.732 -13.707  0.00  0.00     0.119 H 
ATOM      9  H14 A53 d   1      -5.864   6.519 -15.854  0.00  0.00     0.089 H 
ENDROOT
BRANCH   5  10
ATOM     10  O23 A53 d   1      -6.551   4.537 -14.064  0.00  0.00    -0.348 OA
BRANCH  10  11
ATOM     11  C24 A53 d   1      -5.887   3.594 -14.907  0.00  0.00     0.053 C 
ATOM     12  H15 A53 d   1      -4.875   3.404 -14.521  0.00  0.00     0.078 H 
ATOM     13  H16 A53 d   1      -5.821   3.996 -15.929  0.00  0.00     0.078 H 
BRANCH  11  14
ATOM     14  C25 A53 d   1      -6.683   2.286 -14.922  0.00  0.00     0.124 C 
ATOM     15  H17 A53 d   1      -7.097   2.115 -13.917  0.00  0.00     0.087 H 
BRANCH  14  16
ATOM     16  C26 A53 d   1      -5.789   1.086 -15.284  0.00  0.00    -0.010 C 
ATOM     17  H18 A53 d   1      -4.794   1.449 -15.582  0.00  0.00     0.043 H 
ATOM     18  H19 A53 d   1      -6.242   0.532 -16.119  0.00  0.00     0.043 H 
BRANCH  16  19
ATOM     19  C28 A53 d   1      -5.650   0.163 -14.085  0.00  0.00    -0.028 A 
ATOM     20  C29 A53 d   1      -6.701  -0.444 -13.383  0.00  0.00    -0.015 A 
ATOM     21  N30 A53 d   1      -6.203  -1.200 -12.376  0.00  0.00    -0.365 N 
ATOM     22  H23 A53 d   1      -7.759  -0.325 -13.613  0.00  0.00     0.112 H 
ATOM     23  C31 A53 d   1      -4.817  -1.134 -12.359  0.00  0.00     0.042 A 
ATOM     24  H24 A53 d   1      -6.773  -1.747 -11.715  0.00  0.00     0.165 HD
ATOM     25  C32 A53 d   1      -4.426  -0.271 -13.446  0.00  0.00    -0.002 A 
ATOM     26  C33 A53 d   1      -3.846  -1.718 -11.545  0.00  0.00    -0.056 A 
ATOM     27  C36 A53 d   1      -3.070  -0.011 -13.679  0.00  0.00    -0.070 A 
ATOM     28  C35 A53 d   1      -2.075  -0.606 -12.851  0.00  0.00    -0.082 A 
ATOM     29  H28 A53 d   1      -2.777   0.644 -14.491  0.00  0.00     0.084 H 
ATOM     30  C34 A53 d   1      -2.466  -1.460 -11.780  0.00  0.00    -0.081 A 
ATOM     31  H27 A53 d   1      -1.025  -0.410 -13.035  0.00  0.00     0.083 H 
ATOM     32  H26 A53 d   1      -1.714  -1.913 -11.145  0.00  0.00     0.083 H 
ATOM     33  H25 A53 d   1      -4.143  -2.370 -10.732  0.00  0.00     0.086 H 
ENDBRANCH  16  19
ENDBRANCH  14  16
BRANCH  14  34
ATOM     34  N27 A53 d   1      -7.791   2.422 -15.870  0.00  0.00    -0.073 N 
ATOM     35  H20 A53 d   1      -8.360   3.213 -15.611  0.00  0.00     0.274 HD
ATOM     36  H21 A53 d   1      -8.352   1.585 -15.853  0.00  0.00     0.274 HD
ATOM     37  H22 A53 d   1      -7.424   2.562 -16.798  0.00  0.00     0.274 HD
ENDBRANCH  14  34
ENDBRANCH  11  14
ENDBRANCH  10  11
ENDBRANCH   5  10
BRANCH   1  38
ATOM     38  C15 A53 d   1      -7.281   8.448 -17.195  0.00  0.00    -0.024 A 
ATOM     39  C14 A53 d   1      -8.109   9.474 -17.695  0.00  0.00    -0.070 A 
ATOM     40  C13 A53 d   1      -7.627  10.436 -18.610  0.00  0.00    -0.056 A 
ATOM     41  H10 A53 d   1      -9.142   9.526 -17.369  0.00  0.00     0.084 H 
ATOM     42  C10 A53 d   1      -6.245  10.445 -19.099  0.00  0.00     0.042 A 
ATOM     43  H9  A53 d   1      -8.308  11.200 -18.966  0.00  0.00     0.087 H 
ATOM     44  N9  A53 d   1      -5.497  11.236 -19.979  0.00  0.00    -0.326 N 
ATOM     45  C11 A53 d   1      -5.376   9.389 -18.587  0.00  0.00    -0.017 A 
ATOM     46  C8  A53 d   1      -4.237  10.815 -20.087  0.00  0.00     0.231 A 
ATOM     47  H8  A53 d   1      -5.865  12.026 -20.470  0.00  0.00     0.169 HD
ATOM     48  C7  A53 d   1      -4.065   9.603 -19.212  0.00  0.00     0.056 A 
ATOM     49  O12 A53 d   1      -3.367  11.316 -20.784  0.00  0.00    -0.272 OA
ATOM     50  H7  A53 d   1      -4.298   8.937 -20.056  0.00  0.00     0.062 H 
ATOM     51  C16 A53 d   1      -5.937   8.423 -17.644  0.00  0.00    -0.063 A 
ATOM     52  H11 A53 d   1      -5.287   7.642 -17.266  0.00  0.00     0.085 H 
BRANCH  48  53
ATOM     53  C6  A53 d   1      -2.871   8.733 -18.938  0.00  0.00    -0.011 C 
ATOM     54  H5  A53 d   1      -2.729   8.790 -17.849  0.00  0.00     0.043 H 
ATOM     55  H6  A53 d   1      -3.196   7.719 -19.213  0.00  0.00     0.043 H 
BRANCH  53  56
ATOM     56  C1  A53 d   1      -1.512   8.854 -19.498  0.00  0.00     0.010 A 
ATOM     57  C2  A53 d   1      -0.524   7.951 -19.404  0.00  0.00    -0.060 A 
ATOM     58  C3  A53 d   1       0.666   8.433 -20.119  0.00  0.00    -0.066 A 
ATOM     59  H1  A53 d   1      -0.594   7.001 -18.876  0.00  0.00     0.086 H 
ATOM     60  C4  A53 d   1       0.412   9.637 -20.652  0.00  0.00    -0.023 A 
ATOM     61  H2  A53 d   1       1.609   7.895 -20.203  0.00  0.00     0.085 H 
ATOM     62  N5  A53 d   1      -0.973   9.968 -20.288  0.00  0.00    -0.369 N 
ATOM     63  H3  A53 d   1       1.096  10.248 -21.238  0.00  0.00     0.111 H 
ATOM     64  H4  A53 d   1      -1.477  10.830 -20.542  0.00  0.00     0.165 HD
ENDBRANCH  53  56
ENDBRANCH  48  53
ENDBRANCH   1  38
TORSDOF 9
