REMARK  5 active torsions:
REMARK  status: ('A' for Active; 'I' for Inactive)
REMARK    1  A    between atoms: C1_1  and  C17_17 
REMARK    2  A    between atoms: C12_12  and  O13_13 
REMARK    3  A    between atoms: C17_17  and  C18_18 
REMARK    4  A    between atoms: C18_18  and  C19_19 
REMARK    5  A    between atoms: C19_19  and  C20_20 
ROOT
ATOM      1  C1  FBR d   1      22.921   9.037 115.333  0.00  0.00    -0.007 C 
ATOM      2  C2  FBR d   1      22.445   8.085 116.450  0.00  0.00    -0.047 C 
ATOM      3  C3  FBR d   1      20.907   8.195 116.503  0.00  0.00    -0.004 C 
ATOM      4  C4  FBR d   1      20.347   7.794 115.154  0.00  0.00     0.167 C 
ATOM      5  O5  FBR d   1      19.241   7.318 115.104  0.00  0.00    -0.292 OA
ATOM      6  C6  FBR d   1      21.143   8.022 113.926  0.00  0.00     0.064 C 
ATOM      7 BR7  FBR d   1      20.409   7.196 112.522  0.00  0.00    -0.046 Br
ATOM      8  C8  FBR d   1      22.349   8.625 113.999  0.00  0.00    -0.017 C 
ATOM      9  C9  FBR d   1      23.407   8.737 112.972  0.00  0.00    -0.021 A 
ATOM     10  C10 FBR d   1      23.358   8.678 111.575  0.00  0.00    -0.069 A 
ATOM     11  C11 FBR d   1      24.547   8.853 110.857  0.00  0.00    -0.050 A 
ATOM     12  C12 FBR d   1      25.774   9.026 111.525  0.00  0.00     0.066 A 
ATOM     13  C14 FBR d   1      25.812   9.060 112.924  0.00  0.00    -0.044 A 
ATOM     14  C15 FBR d   1      24.615   8.951 113.635  0.00  0.00    -0.044 A 
ATOM     15  C16 FBR d   1      24.446   9.022 115.134  0.00  0.00    -0.029 C 
ATOM     16  H1  FBR d   1      22.880   8.386 117.415  0.00  0.00     0.035 H 
ATOM     17  H2  FBR d   1      22.743   7.052 116.219  0.00  0.00     0.035 H 
ATOM     18  H3  FBR d   1      20.617   9.231 116.731  0.00  0.00     0.044 H 
ATOM     19  H4  FBR d   1      20.514   7.524 117.281  0.00  0.00     0.044 H 
ATOM     20  H5  FBR d   1      22.421   8.501 111.060  0.00  0.00     0.085 H 
ATOM     21  H6  FBR d   1      24.523   8.855 109.773  0.00  0.00     0.087 H 
ATOM     22  H8  FBR d   1      26.755   9.169 113.447  0.00  0.00     0.088 H 
ATOM     23  H9  FBR d   1      24.896   8.144 115.621  0.00  0.00     0.041 H 
ATOM     24  H10 FBR d   1      24.902   9.938 115.537  0.00  0.00     0.041 H 
ENDROOT
BRANCH   1  25
ATOM     25  C17 FBR d   1      22.413  10.482 115.521  0.00  0.00    -0.054 C 
ATOM     26  H11 FBR d   1      21.346  10.437 115.786  0.00  0.00     0.034 H 
ATOM     27  H12 FBR d   1      22.531  11.012 114.564  0.00  0.00     0.034 H 
BRANCH  25  28
ATOM     28  C18 FBR d   1      23.137  11.290 116.604  0.00  0.00    -0.064 C 
ATOM     29  H13 FBR d   1      23.965  11.840 116.134  0.00  0.00     0.033 H 
ATOM     30  H14 FBR d   1      23.539  10.590 117.351  0.00  0.00     0.033 H 
BRANCH  28  31
ATOM     31  C19 FBR d   1      22.229  12.296 117.319  0.00  0.00    -0.069 C 
ATOM     32  H15 FBR d   1      21.303  11.802 117.649  0.00  0.00     0.032 H 
ATOM     33  H16 FBR d   1      21.981  13.128 116.644  0.00  0.00     0.032 H 
BRANCH  31  34
ATOM     34  C20 FBR d   1      23.016  12.819 118.540  0.00  0.00    -0.077 C 
ATOM     35  H17 FBR d   1      22.401  13.548 119.088  0.00  0.00     0.027 H 
ATOM     36  H18 FBR d   1      23.943  13.304 118.199  0.00  0.00     0.027 H 
ATOM     37  H19 FBR d   1      23.265  11.978 119.204  0.00  0.00     0.027 H 
ENDBRANCH  31  34
ENDBRANCH  28  31
ENDBRANCH  25  28
ENDBRANCH   1  25
BRANCH  12  38
ATOM     38  O13 FBR d   1      26.927   9.109 110.839  0.00  0.00    -0.361 OA
ATOM     39  H7  FBR d   1      26.889   9.851 110.247  0.00  0.00     0.217 HD
ENDBRANCH  12  38
TORSDOF 5
