REMARK  3 active torsions:
REMARK  status: ('A' for Active; 'I' for Inactive)
REMARK    1  A    between atoms: O1_1  and  C1_2 
REMARK    2  A    between atoms: C9_10  and  N1_11 
REMARK       I    between atoms: N1_11  and  C10_12 
REMARK    3  A    between atoms: C10_12  and  C11_14 
ROOT
ATOM      1  C1  2TH d   1      13.535 110.797  29.681  0.00  0.00     0.081 C 
ATOM      2  C2  2TH d   1      13.879 110.176  31.006  0.00  0.00    -0.021 A 
ATOM      3  C3  2TH d   1      13.031 109.083  31.237  0.00  0.00    -0.047 A 
ATOM      4  C4  2TH d   1      13.132 108.325  32.406  0.00  0.00    -0.076 A 
ATOM      5  C5  2TH d   1      14.103 108.684  33.352  0.00  0.00    -0.082 A 
ATOM      6  C6  2TH d   1      14.953 109.786  33.123  0.00  0.00    -0.082 A 
ATOM      7  C7  2TH d   1      14.840 110.546  31.946  0.00  0.00    -0.074 A 
ATOM      8  C8  2TH d   1      12.096 108.902  30.073  0.00  0.00    -0.019 C 
ATOM      9  C9  2TH d   1      12.935 109.571  28.954  0.00  0.00     0.045 C 
ATOM     10  H2  2TH d   1      12.791 111.598  29.800  0.00  0.00     0.093 H 
ATOM     11  H3  2TH d   1      12.476 107.480  32.578  0.00  0.00     0.084 H 
ATOM     12  H4  2TH d   1      14.201 108.110  34.266  0.00  0.00     0.083 H 
ATOM     13  H5  2TH d   1      15.701 110.049  33.862  0.00  0.00     0.083 H 
ATOM     14  H6  2TH d   1      15.485 111.400  31.773  0.00  0.00     0.084 H 
ATOM     15  H7  2TH d   1      11.139 109.421  30.232  0.00  0.00     0.043 H 
ATOM     16  H8  2TH d   1      11.906 107.839  29.862  0.00  0.00     0.043 H 
ATOM     17  H9  2TH d   1      13.752 108.898  28.657  0.00  0.00     0.077 H 
ENDROOT
BRANCH   9  18
ATOM     18  N1  2TH d   1      12.155 109.861  27.733  0.00  0.00    -0.348 N 
ATOM     19  C10 2TH d   1      12.607 109.579  26.446  0.00  0.00     0.268 C 
ATOM     20  O2  2TH d   1      13.723 109.073  26.281  0.00  0.00    -0.266 OA
ATOM     21  H10 2TH d   1      11.254 110.282  27.836  0.00  0.00     0.163 HD
BRANCH  19  22
ATOM     22  C11 2TH d   1      11.740 109.851  25.295  0.00  0.00     0.102 A 
ATOM     23  C12 2TH d   1      10.532 110.569  25.116  0.00  0.00    -0.039 A 
ATOM     24  C13 2TH d   1      10.189 110.431  23.764  0.00  0.00     0.002 A 
ATOM     25  H11 2TH d   1       9.980 111.119  25.877  0.00  0.00     0.088 H 
ATOM     26  C14 2TH d   1      11.105 109.674  23.141  0.00  0.00     0.086 A 
ATOM     27  C16 2TH d   1       9.147 110.875  22.927  0.00  0.00    -0.043 A 
ATOM     28  S1  2TH d   1      10.814 109.422  21.515  0.00  0.00    -0.059 SA
ATOM     29  N2  2TH d   1      12.038 109.315  24.048  0.00  0.00    -0.345 N 
ATOM     30  C15 2TH d   1       9.379 110.386  21.643  0.00  0.00     0.077 A 
ATOM     31 CL1  2TH d   1       8.431 110.617  20.214  0.00  0.00    -0.076 Cl
ATOM     32  H13 2TH d   1      12.857 108.725  23.844  0.00  0.00     0.167 HD
ATOM     33  H12 2TH d   1       8.304 111.494  23.231  0.00  0.00     0.088 H 
ENDBRANCH  19  22
ENDBRANCH   9  18
BRANCH   1  34
ATOM     34  O1  2TH d   1      14.658 111.314  28.995  0.00  0.00    -0.389 OA
ATOM     35  H1  2TH d   1      15.277 110.613  28.830  0.00  0.00     0.210 HD
ENDBRANCH   1  34
TORSDOF 3
