REMARK  11 active torsions:
REMARK  status: ('A' for Active; 'I' for Inactive)
REMARK    1  A    between atoms: C11_3  and  C9_2 
REMARK    2  A    between atoms: C9_2  and  C4_12 
REMARK    3  A    between atoms: C9_2  and  N38_23 
REMARK    4  A    between atoms: C23_19  and  N22_18 
REMARK    5  A    between atoms: C23_19  and  C26_20 
REMARK    6  A    between atoms: N38_23  and  C39_24 
REMARK       I    between atoms: N38_23  and  C51_28 
REMARK    7  A    between atoms: C39_24  and  C42_25 
REMARK    8  A    between atoms: C42_25  and  C45_26 
REMARK    9  A    between atoms: C45_26  and  N48_27 
REMARK   10  A    between atoms: C51_28  and  C53_30 
REMARK   11  A    between atoms: C58_33  and  C63_36 
ROOT
ATOM      1  C9  2AZ d   1       7.892  39.769  30.709  0.00  0.00     0.077 C 
ATOM      2  H3  2AZ d   1       8.674  40.400  30.262  0.00  0.00     0.086 H 
ENDROOT
BRANCH   1   3
ATOM      3  C11 2AZ d   1       7.979  38.335  30.064  0.00  0.00     0.153 A 
ATOM      4  N12 2AZ d   1       6.882  37.507  30.167  0.00  0.00    -0.151 NA
ATOM      5  N13 2AZ d   1       6.906  36.317  29.807  0.00  0.00    -0.236 N 
ATOM      6  C14 2AZ d   1       8.067  35.762  29.193  0.00  0.00     0.147 A 
ATOM      7  C18 2AZ d   1       5.864  35.294  29.883  0.00  0.00     0.006 A 
ATOM      8  C15 2AZ d   1       7.772  34.493  28.900  0.00  0.00     0.069 A 
ATOM      9  C21 2AZ d   1       9.236  36.608  28.965  0.00  0.00     0.280 A 
ATOM     10  C16 2AZ d   1       6.417  34.196  29.333  0.00  0.00    -0.043 A 
ATOM     11 CL2  2AZ d   1       8.761  33.430  28.065  0.00  0.00    -0.082 Cl
ATOM     12  H4  2AZ d   1       5.923  33.231  29.229  0.00  0.00     0.088 H 
ATOM     13  N22 2AZ d   1       9.126  37.883  29.419  0.00  0.00    -0.293 N 
ATOM     14  O37 2AZ d   1      10.238  36.185  28.398  0.00  0.00    -0.265 OA
ATOM     15  H12 2AZ d   1       4.861  35.397  30.294  0.00  0.00     0.114 H 
BRANCH  13  16
ATOM     16  C23 2AZ d   1      10.268  38.738  29.166  0.00  0.00     0.028 C 
ATOM     17  H13 2AZ d   1      11.140  38.109  28.933  0.00  0.00     0.072 H 
ATOM     18  H14 2AZ d   1      10.475  39.333  30.068  0.00  0.00     0.072 H 
BRANCH  16  19
ATOM     19  C26 2AZ d   1      10.019  39.664  28.021  0.00  0.00    -0.040 A 
ATOM     20  C27 2AZ d   1      10.209  41.044  28.194  0.00  0.00    -0.075 A 
ATOM     21  C29 2AZ d   1      10.035  41.906  27.109  0.00  0.00    -0.082 A 
ATOM     22  H5  2AZ d   1      10.489  41.438  29.164  0.00  0.00     0.084 H 
ATOM     23  C31 2AZ d   1       9.672  41.403  25.846  0.00  0.00    -0.083 A 
ATOM     24  H15 2AZ d   1      10.181  42.972  27.241  0.00  0.00     0.083 H 
ATOM     25  C33 2AZ d   1       9.500  40.026  25.659  0.00  0.00    -0.082 A 
ATOM     26  H6  2AZ d   1       9.525  42.084  25.015  0.00  0.00     0.083 H 
ATOM     27  C35 2AZ d   1       9.661  39.165  26.753  0.00  0.00    -0.075 A 
ATOM     28  H7  2AZ d   1       9.246  39.632  24.682  0.00  0.00     0.083 H 
ATOM     29  H8  2AZ d   1       9.508  38.100  26.622  0.00  0.00     0.084 H 
ENDBRANCH  16  19
ENDBRANCH  13  16
ENDBRANCH   1   3
BRANCH   1  30
ATOM     30  C4  2AZ d   1       6.523  40.357  30.309  0.00  0.00    -0.027 A 
ATOM     31  C1  2AZ d   1       6.397  40.807  28.906  0.00  0.00    -0.059 A 
ATOM     32  C6  2AZ d   1       6.372  41.806  30.022  0.00  0.00    -0.059 A 
ATOM     33  H1  2AZ d   1       5.479  40.592  28.339  0.00  0.00     0.033 H 
ATOM     34  H2  2AZ d   1       7.265  40.757  28.232  0.00  0.00     0.033 H 
ATOM     35  H10 2AZ d   1       5.436  42.324  30.277  0.00  0.00     0.033 H 
ATOM     36  H11 2AZ d   1       7.221  42.489  30.170  0.00  0.00     0.033 H 
ATOM     37  H9  2AZ d   1       5.711  39.811  30.811  0.00  0.00     0.043 H 
ENDBRANCH   1  30
BRANCH   1  38
ATOM     38  N38 2AZ d   1       8.157  39.731  32.219  0.00  0.00    -0.336 N 
ATOM     39  C51 2AZ d   1       9.135  40.441  32.932  0.00  0.00     0.254 C 
ATOM     40  O52 2AZ d   1       9.188  40.344  34.153  0.00  0.00    -0.267 OA
BRANCH  38  41
ATOM     41  C39 2AZ d   1       7.214  38.943  33.078  0.00  0.00     0.000 C 
ATOM     42  H16 2AZ d   1       6.614  38.321  32.397  0.00  0.00     0.064 H 
ATOM     43  H17 2AZ d   1       6.561  39.673  33.579  0.00  0.00     0.064 H 
BRANCH  41  44
ATOM     44  C42 2AZ d   1       7.760  37.983  34.201  0.00  0.00    -0.028 C 
ATOM     45  H18 2AZ d   1       7.059  37.141  34.295  0.00  0.00     0.037 H 
ATOM     46  H19 2AZ d   1       7.785  38.547  35.145  0.00  0.00     0.037 H 
BRANCH  44  47
ATOM     47  C45 2AZ d   1       9.153  37.408  33.963  0.00  0.00     0.081 C 
ATOM     48  H20 2AZ d   1       9.889  38.073  34.439  0.00  0.00     0.075 H 
ATOM     49  H21 2AZ d   1       9.335  37.377  32.879  0.00  0.00     0.075 H 
BRANCH  47  50
ATOM     50  N48 2AZ d   1       9.334  36.073  34.494  0.00  0.00    -0.079 N 
ATOM     51  H22 2AZ d   1      10.272  35.759  34.301  0.00  0.00     0.274 HD
ATOM     52  H23 2AZ d   1       8.674  35.447  34.060  0.00  0.00     0.274 HD
ATOM     53  H24 2AZ d   1       9.182  36.084  35.490  0.00  0.00     0.274 HD
ENDBRANCH  47  50
ENDBRANCH  44  47
ENDBRANCH  41  44
ENDBRANCH  38  41
BRANCH  39  54
ATOM     54  C53 2AZ d   1      10.112  41.311  32.247  0.00  0.00     0.032 A 
ATOM     55  C54 2AZ d   1      11.361  40.785  31.863  0.00  0.00    -0.067 A 
ATOM     56  C56 2AZ d   1      12.294  41.621  31.211  0.00  0.00    -0.076 A 
ATOM     57  H25 2AZ d   1      11.604  39.748  32.066  0.00  0.00     0.085 H 
ATOM     58  C58 2AZ d   1      12.010  42.989  30.964  0.00  0.00    -0.062 A 
ATOM     59  H26 2AZ d   1      13.245  41.210  30.893  0.00  0.00     0.084 H 
ATOM     60  C59 2AZ d   1      10.753  43.509  31.346  0.00  0.00    -0.076 A 
ATOM     61  C61 2AZ d   1       9.813  42.683  31.990  0.00  0.00    -0.067 A 
ATOM     62  H27 2AZ d   1      10.512  44.546  31.143  0.00  0.00     0.084 H 
ATOM     63  H28 2AZ d   1       8.856  43.091  32.293  0.00  0.00     0.085 H 
BRANCH  58  64
ATOM     64  C63 2AZ d   1      13.052  43.868  30.340  0.00  0.00    -0.051 C 
ATOM     65  H29 2AZ d   1      13.950  43.272  30.120  0.00  0.00     0.033 H 
ATOM     66  H30 2AZ d   1      13.312  44.679  31.036  0.00  0.00     0.033 H 
ATOM     67  H31 2AZ d   1      12.659  44.297  29.407  0.00  0.00     0.033 H 
ENDBRANCH  58  64
ENDBRANCH  39  54
ENDBRANCH   1  38
TORSDOF 11
