REMARK  2 active torsions:
REMARK  status: ('A' for Active; 'I' for Inactive)
REMARK    1  A    between atoms: C6_6  and  C11_10 
REMARK       I    between atoms: C11_10  and  N13_12 
REMARK    2  A    between atoms: N13_12  and  C14_13 
ROOT
ATOM      1  C14 3TH d   1      12.818 108.469  28.837  0.00  0.00     0.094 C 
ATOM      2  C15 3TH d   1      12.053 107.928  30.048  0.00  0.00    -0.012 C 
ATOM      3  C16 3TH d   1      12.941 107.898  31.273  0.00  0.00    -0.029 A 
ATOM      4  C17 3TH d   1      12.836 106.885  32.247  0.00  0.00    -0.075 A 
ATOM      5  C18 3TH d   1      13.690 106.868  33.350  0.00  0.00    -0.082 A 
ATOM      6  C19 3TH d   1      14.655 107.877  33.521  0.00  0.00    -0.081 A 
ATOM      7  C20 3TH d   1      14.774 108.910  32.579  0.00  0.00    -0.057 A 
ATOM      8  C21 3TH d   1      13.919 108.914  31.461  0.00  0.00     0.041 A 
ATOM      9  N22 3TH d   1      14.053 109.911  30.490  0.00  0.00    -0.325 N 
ATOM     10  C23 3TH d   1      13.561 109.766  29.210  0.00  0.00     0.245 C 
ATOM     11  O24 3TH d   1      13.734 110.671  28.410  0.00  0.00    -0.271 OA
ATOM     12  H5  3TH d   1      13.572 107.712  28.576  0.00  0.00     0.088 H 
ATOM     13  H6  3TH d   1      11.706 106.907  29.829  0.00  0.00     0.044 H 
ATOM     14  H7  3TH d   1      11.186 108.576  30.246  0.00  0.00     0.044 H 
ATOM     15  H8  3TH d   1      12.084 106.112  32.138  0.00  0.00     0.084 H 
ATOM     16  H9  3TH d   1      13.609 106.071  34.081  0.00  0.00     0.083 H 
ATOM     17  H10 3TH d   1      15.310 107.856  34.385  0.00  0.00     0.083 H 
ATOM     18  H11 3TH d   1      15.513 109.692  32.710  0.00  0.00     0.086 H 
ATOM     19  H12 3TH d   1      14.523 110.760  30.733  0.00  0.00     0.169 HD
ENDROOT
BRANCH   1  20
ATOM     20  N13 3TH d   1      12.003 108.699  27.623  0.00  0.00    -0.342 N 
ATOM     21  C11 3TH d   1      12.483 108.490  26.322  0.00  0.00     0.269 C 
ATOM     22  O12 3TH d   1      13.650 108.082  26.108  0.00  0.00    -0.266 OA
ATOM     23  H4  3TH d   1      11.063 109.020  27.736  0.00  0.00     0.163 HD
BRANCH  21  24
ATOM     24  C6  3TH d   1      11.602 108.731  25.152  0.00  0.00     0.102 A 
ATOM     25  C5  3TH d   1      10.388 109.425  24.959  0.00  0.00    -0.039 A 
ATOM     26  C4  3TH d   1      10.094 109.270  23.591  0.00  0.00     0.002 A 
ATOM     27  H2  3TH d   1       9.806 109.963  25.706  0.00  0.00     0.088 H 
ATOM     28  C3  3TH d   1       9.073 109.690  22.738  0.00  0.00    -0.043 A 
ATOM     29  C9  3TH d   1      11.033 108.537  22.975  0.00  0.00     0.086 A 
ATOM     30  C2  3TH d   1       9.365 109.208  21.450  0.00  0.00     0.077 A 
ATOM     31  H1  3TH d   1       8.205 110.285  23.020  0.00  0.00     0.088 H 
ATOM     32 CL   3TH d   1       8.409 109.423  20.019  0.00  0.00    -0.076 Cl
ATOM     33  S10 3TH d   1      10.821 108.261  21.332  0.00  0.00    -0.059 SA
ATOM     34  N7  3TH d   1      11.934 108.210  23.901  0.00  0.00    -0.345 N 
ATOM     35  H3  3TH d   1      12.773 107.642  23.716  0.00  0.00     0.167 HD
ENDBRANCH  21  24
ENDBRANCH   1  20
TORSDOF 2
