REMARK  6 active torsions:
REMARK  status: ('A' for Active; 'I' for Inactive)
REMARK    1  A    between atoms: P_1  and  O5'_5 
REMARK    2  A    between atoms: O5'_5  and  C5'_6 
REMARK    3  A    between atoms: C5'_6  and  C4'_7 
REMARK    4  A    between atoms: C3'_9  and  O3'_10 
REMARK    5  A    between atoms: C2'_11  and  O2'_12 
REMARK    6  A    between atoms: C1'_13  and  N9_14 
ROOT
ATOM      1  C4' AMP d   1     -22.392  -1.044  -1.449  0.00  0.00     0.089 C 
ATOM      2  O4' AMP d   1     -22.124  -2.315  -0.851  0.00  0.00    -0.353 OA
ATOM      3  C3' AMP d   1     -21.873   0.012  -0.488  0.00  0.00     0.091 C 
ATOM      4  C2' AMP d   1     -21.855  -0.678   0.860  0.00  0.00     0.105 C 
ATOM      5  C1' AMP d   1     -21.937  -2.166   0.556  0.00  0.00     0.139 C 
ATOM      6  H3  AMP d   1     -23.474  -0.912  -1.595  0.00  0.00     0.090 H 
ATOM      7  H4  AMP d   1     -20.853   0.310  -0.772  0.00  0.00     0.091 H 
ATOM      8  H6  AMP d   1     -20.920  -0.446   1.391  0.00  0.00     0.093 H 
ATOM      9  H8  AMP d   1     -22.789  -2.618   1.085  0.00  0.00     0.122 H 
ENDROOT
BRANCH   5  10
ATOM     10  N9  AMP d   1     -20.677  -2.786   1.033  0.00  0.00    -0.294 N 
ATOM     11  C8  AMP d   1     -19.531  -2.971   0.342  0.00  0.00     0.071 A 
ATOM     12  N7  AMP d   1     -18.590  -3.565   1.127  0.00  0.00    -0.236 NA
ATOM     13  H9  AMP d   1     -19.381  -2.685  -0.698  0.00  0.00     0.144 H 
ATOM     14  C5  AMP d   1     -19.142  -3.762   2.346  0.00  0.00     0.149 A 
ATOM     15  C6  AMP d   1     -18.720  -4.341   3.648  0.00  0.00     0.155 A 
ATOM     16  C4  AMP d   1     -20.516  -3.243   2.277  0.00  0.00     0.167 A 
ATOM     17  N6  AMP d   1     -17.476  -4.844   3.824  0.00  0.00    -0.382 N 
ATOM     18  N1  AMP d   1     -19.614  -4.349   4.664  0.00  0.00    -0.222 NA
ATOM     19  H10 AMP d   1     -17.205  -5.240   4.735  0.00  0.00     0.157 HD
ATOM     20  H11 AMP d   1     -16.800  -4.830   3.047  0.00  0.00     0.157 HD
ATOM     21  C2  AMP d   1     -20.861  -3.855   4.523  0.00  0.00     0.091 A 
ATOM     22  N3  AMP d   1     -21.317  -3.318   3.378  0.00  0.00    -0.222 NA
ATOM     23  H12 AMP d   1     -21.529  -3.893   5.376  0.00  0.00     0.146 H 
ENDBRANCH   5  10
BRANCH   4  24
ATOM     24  O2' AMP d   1     -22.970  -0.279   1.673  0.00  0.00    -0.388 OA
ATOM     25  H7  AMP d   1     -22.937   0.660   1.815  0.00  0.00     0.210 HD
ENDBRANCH   4  24
BRANCH   1  26
ATOM     26  C5' AMP d   1     -21.694  -0.978  -2.795  0.00  0.00     0.059 C 
ATOM     27  H1  AMP d   1     -22.008  -0.073  -3.336  0.00  0.00     0.079 H 
ATOM     28  H2  AMP d   1     -20.604  -0.960  -2.652  0.00  0.00     0.079 H 
BRANCH  26  29
ATOM     29  O5' AMP d   1     -22.069  -2.141  -3.532  0.00  0.00    -0.280 OA
BRANCH  29  30
ATOM     30  P   AMP d   1     -22.554  -2.032  -5.063  0.00  0.00     0.422 P 
ATOM     31  O1P AMP d   1     -22.704  -3.478  -5.485  0.00  0.00    -0.617 OA
ATOM     32  O2P AMP d   1     -23.860  -1.260  -5.003  0.00  0.00    -0.617 OA
ATOM     33  O3P AMP d   1     -21.407  -1.317  -5.744  0.00  0.00    -0.617 OA
ENDBRANCH  29  30
ENDBRANCH  26  29
ENDBRANCH   1  26
BRANCH   3  34
ATOM     34  O3' AMP d   1     -22.704   1.179  -0.479  0.00  0.00    -0.390 OA
ATOM     35  H5  AMP d   1     -23.583   0.938  -0.211  0.00  0.00     0.210 HD
ENDBRANCH   3  34
TORSDOF 6
