REMARK  12 active torsions:
REMARK  status: ('A' for Active; 'I' for Inactive)
REMARK    1  A    between atoms: S1_2  and  C1_4 
REMARK    2  A    between atoms: S1_2  and  N4_10 
REMARK    3  A    between atoms: N5_6  and  C4_7 
REMARK    4  A    between atoms: N4_10  and  C8_11 
REMARK    5  A    between atoms: C5_16  and  C16_17 
REMARK    6  A    between atoms: C16_17  and  C14_18 
REMARK    7  A    between atoms: N53_25  and  C59_26 
REMARK    8  A    between atoms: C59_26  and  C10_27 
REMARK    9  A    between atoms: C10_27  and  C11_28 
REMARK   10  A    between atoms: C11_28  and  C12_29 
REMARK   11  A    between atoms: N51_32  and  C17_33 
REMARK   12  A    between atoms: C17_33  and  C18_34 
ROOT
ATOM      1  C14 UN8 d   1      21.907  -6.699  39.494  0.00  0.00     0.110 A 
ATOM      2  N15 UN8 d   1      23.130  -7.225  39.051  0.00  0.00    -0.226 NA
ATOM      3  C55 UN8 d   1      23.689  -6.285  38.185  0.00  0.00     0.171 A 
ATOM      4  C56 UN8 d   1      24.918  -6.355  37.399  0.00  0.00     0.284 C 
ATOM      5  O57 UN8 d   1      25.720  -7.294  37.439  0.00  0.00    -0.265 OA
ATOM      6  C54 UN8 d   1      22.780  -5.181  38.146  0.00  0.00     0.148 A 
ATOM      7  N13 UN8 d   1      21.681  -5.456  38.973  0.00  0.00    -0.328 N 
ATOM      8  N53 UN8 d   1      23.077  -4.062  37.374  0.00  0.00    -0.283 N 
ATOM      9  C52 UN8 d   1      24.267  -4.127  36.583  0.00  0.00     0.333 C 
ATOM     10  O58 UN8 d   1      24.561  -3.149  35.858  0.00  0.00    -0.246 OA
ATOM     11  N51 UN8 d   1      25.219  -5.195  36.685  0.00  0.00    -0.260 N 
ATOM     12  H13 UN8 d   1      20.870  -4.846  39.151  0.00  0.00     0.169 HD
ENDROOT
BRANCH   1  13
ATOM     13  C16 UN8 d   1      20.995  -7.378  40.498  0.00  0.00     0.014 C 
ATOM     14  H11 UN8 d   1      19.956  -7.064  40.321  0.00  0.00     0.051 H 
ATOM     15  H12 UN8 d   1      21.072  -8.469  40.385  0.00  0.00     0.051 H 
BRANCH  13  16
ATOM     16  C5  UN8 d   1      21.407  -6.988  41.889  0.00  0.00    -0.051 A 
ATOM     17  C30 UN8 d   1      22.180  -7.808  42.722  0.00  0.00    -0.074 A 
ATOM     18  C9  UN8 d   1      22.611  -7.396  43.987  0.00  0.00    -0.056 A 
ATOM     19  H8  UN8 d   1      22.454  -8.797  42.373  0.00  0.00     0.084 H 
ATOM     20  C8  UN8 d   1      22.327  -6.105  44.515  0.00  0.00     0.042 A 
ATOM     21  H7  UN8 d   1      23.186  -8.089  44.591  0.00  0.00     0.087 H 
ATOM     22  C7  UN8 d   1      21.577  -5.284  43.649  0.00  0.00    -0.056 A 
ATOM     23  C6  UN8 d   1      21.133  -5.706  42.399  0.00  0.00    -0.074 A 
ATOM     24  H9  UN8 d   1      21.335  -4.278  43.971  0.00  0.00     0.087 H 
ATOM     25  H10 UN8 d   1      20.553  -5.019  41.794  0.00  0.00     0.084 H 
BRANCH  20  26
ATOM     26  N4  UN8 d   1      22.818  -5.647  45.766  0.00  0.00    -0.279 N 
ATOM     27  H6  UN8 d   1      23.012  -6.359  46.441  0.00  0.00     0.179 HD
BRANCH  26  28
ATOM     28  S1  UN8 d   1      23.120  -4.054  46.272  0.00  0.00     0.282 S 
ATOM     29  O2  UN8 d   1      21.884  -3.389  46.281  0.00  0.00    -0.199 OA
ATOM     30  O1  UN8 d   1      23.936  -4.324  47.372  0.00  0.00    -0.199 OA
BRANCH  28  31
ATOM     31  C1  UN8 d   1      24.207  -3.265  45.103  0.00  0.00     0.188 A 
ATOM     32  C2  UN8 d   1      24.162  -2.016  44.404  0.00  0.00     0.021 A 
ATOM     33  N5  UN8 d   1      25.401  -1.760  43.802  0.00  0.00    -0.353 N 
ATOM     34  H1  UN8 d   1      23.293  -1.362  44.349  0.00  0.00     0.116 H 
ATOM     35  C3  UN8 d   1      26.243  -2.812  44.227  0.00  0.00     0.067 A 
ATOM     36  N7  UN8 d   1      25.572  -3.653  45.036  0.00  0.00    -0.229 NA
ATOM     37  H5  UN8 d   1      27.287  -2.926  43.941  0.00  0.00     0.143 H 
BRANCH  33  38
ATOM     38  C4  UN8 d   1      25.778  -0.654  42.961  0.00  0.00    -0.014 C 
ATOM     39  H2  UN8 d   1      26.830  -0.765  42.660  0.00  0.00     0.057 H 
ATOM     40  H3  UN8 d   1      25.652   0.288  43.515  0.00  0.00     0.057 H 
ATOM     41  H4  UN8 d   1      25.140  -0.640  42.065  0.00  0.00     0.057 H 
ENDBRANCH  33  38
ENDBRANCH  28  31
ENDBRANCH  26  28
ENDBRANCH  20  26
ENDBRANCH  13  16
ENDBRANCH   1  13
BRANCH   8  42
ATOM     42  C59 UN8 d   1      22.116  -2.986  37.132  0.00  0.00     0.006 C 
ATOM     43  H14 UN8 d   1      22.644  -2.022  37.162  0.00  0.00     0.065 H 
ATOM     44  H15 UN8 d   1      21.349  -3.008  37.920  0.00  0.00     0.065 H 
BRANCH  42  45
ATOM     45  C10 UN8 d   1      21.434  -3.138  35.769  0.00  0.00    -0.050 C 
ATOM     46  H16 UN8 d   1      20.800  -4.036  35.804  0.00  0.00     0.035 H 
ATOM     47  H17 UN8 d   1      22.218  -3.272  35.009  0.00  0.00     0.035 H 
BRANCH  45  48
ATOM     48  C11 UN8 d   1      20.568  -1.970  35.348  0.00  0.00    -0.067 C 
ATOM     49  H18 UN8 d   1      21.169  -1.049  35.335  0.00  0.00     0.032 H 
ATOM     50  H19 UN8 d   1      19.733  -1.853  36.055  0.00  0.00     0.032 H 
BRANCH  48  51
ATOM     51  C12 UN8 d   1      20.028  -2.246  33.964  0.00  0.00    -0.076 C 
ATOM     52  H20 UN8 d   1      19.395  -1.405  33.643  0.00  0.00     0.027 H 
ATOM     53  H21 UN8 d   1      19.430  -3.169  33.981  0.00  0.00     0.027 H 
ATOM     54  H22 UN8 d   1      20.865  -2.365  33.261  0.00  0.00     0.027 H 
ENDBRANCH  48  51
ENDBRANCH  45  48
ENDBRANCH  42  45
ENDBRANCH   8  42
BRANCH  11  55
ATOM     55  C17 UN8 d   1      26.205  -5.146  35.618  0.00  0.00     0.034 C 
ATOM     56  H23 UN8 d   1      25.849  -4.452  34.842  0.00  0.00     0.072 H 
ATOM     57  H24 UN8 d   1      26.309  -6.154  35.189  0.00  0.00     0.072 H 
BRANCH  55  58
ATOM     58  C18 UN8 d   1      27.548  -4.687  36.091  0.00  0.00    -0.001 A 
ATOM     59  C19 UN8 d   1      28.709  -5.425  35.822  0.00  0.00     0.124 A 
ATOM     60  F24 UN8 d   1      28.614  -6.574  35.118  0.00  0.00    -0.205 F 
ATOM     61  C20 UN8 d   1      29.970  -4.972  36.251  0.00  0.00    -0.045 A 
ATOM     62  C21 UN8 d   1      30.077  -3.789  36.974  0.00  0.00    -0.080 A 
ATOM     63  H25 UN8 d   1      30.860  -5.546  36.018  0.00  0.00     0.088 H 
ATOM     64  C22 UN8 d   1      28.929  -3.047  37.256  0.00  0.00    -0.082 A 
ATOM     65  H26 UN8 d   1      31.046  -3.445  37.317  0.00  0.00     0.083 H 
ATOM     66  C23 UN8 d   1      27.684  -3.490  36.812  0.00  0.00    -0.072 A 
ATOM     67  H27 UN8 d   1      29.006  -2.125  37.821  0.00  0.00     0.083 H 
ATOM     68  H28 UN8 d   1      26.802  -2.898  37.028  0.00  0.00     0.084 H 
ENDBRANCH  55  58
ENDBRANCH  11  55
TORSDOF 12
