REMARK  11 active torsions:
REMARK  status: ('A' for Active; 'I' for Inactive)
REMARK    1  A    between atoms: C2_2  and  O27_19 
REMARK    2  A    between atoms: C3_3  and  C9_7 
REMARK    3  A    between atoms: C5_5  and  O22_17 
REMARK    4  A    between atoms: C9_7  and  C10_8 
REMARK       I    between atoms: C10_8  and  N13_9 
REMARK    5  A    between atoms: N13_9  and  C14_10 
REMARK    6  A    between atoms: C17_13  and  O36_23 
REMARK    7  A    between atoms: C19_15  and  N33_21 
REMARK    8  A    between atoms: O22_17  and  C23_18 
REMARK    9  A    between atoms: O27_19  and  C28_20 
REMARK   10  A    between atoms: O36_23  and  C37_24 
REMARK   11  A    between atoms: C37_24  and  C38_25 
ROOT
ATOM      1  C14 877 d   1      24.243  92.815  29.519  0.00  0.00     0.135 A 
ATOM      2  N16 877 d   1      24.692  94.087  29.731  0.00  0.00    -0.205 NA
ATOM      3  C17 877 d   1      24.722  94.619  31.008  0.00  0.00     0.189 A 
ATOM      4  C18 877 d   1      24.291  93.860  32.133  0.00  0.00     0.123 A 
ATOM      5  C19 877 d   1      23.818  92.523  31.923  0.00  0.00     0.054 A 
ATOM      6  C20 877 d   1      23.797  91.997  30.605  0.00  0.00    -0.012 A 
ATOM      7  C34 877 d   1      24.332  94.451  33.458  0.00  0.00     0.106 C 
ATOM      8  N1  877 d   1      24.359  94.951  34.503  0.00  0.00    -0.191 NA
ATOM      9  H6  877 d   1      23.447  90.987  30.423  0.00  0.00     0.092 H 
ENDROOT
BRANCH   3  10
ATOM     10  O36 877 d   1      25.187  95.931  31.223  0.00  0.00    -0.334 OA
BRANCH  10  11
ATOM     11  C37 877 d   1      24.503  96.964  30.523  0.00  0.00     0.024 C 
ATOM     12  H15 877 d   1      24.338  97.805  31.212  0.00  0.00     0.074 H 
ATOM     13  H16 877 d   1      23.533  96.574  30.182  0.00  0.00     0.074 H 
BRANCH  11  14
ATOM     14  C38 877 d   1      25.286  97.479  29.295  0.00  0.00    -0.056 C 
ATOM     15  H17 877 d   1      24.708  98.272  28.798  0.00  0.00     0.030 H 
ATOM     16  H18 877 d   1      25.451  96.650  28.591  0.00  0.00     0.030 H 
ATOM     17  H19 877 d   1      26.256  97.881  29.621  0.00  0.00     0.030 H 
ENDBRANCH  11  14
ENDBRANCH  10  11
ENDBRANCH   3  10
BRANCH   5  18
ATOM     18  N33 877 d   1      23.388  91.731  32.947  0.00  0.00    -0.398 N 
ATOM     19  H13 877 d   1      23.393  92.090  33.913  0.00  0.00     0.156 HD
ATOM     20  H14 877 d   1      23.058  90.775  32.755  0.00  0.00     0.156 HD
ENDBRANCH   5  18
BRANCH   1  21
ATOM     21  N13 877 d   1      24.273  92.460  28.194  0.00  0.00    -0.311 N 
ATOM     22  C10 877 d   1      24.348  91.249  27.584  0.00  0.00     0.227 C 
ATOM     23  O15 877 d   1      24.410  90.157  28.116  0.00  0.00    -0.273 OA
ATOM     24  H5  877 d   1      24.232  93.234  27.562  0.00  0.00     0.170 HD
BRANCH  22  25
ATOM     25  C9  877 d   1      24.347  91.357  26.057  0.00  0.00     0.036 C 
ATOM     26  H3  877 d   1      23.969  90.417  25.629  0.00  0.00     0.054 H 
ATOM     27  H4  877 d   1      23.692  92.187  25.754  0.00  0.00     0.054 H 
BRANCH  25  28
ATOM     28  C3  877 d   1      25.753  91.614  25.535  0.00  0.00    -0.013 A 
ATOM     29  C2  877 d   1      26.281  92.950  25.444  0.00  0.00     0.076 A 
ATOM     30  C1  877 d   1      27.620  93.145  24.947  0.00  0.00    -0.031 A 
ATOM     31  C6  877 d   1      28.428  92.031  24.538  0.00  0.00     0.047 A 
ATOM     32  H1  877 d   1      28.023  94.149  24.881  0.00  0.00     0.090 H 
ATOM     33  C5  877 d   1      27.882  90.680  24.629  0.00  0.00     0.086 A 
ATOM     34 BR   877 d   1      30.226  92.388  23.884  0.00  0.00    -0.048 Br
ATOM     35  C4  877 d   1      26.560  90.510  25.123  0.00  0.00    -0.040 A 
ATOM     36  H2  877 d   1      26.151  89.508  25.189  0.00  0.00     0.088 H 
BRANCH  29  37
ATOM     37  O27 877 d   1      25.420  93.998  25.862  0.00  0.00    -0.355 OA
BRANCH  37  38
ATOM     38  C28 877 d   1      25.932  94.949  26.788  0.00  0.00     0.010 C 
ATOM     39  H10 877 d   1      25.155  95.694  27.016  0.00  0.00     0.066 H 
ATOM     40  H11 877 d   1      26.806  95.453  26.350  0.00  0.00     0.066 H 
ATOM     41  H12 877 d   1      26.230  94.436  27.714  0.00  0.00     0.066 H 
ENDBRANCH  37  38
ENDBRANCH  29  37
BRANCH  33  42
ATOM     42  O22 877 d   1      28.630  89.562  24.236  0.00  0.00    -0.355 OA
BRANCH  42  43
ATOM     43  C23 877 d   1      29.324  88.934  25.309  0.00  0.00     0.010 C 
ATOM     44  H7  877 d   1      29.886  88.069  24.926  0.00  0.00     0.066 H 
ATOM     45  H8  877 d   1      28.601  88.595  26.065  0.00  0.00     0.066 H 
ATOM     46  H9  877 d   1      30.022  89.652  25.765  0.00  0.00     0.066 H 
ENDBRANCH  42  43
ENDBRANCH  33  42
ENDBRANCH  25  28
ENDBRANCH  22  25
ENDBRANCH   1  21
TORSDOF 11
