REMARK  5 active torsions:
REMARK  status: ('A' for Active; 'I' for Inactive)
REMARK    1  A    between atoms: C22_2  and  C31_3 
REMARK       I    between atoms: C22_2  and  N21_12 
REMARK    2  A    between atoms: C34_6  and  C41_9 
REMARK    3  A    between atoms: C41_9  and  C42_10 
REMARK    4  A    between atoms: C41_9  and  N43_11 
REMARK    5  A    between atoms: N21_12  and  C14_13 
ROOT
ATOM      1  C31 Y27 d   1       9.402   9.323  43.305  0.00  0.00     0.024 C 
ATOM      2  C36 Y27 d   1       9.604   7.999  42.554  0.00  0.00    -0.053 C 
ATOM      3  C35 Y27 d   1      11.061   7.485  42.613  0.00  0.00    -0.059 C 
ATOM      4  C34 Y27 d   1      12.044   8.572  42.127  0.00  0.00    -0.027 C 
ATOM      5  C33 Y27 d   1      11.902   9.772  43.077  0.00  0.00    -0.059 C 
ATOM      6  C32 Y27 d   1      10.462  10.370  42.907  0.00  0.00    -0.053 C 
ATOM      7  H1  Y27 d   1       9.520   9.132  44.382  0.00  0.00     0.054 H 
ATOM      8  H2  Y27 d   1       9.328   8.149  41.500  0.00  0.00     0.034 H 
ATOM      9  H3  Y27 d   1       8.946   7.239  43.001  0.00  0.00     0.034 H 
ATOM     10  H4  Y27 d   1      11.157   6.598  41.970  0.00  0.00     0.033 H 
ATOM     11  H5  Y27 d   1      11.306   7.214  43.651  0.00  0.00     0.033 H 
ATOM     12  H6  Y27 d   1      11.743   8.886  41.117  0.00  0.00     0.043 H 
ATOM     13  H7  Y27 d   1      12.653  10.535  42.826  0.00  0.00     0.033 H 
ATOM     14  H8  Y27 d   1      12.047   9.442  44.116  0.00  0.00     0.033 H 
ATOM     15  H9  Y27 d   1      10.358  11.256  43.551  0.00  0.00     0.034 H 
ATOM     16  H10 Y27 d   1      10.310  10.660  41.857  0.00  0.00     0.034 H 
ENDROOT
BRANCH   1  17
ATOM     17  C22 Y27 d   1       7.988   9.781  43.066  0.00  0.00     0.226 C 
ATOM     18  O23 Y27 d   1       7.517  10.060  41.926  0.00  0.00    -0.273 OA
ATOM     19  N21 Y27 d   1       7.219   9.813  44.252  0.00  0.00    -0.327 N 
ATOM     20  H18 Y27 d   1       7.697   9.719  45.126  0.00  0.00     0.169 HD
BRANCH  19  21
ATOM     21  C14 Y27 d   1       5.777   9.974  44.275  0.00  0.00     0.037 A 
ATOM     22  C15 Y27 d   1       5.198   9.989  45.584  0.00  0.00    -0.040 A 
ATOM     23  C16 Y27 d   1       3.820  10.131  45.667  0.00  0.00     0.004 A 
ATOM     24  H19 Y27 d   1       5.810   9.893  46.473  0.00  0.00     0.089 H 
ATOM     25  N11 Y27 d   1       3.063  10.264  44.544  0.00  0.00    -0.273 NA
ATOM     26  H20 Y27 d   1       3.340  10.136  46.639  0.00  0.00     0.114 H 
ATOM     27  C12 Y27 d   1       3.564  10.262  43.294  0.00  0.00     0.004 A 
ATOM     28  C13 Y27 d   1       4.934  10.135  43.107  0.00  0.00    -0.040 A 
ATOM     29  H21 Y27 d   1       2.903  10.359  42.440  0.00  0.00     0.114 H 
ATOM     30  H22 Y27 d   1       5.363  10.156  42.112  0.00  0.00     0.089 H 
ENDBRANCH  19  21
ENDBRANCH   1  17
BRANCH   4  31
ATOM     31  C41 Y27 d   1      13.523   8.065  42.041  0.00  0.00     0.100 C 
ATOM     32  H11 Y27 d   1      14.161   8.945  41.873  0.00  0.00     0.083 H 
BRANCH  31  33
ATOM     33  C42 Y27 d   1      13.964   7.406  43.356  0.00  0.00    -0.049 C 
ATOM     34  H12 Y27 d   1      15.005   7.062  43.263  0.00  0.00     0.030 H 
ATOM     35  H13 Y27 d   1      13.312   6.547  43.573  0.00  0.00     0.030 H 
ATOM     36  H14 Y27 d   1      13.892   8.137  44.175  0.00  0.00     0.030 H 
ENDBRANCH  31  33
BRANCH  31  37
ATOM     37  N43 Y27 d   1      13.750   7.117  40.903  0.00  0.00    -0.075 N 
ATOM     38  H15 Y27 d   1      13.460   7.551  40.041  0.00  0.00     0.274 HD
ATOM     39  H16 Y27 d   1      13.213   6.277  41.053  0.00  0.00     0.274 HD
ATOM     40  H17 Y27 d   1      14.729   6.885  40.849  0.00  0.00     0.274 HD
ENDBRANCH  31  37
ENDBRANCH   4  31
TORSDOF 5
