REMARK  4 active torsions:
REMARK  status: ('A' for Active; 'I' for Inactive)
REMARK    1  A    between atoms: S5_2  and  N21_4 
REMARK    2  A    between atoms: S5_2  and  C5_12 
REMARK    3  A    between atoms: C22_5  and  C2M_6 
REMARK    4  A    between atoms: C4_14  and  CM_15 
ROOT
ATOM      1  N21 H52 d   1      10.123   9.201   3.098  0.00  0.00    -0.301 N 
ATOM      2  C22 H52 d   1      10.491   7.753   3.020  0.00  0.00     0.042 C 
ATOM      3  C23 H52 d   1      11.937   7.523   2.564  0.00  0.00     0.100 C 
ATOM      4  N24 H52 d   1      12.843   8.361   3.314  0.00  0.00    -0.073 N 
ATOM      5  C25 H52 d   1      13.240   9.645   2.760  0.00  0.00     0.083 C 
ATOM      6  C26 H52 d   1      12.087  10.639   2.872  0.00  0.00    -0.027 C 
ATOM      7  C27 H52 d   1      10.837  10.094   2.176  0.00  0.00     0.007 C 
ATOM      8  H1  H52 d   1      10.385   7.332   4.031  0.00  0.00     0.075 H 
ATOM      9  H5  H52 d   1      12.022   7.765   1.494  0.00  0.00     0.078 H 
ATOM     10  H6  H52 d   1      12.204   6.468   2.724  0.00  0.00     0.078 H 
ATOM     11  H7  H52 d   1      13.687   7.828   3.458  0.00  0.00     0.277 HD
ATOM     12  H8  H52 d   1      12.406   8.546   4.203  0.00  0.00     0.277 HD
ATOM     13  H9  H52 d   1      13.510   9.518   1.701  0.00  0.00     0.075 H 
ATOM     14  H10 H52 d   1      14.108  10.029   3.316  0.00  0.00     0.075 H 
ATOM     15  H11 H52 d   1      12.380  11.588   2.398  0.00  0.00     0.037 H 
ATOM     16  H12 H52 d   1      11.862  10.814   3.934  0.00  0.00     0.037 H 
ATOM     17  H13 H52 d   1      10.181  10.929   1.891  0.00  0.00     0.065 H 
ATOM     18  H14 H52 d   1      11.131   9.535   1.276  0.00  0.00     0.065 H 
ENDROOT
BRANCH   1  19
ATOM     19  S5  H52 d   1       8.986   9.726   4.060  0.00  0.00     0.262 S 
ATOM     20  O1  H52 d   1       9.341  11.010   4.549  0.00  0.00    -0.200 OA
ATOM     21  O2  H52 d   1       8.811   8.712   5.026  0.00  0.00    -0.200 OA
BRANCH  19  22
ATOM     22  C5  H52 d   1       7.513   9.783   3.295  0.00  0.00     0.091 A 
ATOM     23  C10 H52 d   1       6.192   9.892   3.884  0.00  0.00     0.006 A 
ATOM     24  C4  H52 d   1       5.842   9.982   5.266  0.00  0.00    -0.032 A 
ATOM     25  C9  H52 d   1       5.085   9.867   3.018  0.00  0.00    -0.006 A 
ATOM     26  C3  H52 d   1       4.504   9.994   5.707  0.00  0.00     0.008 A 
ATOM     27  N2  H52 d   1       3.513   9.972   4.806  0.00  0.00    -0.272 NA
ATOM     28  H22 H52 d   1       4.278  10.021   6.767  0.00  0.00     0.115 H 
ATOM     29  C1  H52 d   1       3.772   9.898   3.502  0.00  0.00     0.013 A 
ATOM     30  H21 H52 d   1       2.947   9.861   2.799  0.00  0.00     0.116 H 
ATOM     31  C8  H52 d   1       5.198   9.768   1.629  0.00  0.00    -0.071 A 
ATOM     32  C7  H52 d   1       6.443   9.724   1.057  0.00  0.00    -0.081 A 
ATOM     33  H18 H52 d   1       4.309   9.726   1.009  0.00  0.00     0.084 H 
ATOM     34  C6  H52 d   1       7.575   9.725   1.883  0.00  0.00    -0.059 A 
ATOM     35  H19 H52 d   1       6.551   9.689  -0.021  0.00  0.00     0.083 H 
ATOM     36  H20 H52 d   1       8.551   9.679   1.414  0.00  0.00     0.085 H 
BRANCH  24  37
ATOM     37  CM  H52 d   1       6.808  10.019   6.441  0.00  0.00    -0.049 C 
ATOM     38  H15 H52 d   1       6.240  10.091   7.380  0.00  0.00     0.033 H 
ATOM     39  H16 H52 d   1       7.469  10.893   6.345  0.00  0.00     0.033 H 
ATOM     40  H17 H52 d   1       7.413   9.100   6.447  0.00  0.00     0.033 H 
ENDBRANCH  24  37
ENDBRANCH  19  22
ENDBRANCH   1  19
BRANCH   2  41
ATOM     41  C2M H52 d   1       9.558   6.998   2.090  0.00  0.00    -0.055 C 
ATOM     42  H2  H52 d   1       9.854   5.939   2.054  0.00  0.00     0.030 H 
ATOM     43  H3  H52 d   1       9.618   7.430   1.080  0.00  0.00     0.030 H 
ATOM     44  H4  H52 d   1       8.526   7.078   2.462  0.00  0.00     0.030 H 
ENDBRANCH   2  41
TORSDOF 4
