REMARK  2 active torsions:
REMARK  status: ('A' for Active; 'I' for Inactive)
REMARK    1  A    between atoms: S1_2  and  N4_4 
REMARK    2  A    between atoms: S1_2  and  C5_11 
ROOT
ATOM      1  N4  M77 d   1       8.747   8.590   4.661  0.00  0.00    -0.305 N 
ATOM      2  C22 M77 d   1       8.640   7.443   3.702  0.00  0.00     0.028 C 
ATOM      3  C21 M77 d   1       9.816   7.411   2.717  0.00  0.00     0.097 C 
ATOM      4  N17 M77 d   1      11.115   7.145   3.466  0.00  0.00    -0.074 N 
ATOM      5  C16 M77 d   1      11.348   7.920   4.747  0.00  0.00     0.083 C 
ATOM      6  C20 M77 d   1      10.464   7.571   5.947  0.00  0.00    -0.027 C 
ATOM      7  C15 M77 d   1       9.174   8.430   6.043  0.00  0.00     0.007 C 
ATOM      8  H1  M77 d   1       7.703   7.540   3.134  0.00  0.00     0.067 H 
ATOM      9  H2  M77 d   1       8.628   6.502   4.272  0.00  0.00     0.067 H 
ATOM     10  H3  M77 d   1       9.885   8.380   2.200  0.00  0.00     0.078 H 
ATOM     11  H4  M77 d   1       9.651   6.613   1.979  0.00  0.00     0.078 H 
ATOM     12  H5  M77 d   1      11.875   7.359   2.840  0.00  0.00     0.277 HD
ATOM     13  H6  M77 d   1      11.136   6.164   3.697  0.00  0.00     0.277 HD
ATOM     14  H7  M77 d   1      11.194   8.986   4.522  0.00  0.00     0.075 H 
ATOM     15  H8  M77 d   1      12.393   7.756   5.047  0.00  0.00     0.075 H 
ATOM     16  H9  M77 d   1      11.050   7.721   6.865  0.00  0.00     0.037 H 
ATOM     17  H10 M77 d   1      10.172   6.513   5.867  0.00  0.00     0.037 H 
ATOM     18  H11 M77 d   1       8.403   7.911   6.632  0.00  0.00     0.065 H 
ATOM     19  H12 M77 d   1       9.389   9.407   6.500  0.00  0.00     0.065 H 
ENDROOT
BRANCH   1  20
ATOM     20  S1  M77 d   1       8.563  10.075   4.078  0.00  0.00     0.261 S 
ATOM     21  O1  M77 d   1       8.663  11.083   5.139  0.00  0.00    -0.200 OA
ATOM     22  O2  M77 d   1       9.579  10.222   3.061  0.00  0.00    -0.200 OA
BRANCH  20  23
ATOM     23  C5  M77 d   1       7.082  10.085   3.146  0.00  0.00     0.090 A 
ATOM     24  C6  M77 d   1       7.229  10.147   1.768  0.00  0.00    -0.059 A 
ATOM     25  C7  M77 d   1       6.079  10.134   0.924  0.00  0.00    -0.081 A 
ATOM     26  H13 M77 d   1       8.220  10.205   1.332  0.00  0.00     0.085 H 
ATOM     27  C8  M77 d   1       4.817  10.103   1.512  0.00  0.00    -0.071 A 
ATOM     28  H14 M77 d   1       6.186  10.148  -0.155  0.00  0.00     0.083 H 
ATOM     29  C9  M77 d   1       4.653  10.068   2.912  0.00  0.00    -0.007 A 
ATOM     30  H15 M77 d   1       3.938  10.106   0.877  0.00  0.00     0.084 H 
ATOM     31  C10 M77 d   1       5.784  10.028   3.764  0.00  0.00     0.000 A 
ATOM     32  C14 M77 d   1       3.389  10.008   3.514  0.00  0.00     0.013 A 
ATOM     33  C11 M77 d   1       5.529   9.971   5.176  0.00  0.00    -0.054 A 
ATOM     34  C12 M77 d   1       4.255   9.932   5.680  0.00  0.00     0.003 A 
ATOM     35  H16 M77 d   1       6.368   9.959   5.863  0.00  0.00     0.087 H 
ATOM     36  N13 M77 d   1       3.188   9.925   4.830  0.00  0.00    -0.272 NA
ATOM     37  H18 M77 d   1       4.096   9.907   6.752  0.00  0.00     0.114 H 
ATOM     38  H17 M77 d   1       2.518  10.030   2.869  0.00  0.00     0.116 H 
ENDBRANCH  20  23
ENDBRANCH   1  20
TORSDOF 2
