REMARK  5 active torsions:
REMARK  status: ('A' for Active; 'I' for Inactive)
REMARK    1  A    between atoms: C22_2  and  C31_3 
REMARK       I    between atoms: C22_2  and  N21_12 
REMARK    2  A    between atoms: C34_6  and  C41_9 
REMARK    3  A    between atoms: C41_9  and  C42_10 
REMARK    4  A    between atoms: C41_9  and  N43_11 
REMARK    5  A    between atoms: N21_12  and  C14_13 
ROOT
ATOM      1  C31 Y27 d   1       9.118   8.901   2.755  0.00  0.00     0.024 C 
ATOM      2  C36 Y27 d   1       9.337   7.630   1.905  0.00  0.00    -0.053 C 
ATOM      3  C35 Y27 d   1      10.773   7.106   2.093  0.00  0.00    -0.059 C 
ATOM      4  C34 Y27 d   1      11.809   8.224   1.851  0.00  0.00    -0.027 C 
ATOM      5  C33 Y27 d   1      11.584   9.398   2.821  0.00  0.00    -0.059 C 
ATOM      6  C32 Y27 d   1      10.186   9.978   2.487  0.00  0.00    -0.053 C 
ATOM      7  H1  Y27 d   1       9.211   8.604   3.810  0.00  0.00     0.054 H 
ATOM      8  H2  Y27 d   1       9.174   7.870   0.844  0.00  0.00     0.034 H 
ATOM      9  H3  Y27 d   1       8.623   6.855   2.220  0.00  0.00     0.034 H 
ATOM     10  H4  Y27 d   1      10.953   6.289   1.379  0.00  0.00     0.033 H 
ATOM     11  H5  Y27 d   1      10.886   6.728   3.120  0.00  0.00     0.033 H 
ATOM     12  H6  Y27 d   1      11.628   8.611   0.837  0.00  0.00     0.043 H 
ATOM     13  H7  Y27 d   1      12.359  10.165   2.676  0.00  0.00     0.033 H 
ATOM     14  H8  Y27 d   1      11.610   9.042   3.862  0.00  0.00     0.033 H 
ATOM     15  H9  Y27 d   1       9.991  10.856   3.120  0.00  0.00     0.034 H 
ATOM     16  H10 Y27 d   1      10.153  10.274   1.428  0.00  0.00     0.034 H 
ENDROOT
BRANCH   1  17
ATOM     17  C22 Y27 d   1       7.739   9.466   2.567  0.00  0.00     0.226 C 
ATOM     18  O23 Y27 d   1       7.352   9.887   1.479  0.00  0.00    -0.273 OA
ATOM     19  N21 Y27 d   1       6.921   9.460   3.729  0.00  0.00    -0.327 N 
ATOM     20  H18 Y27 d   1       7.383   9.284   4.598  0.00  0.00     0.169 HD
BRANCH  19  21
ATOM     21  C14 Y27 d   1       5.469   9.684   3.793  0.00  0.00     0.037 A 
ATOM     22  C15 Y27 d   1       4.907   9.646   5.069  0.00  0.00    -0.040 A 
ATOM     23  C16 Y27 d   1       3.536   9.828   5.229  0.00  0.00     0.004 A 
ATOM     24  H19 Y27 d   1       5.537   9.475   5.935  0.00  0.00     0.089 H 
ATOM     25  N11 Y27 d   1       2.748  10.007   4.189  0.00  0.00    -0.273 NA
ATOM     26  H20 Y27 d   1       3.110   9.822   6.226  0.00  0.00     0.114 H 
ATOM     27  C12 Y27 d   1       3.251  10.048   2.955  0.00  0.00     0.004 A 
ATOM     28  C13 Y27 d   1       4.600   9.922   2.703  0.00  0.00    -0.040 A 
ATOM     29  H21 Y27 d   1       2.574  10.185   2.119  0.00  0.00     0.114 H 
ATOM     30  H22 Y27 d   1       4.986  10.003   1.693  0.00  0.00     0.089 H 
ENDBRANCH  19  21
ENDBRANCH   1  17
BRANCH   4  31
ATOM     31  C41 Y27 d   1      13.270   7.704   1.866  0.00  0.00     0.100 C 
ATOM     32  H11 Y27 d   1      13.928   8.583   1.799  0.00  0.00     0.083 H 
BRANCH  31  33
ATOM     33  C42 Y27 d   1      13.636   6.961   3.160  0.00  0.00    -0.049 C 
ATOM     34  H12 Y27 d   1      14.681   6.621   3.104  0.00  0.00     0.030 H 
ATOM     35  H13 Y27 d   1      12.973   6.092   3.284  0.00  0.00     0.030 H 
ATOM     36  H14 Y27 d   1      13.516   7.638   4.018  0.00  0.00     0.030 H 
ENDBRANCH  31  33
BRANCH  31  37
ATOM     37  N43 Y27 d   1      13.538   6.838   0.663  0.00  0.00    -0.075 N 
ATOM     38  H15 Y27 d   1      13.292   7.341  -0.175  0.00  0.00     0.274 HD
ATOM     39  H16 Y27 d   1      12.985   5.997   0.724  0.00  0.00     0.274 HD
ATOM     40  H17 Y27 d   1      14.516   6.596   0.635  0.00  0.00     0.274 HD
ENDBRANCH  31  37
ENDBRANCH   4  31
TORSDOF 5
