REMARK  4 active torsions:
REMARK  status: ('A' for Active; 'I' for Inactive)
REMARK    1  A    between atoms: S5_2  and  N21_4 
REMARK    2  A    between atoms: S5_2  and  C5_12 
REMARK    3  A    between atoms: C22_5  and  C2M_6 
REMARK    4  A    between atoms: C4_14  and  CM_15 
ROOT
ATOM      1  N21 H52 d   1       9.983   9.181   3.194  0.00  0.00    -0.301 N 
ATOM      2  C22 H52 d   1      10.193   7.729   3.085  0.00  0.00     0.042 C 
ATOM      3  C23 H52 d   1      11.657   7.459   2.774  0.00  0.00     0.100 C 
ATOM      4  N24 H52 d   1      12.471   8.251   3.653  0.00  0.00    -0.073 N 
ATOM      5  C25 H52 d   1      13.123   9.427   3.174  0.00  0.00     0.083 C 
ATOM      6  C26 H52 d   1      12.048  10.468   3.305  0.00  0.00    -0.027 C 
ATOM      7  C27 H52 d   1      10.866  10.068   2.423  0.00  0.00     0.007 C 
ATOM      8  H1  H52 d   1       9.941   7.280   4.057  0.00  0.00     0.075 H 
ATOM      9  H5  H52 d   1      11.869   7.730   1.729  0.00  0.00     0.078 H 
ATOM     10  H6  H52 d   1      11.877   6.392   2.928  0.00  0.00     0.078 H 
ATOM     11  H7  H52 d   1      13.194   7.642   4.003  0.00  0.00     0.277 HD
ATOM     12  H8  H52 d   1      11.877   8.540   4.414  0.00  0.00     0.277 HD
ATOM     13  H9  H52 d   1      13.437   9.309   2.126  0.00  0.00     0.075 H 
ATOM     14  H10 H52 d   1      13.997   9.678   3.793  0.00  0.00     0.075 H 
ATOM     15  H11 H52 d   1      12.437  11.444   2.981  0.00  0.00     0.037 H 
ATOM     16  H12 H52 d   1      11.722  10.533   4.354  0.00  0.00     0.037 H 
ATOM     17  H13 H52 d   1      10.312  10.967   2.116  0.00  0.00     0.065 H 
ATOM     18  H14 H52 d   1      11.232   9.541   1.530  0.00  0.00     0.065 H 
ENDROOT
BRANCH   1  19
ATOM     19  S5  H52 d   1       8.856   9.781   4.071  0.00  0.00     0.262 S 
ATOM     20  O1  H52 d   1       9.298  11.013   4.625  0.00  0.00    -0.200 OA
ATOM     21  O2  H52 d   1       8.670   8.885   5.156  0.00  0.00    -0.200 OA
BRANCH  19  22
ATOM     22  C5  H52 d   1       7.469   9.902   3.189  0.00  0.00     0.091 A 
ATOM     23  C10 H52 d   1       6.117  10.056   3.637  0.00  0.00     0.006 A 
ATOM     24  C4  H52 d   1       5.663  10.185   4.971  0.00  0.00    -0.032 A 
ATOM     25  C9  H52 d   1       5.083  10.083   2.673  0.00  0.00    -0.006 A 
ATOM     26  C3  H52 d   1       4.303  10.299   5.249  0.00  0.00     0.008 A 
ATOM     27  N2  H52 d   1       3.387  10.312   4.285  0.00  0.00    -0.272 NA
ATOM     28  H22 H52 d   1       3.982  10.380   6.281  0.00  0.00     0.115 H 
ATOM     29  C1  H52 d   1       3.745  10.214   3.017  0.00  0.00     0.013 A 
ATOM     30  H21 H52 d   1       2.989  10.236   2.241  0.00  0.00     0.116 H 
ATOM     31  C8  H52 d   1       5.320   9.963   1.317  0.00  0.00    -0.071 A 
ATOM     32  C7  H52 d   1       6.603   9.833   0.881  0.00  0.00    -0.081 A 
ATOM     33  H18 H52 d   1       4.497   9.972   0.611  0.00  0.00     0.084 H 
ATOM     34  C6  H52 d   1       7.642   9.807   1.798  0.00  0.00    -0.059 A 
ATOM     35  H19 H52 d   1       6.811   9.750  -0.180  0.00  0.00     0.083 H 
ATOM     36  H20 H52 d   1       8.652   9.707   1.418  0.00  0.00     0.085 H 
BRANCH  24  37
ATOM     37  CM  H52 d   1       6.530  10.186   6.195  0.00  0.00    -0.049 C 
ATOM     38  H15 H52 d   1       5.901  10.302   7.090  0.00  0.00     0.033 H 
ATOM     39  H16 H52 d   1       7.244  11.021   6.138  0.00  0.00     0.033 H 
ATOM     40  H17 H52 d   1       7.081   9.236   6.255  0.00  0.00     0.033 H 
ENDBRANCH  24  37
ENDBRANCH  19  22
ENDBRANCH   1  19
BRANCH   2  41
ATOM     41  C2M H52 d   1       9.350   7.029   2.007  0.00  0.00    -0.055 C 
ATOM     42  H2  H52 d   1       9.578   5.953   2.005  0.00  0.00     0.030 H 
ATOM     43  H3  H52 d   1       9.587   7.456   1.021  0.00  0.00     0.030 H 
ATOM     44  H4  H52 d   1       8.282   7.177   2.223  0.00  0.00     0.030 H 
ENDBRANCH   2  41
TORSDOF 4
