REMARK  21 active torsions:
REMARK  status: ('A' for Active; 'I' for Inactive)
REMARK    1  A    between atoms: C3G_1  and  O3G_7 
REMARK    2  A    between atoms: C4G_2  and  O4G_28 
REMARK    3  A    between atoms: C5G_3  and  C6G_29 
REMARK    4  A    between atoms: C2G_4  and  CZH_23 
REMARK    5  A    between atoms: O3G_7  and  C1A_9 
REMARK    6  A    between atoms: C1A_9  and  C2A_10 
REMARK    7  A    between atoms: C2A_10  and  C3A_11 
REMARK    8  A    between atoms: C3A_11  and  C4A_12 
REMARK    9  A    between atoms: C4A_12  and  C5A_13 
REMARK   10  A    between atoms: C5A_13  and  C6A_14 
REMARK   11  A    between atoms: C6A_14  and  C7A_15 
REMARK   12  A    between atoms: C7A_15  and  C8A_16 
REMARK   13  A    between atoms: C8A_16  and  C9A_17 
REMARK   14  A    between atoms: C9A_17  and  CAA_18 
REMARK   15  A    between atoms: CAA_18  and  CBA_19 
REMARK   16  A    between atoms: CBA_19  and  CCA_20 
REMARK   17  A    between atoms: CCA_20  and  CDA_21 
REMARK   18  A    between atoms: CDA_21  and  CEA_22 
REMARK   19  A    between atoms: CZH_23  and  CYH_24 
REMARK       I    between atoms: CYH_24  and  NXH_26 
REMARK   20  A    between atoms: NXH_26  and  OXH_27 
REMARK   21  A    between atoms: C6G_29  and  O6G_30 
ROOT
ATOM      1  C3A TUX d   1     -31.374  73.417   8.234  0.00  0.00    -0.057 C 
ATOM      2  H9  TUX d   1     -30.551  72.720   8.017  0.00  0.00     0.033 H 
ATOM      3  H10 TUX d   1     -32.176  73.279   7.494  0.00  0.00     0.033 H 
ENDROOT
BRANCH   1   4
ATOM      4  C2A TUX d   1     -30.858  74.855   8.167  0.00  0.00     0.016 C 
ATOM      5  H7  TUX d   1     -31.440  75.470   8.869  0.00  0.00     0.048 H 
ATOM      6  H8  TUX d   1     -29.799  74.862   8.465  0.00  0.00     0.048 H 
BRANCH   4   7
ATOM      7  C1A TUX d   1     -30.976  75.467   6.769  0.00  0.00     0.259 C 
ATOM      8  O1A TUX d   1     -31.235  74.768   5.790  0.00  0.00    -0.265 OA
BRANCH   7   9
ATOM      9  O3G TUX d   1     -30.827  76.815   6.652  0.00  0.00    -0.313 OA
BRANCH   9  10
ATOM     10  C3G TUX d   1     -30.935  77.291   5.303  0.00  0.00     0.081 C 
ATOM     11  C4G TUX d   1     -32.071  78.310   5.200  0.00  0.00     0.088 C 
ATOM     12  C5G TUX d   1     -32.115  78.892   3.784  0.00  0.00     0.086 C 
ATOM     13  H2  TUX d   1     -31.900  79.122   5.922  0.00  0.00     0.091 H 
ATOM     14  O5G TUX d   1     -30.855  79.523   3.495  0.00  0.00    -0.381 OA
ATOM     15  H3  TUX d   1     -32.285  78.080   3.062  0.00  0.00     0.090 H 
ATOM     16  C1G TUX d   1     -29.758  78.592   3.511  0.00  0.00     0.026 C 
ATOM     17  C2G TUX d   1     -29.616  77.954   4.897  0.00  0.00     0.003 C 
ATOM     18  H5  TUX d   1     -29.942  77.803   2.767  0.00  0.00     0.075 H 
ATOM     19  H6  TUX d   1     -28.828  79.124   3.260  0.00  0.00     0.075 H 
ATOM     20  H4  TUX d   1     -29.382  78.748   5.621  0.00  0.00     0.048 H 
ATOM     21  H1  TUX d   1     -31.142  76.445   4.632  0.00  0.00     0.089 H 
BRANCH  11  22
ATOM     22  O4G TUX d   1     -33.313  77.666   5.496  0.00  0.00    -0.390 OA
ATOM     23  H38 TUX d   1     -34.019  78.299   5.437  0.00  0.00     0.210 HD
ENDBRANCH  11  22
BRANCH  12  24
ATOM     24  C6G TUX d   1     -33.264  79.899   3.681  0.00  0.00     0.043 C 
ATOM     25  H39 TUX d   1     -33.045  80.767   4.320  0.00  0.00     0.078 H 
ATOM     26  H40 TUX d   1     -34.197  79.422   4.017  0.00  0.00     0.078 H 
BRANCH  24  27
ATOM     27  O6G TUX d   1     -33.417  80.335   2.328  0.00  0.00    -0.398 OA
ATOM     28  H41 TUX d   1     -32.613  80.749   2.037  0.00  0.00     0.209 HD
ENDBRANCH  24  27
ENDBRANCH  12  24
BRANCH  17  29
ATOM     29  CZH TUX d   1     -28.487  76.921   4.933  0.00  0.00     0.019 C 
ATOM     30  H34 TUX d   1     -28.609  76.236   4.081  0.00  0.00     0.048 H 
ATOM     31  H35 TUX d   1     -28.558  76.354   5.873  0.00  0.00     0.048 H 
BRANCH  29  32
ATOM     32  CYH TUX d   1     -27.101  77.564   4.851  0.00  0.00     0.241 C 
ATOM     33  OYH TUX d   1     -26.547  78.000   5.858  0.00  0.00    -0.271 OA
ATOM     34  NXH TUX d   1     -26.568  77.597   3.634  0.00  0.00    -0.237 N 
ATOM     35  H36 TUX d   1     -27.079  77.247   2.849  0.00  0.00     0.197 HD
BRANCH  34  36
ATOM     36  OXH TUX d   1     -25.321  78.111   3.467  0.00  0.00    -0.287 OA
ATOM     37  H37 TUX d   1     -25.312  79.017   3.753  0.00  0.00     0.244 HD
ENDBRANCH  34  36
ENDBRANCH  29  32
ENDBRANCH  17  29
ENDBRANCH   9  10
ENDBRANCH   7   9
ENDBRANCH   4   7
ENDBRANCH   1   4
BRANCH   1  38
ATOM     38  C4A TUX d   1     -31.920  73.142   9.637  0.00  0.00    -0.065 C 
ATOM     39  H11 TUX d   1     -32.800  73.780   9.807  0.00  0.00     0.033 H 
ATOM     40  H12 TUX d   1     -31.142  73.386  10.375  0.00  0.00     0.033 H 
BRANCH  38  41
ATOM     41  C5A TUX d   1     -32.329  71.679   9.815  0.00  0.00    -0.065 C 
ATOM     42  H13 TUX d   1     -31.430  71.085  10.033  0.00  0.00     0.033 H 
ATOM     43  H14 TUX d   1     -32.786  71.323   8.880  0.00  0.00     0.033 H 
BRANCH  41  44
ATOM     44  C6A TUX d   1     -33.333  71.489  10.956  0.00  0.00    -0.065 C 
ATOM     45  H15 TUX d   1     -33.551  70.415  11.048  0.00  0.00     0.033 H 
ATOM     46  H16 TUX d   1     -34.255  72.030  10.697  0.00  0.00     0.033 H 
BRANCH  44  47
ATOM     47  C7A TUX d   1     -32.843  71.998  12.315  0.00  0.00    -0.065 C 
ATOM     48  H17 TUX d   1     -32.754  73.094  12.286  0.00  0.00     0.033 H 
ATOM     49  H18 TUX d   1     -31.861  71.556  12.540  0.00  0.00     0.033 H 
BRANCH  47  50
ATOM     50  C8A TUX d   1     -33.844  71.597  13.401  0.00  0.00    -0.065 C 
ATOM     51  H19 TUX d   1     -33.858  70.500  13.479  0.00  0.00     0.033 H 
ATOM     52  H20 TUX d   1     -34.842  71.957  13.110  0.00  0.00     0.033 H 
BRANCH  50  53
ATOM     53  C9A TUX d   1     -33.493  72.181  14.771  0.00  0.00    -0.065 C 
ATOM     54  H21 TUX d   1     -33.633  73.272  14.748  0.00  0.00     0.033 H 
ATOM     55  H22 TUX d   1     -32.443  71.951  15.006  0.00  0.00     0.033 H 
BRANCH  53  56
ATOM     56  CAA TUX d   1     -34.397  71.577  15.849  0.00  0.00    -0.065 C 
ATOM     57  H23 TUX d   1     -34.202  70.496  15.908  0.00  0.00     0.033 H 
ATOM     58  H24 TUX d   1     -35.446  71.746  15.565  0.00  0.00     0.033 H 
BRANCH  56  59
ATOM     59  CBA TUX d   1     -34.157  72.195  17.230  0.00  0.00    -0.065 C 
ATOM     60  H25 TUX d   1     -33.075  72.348  17.360  0.00  0.00     0.033 H 
ATOM     61  H26 TUX d   1     -34.522  71.493  17.994  0.00  0.00     0.033 H 
BRANCH  59  62
ATOM     62  CCA TUX d   1     -34.865  73.540  17.430  0.00  0.00    -0.065 C 
ATOM     63  H27 TUX d   1     -34.734  74.141  16.518  0.00  0.00     0.033 H 
ATOM     64  H28 TUX d   1     -34.396  74.057  18.280  0.00  0.00     0.033 H 
BRANCH  62  65
ATOM     65  CDA TUX d   1     -36.366  73.408  17.711  0.00  0.00    -0.069 C 
ATOM     66  H29 TUX d   1     -36.755  74.394  18.004  0.00  0.00     0.032 H 
ATOM     67  H30 TUX d   1     -36.506  72.698  18.539  0.00  0.00     0.032 H 
BRANCH  65  68
ATOM     68  CEA TUX d   1     -37.164  72.910  16.503  0.00  0.00    -0.077 C 
ATOM     69  H31 TUX d   1     -38.228  72.838  16.771  0.00  0.00     0.027 H 
ATOM     70  H32 TUX d   1     -36.794  71.919  16.202  0.00  0.00     0.027 H 
ATOM     71  H33 TUX d   1     -37.043  73.615  15.668  0.00  0.00     0.027 H 
ENDBRANCH  65  68
ENDBRANCH  62  65
ENDBRANCH  59  62
ENDBRANCH  56  59
ENDBRANCH  53  56
ENDBRANCH  50  53
ENDBRANCH  47  50
ENDBRANCH  44  47
ENDBRANCH  41  44
ENDBRANCH  38  41
ENDBRANCH   1  38
TORSDOF 21
