REMARK WARNING: 32 MAX_TORS EXCEEDED!!!
REMARK  78 active torsions:
REMARK  status: ('A' for Active; 'I' for Inactive)
REMARK    1  A    between atoms: N_1  and  CA_2 
REMARK    2  A    between atoms: CA_2  and  C_3 
REMARK    3  A    between atoms: CA_2  and  CB_5 
REMARK       I    between atoms: C_3  and  N_12 
REMARK    4  A    between atoms: CB_5  and  CG_6 
REMARK    5  A    between atoms: CG_6  and  CD_7 
REMARK    6  A    between atoms: CD_7  and  NE_8 
REMARK       I    between atoms: NE_8  and  CZ_9 
REMARK       I    between atoms: CZ_9  and  NH1_10 
REMARK       I    between atoms: CZ_9  and  NH2_11 
REMARK    7  A    between atoms: N_12  and  CA_13 
REMARK    8  A    between atoms: CA_13  and  C_14 
REMARK    9  A    between atoms: CA_13  and  CB_16 
REMARK       I    between atoms: C_14  and  N_20 
REMARK   10  A    between atoms: CB_16  and  CG_17 
REMARK   11  A    between atoms: CG_17  and  CD1_18 
REMARK   12  A    between atoms: CG_17  and  CD2_19 
REMARK   13  A    between atoms: N_20  and  CA_21 
REMARK   14  A    between atoms: CA_21  and  C_22 
REMARK   15  A    between atoms: CA_21  and  CB_24 
REMARK       I    between atoms: C_22  and  N_29 
REMARK   16  A    between atoms: CB_24  and  CG_25 
REMARK   17  A    between atoms: CG_25  and  CD_26 
REMARK       I    between atoms: CD_26  and  NE2_28 
REMARK   18  A    between atoms: N_29  and  CA_30 
REMARK   19  A    between atoms: CA_30  and  C_31 
REMARK   20  A    between atoms: CA_30  and  CB_33 
REMARK       I    between atoms: C_31  and  N_38 
REMARK   21  A    between atoms: CB_33  and  CG_34 
REMARK   22  A    between atoms: CG_34  and  CD_35 
REMARK   23  A    between atoms: N_38  and  CA_39 
REMARK   24  A    between atoms: CA_39  and  C_40 
REMARK   25  A    between atoms: CA_39  and  CB_42 
REMARK       I    between atoms: C_40  and  N_49 
REMARK   26  A    between atoms: CB_42  and  CG_43 
REMARK   27  A    between atoms: CG_43  and  CD_44 
REMARK   28  A    between atoms: CD_44  and  NE_45 
REMARK       I    between atoms: NE_45  and  CZ_46 
REMARK       I    between atoms: CZ_46  and  NH1_47 
REMARK       I    between atoms: CZ_46  and  NH2_48 
REMARK   29  A    between atoms: N_49  and  CA_50 
REMARK   30  A    between atoms: CA_50  and  C_51 
REMARK   31  A    between atoms: CA_50  and  CB_53 
REMARK       I    between atoms: C_51  and  N_60 
REMARK   32  A    between atoms: CB_53  and  CG_54 
REMARK   33  A    between atoms: CG_54  and  CD_55 
REMARK   34  A    between atoms: CD_55  and  NE_56 
REMARK       I    between atoms: NE_56  and  CZ_57 
REMARK       I    between atoms: CZ_57  and  NH1_58 
REMARK       I    between atoms: CZ_57  and  NH2_59 
REMARK   35  A    between atoms: N_60  and  CA_61 
REMARK   36  A    between atoms: CA_61  and  C_62 
REMARK       I    between atoms: C_62  and  N_64 
REMARK   37  A    between atoms: N_64  and  CA_65 
REMARK   38  A    between atoms: CA_65  and  C_66 
REMARK   39  A    between atoms: CA_65  and  CB_68 
REMARK       I    between atoms: C_66  and  N_70 
REMARK   40  A    between atoms: CB_68  and  OG_69 
REMARK   41  A    between atoms: N_70  and  CA_71 
REMARK   42  A    between atoms: CA_71  and  C_72 
REMARK   43  A    between atoms: CA_71  and  CB_74 
REMARK       I    between atoms: C_72  and  N_78 
REMARK   44  A    between atoms: CB_74  and  CG_75 
REMARK       I    between atoms: CG_75  and  ND2_77 
REMARK   45  A    between atoms: N_78  and  CA_79 
REMARK   46  A    between atoms: CA_79  and  C_80 
REMARK   47  A    between atoms: CA_79  and  CB_82 
REMARK       I    between atoms: C_80  and  N_85 
REMARK   48  A    between atoms: CB_82  and  CG1_83 
REMARK   49  A    between atoms: CB_82  and  CG2_84 
REMARK   50  A    between atoms: N_85  and  CA_86 
REMARK   51  A    between atoms: CA_86  and  C_87 
REMARK   52  A    between atoms: CA_86  and  CB_89 
REMARK       I    between atoms: C_87  and  N_90 
REMARK   53  A    between atoms: N_90  and  CA_91 
REMARK   54  A    between atoms: CA_91  and  C_92 
REMARK   55  A    between atoms: CA_91  and  CB_94 
REMARK       I    between atoms: C_92  and  N_98 
REMARK   56  A    between atoms: CB_94  and  CG_95 
REMARK   57  A    between atoms: CG_95  and  CD1_96 
REMARK   58  A    between atoms: CG_95  and  CD2_97 
REMARK   59  A    between atoms: N_98  and  CA_99 
REMARK   60  A    between atoms: CA_99  and  C_100 
REMARK   61  A    between atoms: CA_99  and  CB_102 
REMARK       I    between atoms: C_100  and  N_106 
REMARK   62  A    between atoms: CB_102  and  CG_103 
REMARK   63  A    between atoms: CG_103  and  SD_104 
REMARK   64  A    between atoms: SD_104  and  CE_105 
REMARK   65  A    between atoms: N_106  and  CA_107 
REMARK   66  A    between atoms: CA_107  and  C_108 
REMARK   67  A    between atoms: CA_107  and  CB_110 
REMARK       I    between atoms: C_108  and  N_114 
REMARK   68  A    between atoms: CB_110  and  CG_111 
REMARK   69  A    between atoms: CG_111  and  CD1_112 
REMARK   70  A    between atoms: CG_111  and  CD2_113 
REMARK   71  A    between atoms: N_114  and  CA_115 
REMARK   72  A    between atoms: CA_115  and  C_116 
REMARK   73  A    between atoms: CA_115  and  CB_118 
REMARK       I    between atoms: C_116  and  N_122 
REMARK   74  A    between atoms: CB_118  and  CG_119 
REMARK   75  A    between atoms: N_122  and  CA_123 
REMARK   76  A    between atoms: CA_123  and  C_124 
REMARK   77  A    between atoms: CA_123  and  CB_126 
REMARK   78  A    between atoms: CB_126  and  SG_127 
ROOT
ATOM      1  C   GLY d   1      26.182  33.897  21.887  0.00  0.00     0.236 C 
ATOM      2  O   GLY d   1      26.903  34.477  22.709  0.00  0.00    -0.272 OA
ATOM      3  N   SER d   1      25.820  32.623  22.025  0.00  0.00    -0.344 N 
ATOM      4  H70 SER d   1      25.226  32.197  21.343  0.00  0.00     0.163 HD
ENDROOT
BRANCH   1   5
ATOM      5  CA  GLY d   1      25.664  34.642  20.669  0.00  0.00     0.069 C 
ATOM      6  H68 GLY d   1      25.345  35.644  20.993  0.00  0.00     0.078 H 
ATOM      7  H69 GLY d   1      26.491  34.735  19.950  0.00  0.00     0.078 H 
BRANCH   5   8
ATOM      8  N   GLY d   1      24.547  34.012  19.990  0.00  0.00    -0.351 N 
ATOM      9  C   ARG d   1      23.305  34.140  20.450  0.00  0.00     0.240 C 
ATOM     10  O   ARG d   1      23.029  34.756  21.479  0.00  0.00    -0.271 OA
ATOM     11  H67 GLY d   1      24.713  33.474  19.164  0.00  0.00     0.163 HD
BRANCH   9  12
ATOM     12  CA  ARG d   1      22.216  33.442  19.637  0.00  0.00     0.089 C 
ATOM     13  H55 ARG d   1      21.520  34.207  19.263  0.00  0.00     0.087 H 
BRANCH  12  14
ATOM     14  N   ARG d   1      22.768  32.720  18.487  0.00  0.00    -0.346 N 
ATOM     15  C   ARG d   1      23.068  33.345  17.352  0.00  0.00     0.241 C 
ATOM     16  O   ARG d   1      22.913  34.554  17.199  0.00  0.00    -0.271 OA
ATOM     17  H54 ARG d   1      22.923  31.735  18.558  0.00  0.00     0.163 HD
BRANCH  15  18
ATOM     18  CA  ARG d   1      23.623  32.473  16.218  0.00  0.00     0.089 C 
ATOM     19  H42 ARG d   1      24.140  33.115  15.490  0.00  0.00     0.087 H 
BRANCH  18  20
ATOM     20  N   ARG d   1      24.557  31.488  16.740  0.00  0.00    -0.346 N 
ATOM     21  C   GLU d   1      25.555  31.772  17.567  0.00  0.00     0.241 C 
ATOM     22  O   GLU d   1      25.819  32.904  17.964  0.00  0.00    -0.271 OA
ATOM     23  H41 ARG d   1      24.440  30.536  16.458  0.00  0.00     0.163 HD
BRANCH  21  24
ATOM     24  CA  GLU d   1      26.382  30.577  17.985  0.00  0.00     0.090 C 
ATOM     25  H36 GLU d   1      27.011  30.829  18.851  0.00  0.00     0.087 H 
BRANCH  24  26
ATOM     26  N   GLU d   1      25.447  29.509  18.342  0.00  0.00    -0.346 N 
ATOM     27  C   GLN d   1      24.617  29.657  19.367  0.00  0.00     0.241 C 
ATOM     28  O   GLN d   1      24.600  30.678  20.051  0.00  0.00    -0.271 OA
ATOM     29  H35 GLU d   1      25.433  28.662  17.810  0.00  0.00     0.163 HD
BRANCH  27  30
ATOM     30  CA  GLN d   1      23.672  28.496  19.685  0.00  0.00     0.090 C 
ATOM     31  H28 GLN d   1      22.867  28.883  20.326  0.00  0.00     0.087 H 
BRANCH  30  32
ATOM     32  N   GLN d   1      23.054  27.927  18.490  0.00  0.00    -0.346 N 
ATOM     33  C   LEU d   1      22.215  28.624  17.723  0.00  0.00     0.241 C 
ATOM     34  O   LEU d   1      21.910  29.796  17.949  0.00  0.00    -0.271 OA
ATOM     35  H27 GLN d   1      23.267  26.983  18.239  0.00  0.00     0.163 HD
BRANCH  33  36
ATOM     36  CA  LEU d   1      21.647  27.892  16.510  0.00  0.00     0.089 C 
ATOM     37  H17 LEU d   1      21.334  28.637  15.764  0.00  0.00     0.087 H 
BRANCH  36  38
ATOM     38  N   LEU d   1      22.661  27.024  15.910  0.00  0.00    -0.346 N 
ATOM     39  C   ARG d   1      23.910  27.431  15.695  0.00  0.00     0.248 C 
ATOM     40  O   ARG d   1      24.296  28.570  15.958  0.00  0.00    -0.271 OA
ATOM     41  H16 LEU d   1      22.407  26.092  15.652  0.00  0.00     0.163 HD
BRANCH  39  42
ATOM     42  CA  ARG d   1      24.871  26.411  15.074  0.00  0.00     0.176 C 
ATOM     43  H4  ARG d   1      24.300  25.524  14.762  0.00  0.00     0.099 H 
BRANCH  42  44
ATOM     44  N   ARG d   1      25.538  27.006  13.876  0.00  0.00    -0.067 N 
ATOM     45  H1  ARG d   1      26.168  26.331  13.472  0.00  0.00     0.275 HD
ATOM     46  H2  ARG d   1      26.056  27.826  14.152  0.00  0.00     0.275 HD
ATOM     47  H3  ARG d   1      24.840  27.263  13.196  0.00  0.00     0.275 HD
ENDBRANCH  42  44
BRANCH  42  48
ATOM     48  CB  ARG d   1      25.927  25.987  16.108  0.00  0.00    -0.029 C 
ATOM     49  H5  ARG d   1      25.678  26.469  17.065  0.00  0.00     0.036 H 
ATOM     50  H6  ARG d   1      26.907  26.347  15.760  0.00  0.00     0.036 H 
BRANCH  48  51
ATOM     51  CG  ARG d   1      26.036  24.477  16.352  0.00  0.00    -0.047 C 
ATOM     52  H7  ARG d   1      26.063  23.961  15.381  0.00  0.00     0.035 H 
ATOM     53  H8  ARG d   1      25.155  24.144  16.920  0.00  0.00     0.035 H 
BRANCH  51  54
ATOM     54  CD  ARG d   1      27.302  24.115  17.142  0.00  0.00     0.009 C 
ATOM     55  H9  ARG d   1      27.252  23.053  17.424  0.00  0.00     0.064 H 
ATOM     56  H10 ARG d   1      27.342  24.734  18.050  0.00  0.00     0.064 H 
BRANCH  54  57
ATOM     57  NE  ARG d   1      28.526  24.339  16.364  0.00  0.00    -0.227 N 
ATOM     58  CZ  ARG d   1      29.772  24.152  16.812  0.00  0.00     0.665 C 
ATOM     59  NH1 ARG d   1      29.991  23.732  18.056  0.00  0.00    -0.235 N 
ATOM     60  NH2 ARG d   1      30.808  24.378  16.009  0.00  0.00    -0.235 N 
ATOM     61  H12 ARG d   1      30.955  23.591  18.390  0.00  0.00     0.174 HD
ATOM     62  H13 ARG d   1      29.196  23.547  18.685  0.00  0.00     0.174 HD
ATOM     63  H14 ARG d   1      30.651  24.703  15.044  0.00  0.00     0.174 HD
ATOM     64  H15 ARG d   1      31.768  24.228  16.352  0.00  0.00     0.174 HD
ATOM     65  H11 ARG d   1      28.416  24.667  15.394  0.00  0.00     0.177 HD
ENDBRANCH  54  57
ENDBRANCH  51  54
ENDBRANCH  48  51
ENDBRANCH  42  48
ENDBRANCH  39  42
ENDBRANCH  36  38
BRANCH  36  66
ATOM     66  CB  LEU d   1      20.417  27.057  16.925  0.00  0.00    -0.035 C 
ATOM     67  H18 LEU d   1      20.792  26.101  17.318  0.00  0.00     0.037 H 
ATOM     68  H19 LEU d   1      19.828  26.873  16.015  0.00  0.00     0.037 H 
BRANCH  66  69
ATOM     69  CG  LEU d   1      19.453  27.636  17.981  0.00  0.00    -0.059 C 
ATOM     70  H20 LEU d   1      20.003  27.779  18.922  0.00  0.00     0.038 H 
BRANCH  69  71
ATOM     71  CD1 LEU d   1      18.903  28.984  17.533  0.00  0.00    -0.073 C 
ATOM     72  H21 LEU d   1      18.220  29.375  18.301  0.00  0.00     0.028 H 
ATOM     73  H22 LEU d   1      18.358  28.861  16.586  0.00  0.00     0.028 H 
ATOM     74  H23 LEU d   1      19.734  29.690  17.388  0.00  0.00     0.028 H 
ENDBRANCH  69  71
BRANCH  69  75
ATOM     75  CD2 LEU d   1      18.318  26.646  18.220  0.00  0.00    -0.073 C 
ATOM     76  H24 LEU d   1      18.735  25.681  18.542  0.00  0.00     0.028 H 
ATOM     77  H25 LEU d   1      17.750  26.507  17.288  0.00  0.00     0.028 H 
ATOM     78  H26 LEU d   1      17.650  27.036  19.002  0.00  0.00     0.028 H 
ENDBRANCH  69  75
ENDBRANCH  66  69
ENDBRANCH  36  66
ENDBRANCH  33  36
ENDBRANCH  30  32
BRANCH  30  79
ATOM     79  CB  GLN d   1      24.432  27.406  20.466  0.00  0.00    -0.030 C 
ATOM     80  H29 GLN d   1      25.095  26.878  19.765  0.00  0.00     0.037 H 
ATOM     81  H30 GLN d   1      23.696  26.700  20.877  0.00  0.00     0.037 H 
BRANCH  79  82
ATOM     82  CG  GLN d   1      25.289  27.941  21.630  0.00  0.00     0.011 C 
ATOM     83  H31 GLN d   1      24.644  28.538  22.291  0.00  0.00     0.047 H 
ATOM     84  H32 GLN d   1      26.080  28.582  21.214  0.00  0.00     0.047 H 
BRANCH  82  85
ATOM     85  CD  GLN d   1      25.946  26.842  22.460  0.00  0.00     0.215 C 
ATOM     86  OE1 GLN d   1      26.306  25.785  21.945  0.00  0.00    -0.274 OA
ATOM     87  NE2 GLN d   1      26.120  27.104  23.760  0.00  0.00    -0.370 N 
ATOM     88  H33 GLN d   1      26.545  26.422  24.355  0.00  0.00     0.159 HD
ATOM     89  H34 GLN d   1      25.825  27.982  24.137  0.00  0.00     0.159 HD
ENDBRANCH  82  85
ENDBRANCH  79  82
ENDBRANCH  30  79
ENDBRANCH  27  30
ENDBRANCH  24  26
BRANCH  24  90
ATOM     90  CB  GLU d   1      27.268  30.163  16.809  0.00  0.00    -0.029 C 
ATOM     91  H37 GLU d   1      28.043  30.933  16.679  0.00  0.00     0.037 H 
ATOM     92  H38 GLU d   1      26.639  30.119  15.907  0.00  0.00     0.037 H 
BRANCH  90  93
ATOM     93  CG  GLU d   1      27.955  28.829  16.965  0.00  0.00     0.018 C 
ATOM     94  H39 GLU d   1      27.200  28.065  17.199  0.00  0.00     0.049 H 
ATOM     95  H40 GLU d   1      28.678  28.895  17.791  0.00  0.00     0.049 H 
BRANCH  93  96
ATOM     96  CD  GLU d   1      28.694  28.420  15.693  0.00  0.00     0.172 C 
ATOM     97  OE1 GLU d   1      28.113  28.581  14.591  0.00  0.00    -0.648 OA
ATOM     98  OE2 GLU d   1      29.844  27.931  15.795  0.00  0.00    -0.648 OA
ENDBRANCH  93  96
ENDBRANCH  90  93
ENDBRANCH  24  90
ENDBRANCH  21  24
ENDBRANCH  18  20
BRANCH  18  99
ATOM     99  CB  ARG d   1      22.478  31.734  15.526  0.00  0.00    -0.036 C 
ATOM    100  H43 ARG d   1      21.621  31.710  16.215  0.00  0.00     0.036 H 
ATOM    101  H44 ARG d   1      22.811  30.706  15.319  0.00  0.00     0.036 H 
BRANCH  99 102
ATOM    102  CG  ARG d   1      22.019  32.345  14.233  0.00  0.00    -0.048 C 
ATOM    103  H45 ARG d   1      22.841  32.929  13.793  0.00  0.00     0.035 H 
ATOM    104  H46 ARG d   1      21.162  33.007  14.427  0.00  0.00     0.035 H 
BRANCH 102 105
ATOM    105  CD  ARG d   1      21.604  31.258  13.267  0.00  0.00     0.009 C 
ATOM    106  H47 ARG d   1      22.258  30.387  13.418  0.00  0.00     0.064 H 
ATOM    107  H48 ARG d   1      21.727  31.635  12.241  0.00  0.00     0.064 H 
BRANCH 105 108
ATOM    108  NE  ARG d   1      20.220  30.836  13.443  0.00  0.00    -0.227 N 
ATOM    109  CZ  ARG d   1      19.828  29.564  13.435  0.00  0.00     0.665 C 
ATOM    110  NH1 ARG d   1      20.725  28.595  13.273  0.00  0.00    -0.235 N 
ATOM    111  NH2 ARG d   1      18.542  29.265  13.552  0.00  0.00    -0.235 N 
ATOM    112  H50 ARG d   1      20.424  27.610  13.267  0.00  0.00     0.174 HD
ATOM    113  H51 ARG d   1      21.721  28.830  13.154  0.00  0.00     0.174 HD
ATOM    114  H52 ARG d   1      17.848  30.016  13.677  0.00  0.00     0.174 HD
ATOM    115  H53 ARG d   1      18.237  28.282  13.518  0.00  0.00     0.174 HD
ATOM    116  H49 ARG d   1      19.504  31.564  13.582  0.00  0.00     0.177 HD
ENDBRANCH 105 108
ENDBRANCH 102 105
ENDBRANCH  99 102
ENDBRANCH  18  99
ENDBRANCH  15  18
ENDBRANCH  12  14
BRANCH  12 117
ATOM    117  CB  ARG d   1      21.445  32.472  20.539  0.00  0.00    -0.036 C 
ATOM    118  H56 ARG d   1      21.194  32.995  21.474  0.00  0.00     0.036 H 
ATOM    119  H57 ARG d   1      22.098  31.615  20.762  0.00  0.00     0.036 H 
BRANCH 117 120
ATOM    120  CG  ARG d   1      20.151  31.941  19.925  0.00  0.00    -0.048 C 
ATOM    121  H58 ARG d   1      19.761  31.140  20.570  0.00  0.00     0.035 H 
ATOM    122  H59 ARG d   1      20.378  31.533  18.929  0.00  0.00     0.035 H 
BRANCH 120 123
ATOM    123  CD  ARG d   1      19.074  33.013  19.777  0.00  0.00     0.009 C 
ATOM    124  H60 ARG d   1      19.417  33.769  19.055  0.00  0.00     0.064 H 
ATOM    125  H61 ARG d   1      18.905  33.489  20.754  0.00  0.00     0.064 H 
BRANCH 123 126
ATOM    126  NE  ARG d   1      17.816  32.437  19.303  0.00  0.00    -0.227 N 
ATOM    127  CZ  ARG d   1      17.538  32.173  18.025  0.00  0.00     0.665 C 
ATOM    128  NH1 ARG d   1      18.428  32.448  17.078  0.00  0.00    -0.235 N 
ATOM    129  NH2 ARG d   1      16.387  31.596  17.694  0.00  0.00    -0.235 N 
ATOM    130  H63 ARG d   1      18.211  32.243  16.092  0.00  0.00     0.174 HD
ATOM    131  H64 ARG d   1      19.335  32.866  17.329  0.00  0.00     0.174 HD
ATOM    132  H65 ARG d   1      15.691  31.379  18.422  0.00  0.00     0.174 HD
ATOM    133  H66 ARG d   1      16.191  31.366  16.709  0.00  0.00     0.174 HD
ATOM    134  H62 ARG d   1      17.094  32.220  20.005  0.00  0.00     0.177 HD
ENDBRANCH 123 126
ENDBRANCH 120 123
ENDBRANCH 117 120
ENDBRANCH  12 117
ENDBRANCH   9  12
ENDBRANCH   5   8
ENDBRANCH   1   5
BRANCH   3 135
ATOM    135  CA  SER d   1      26.287  31.846  23.167  0.00  0.00     0.109 C 
ATOM    136  H71 SER d   1      26.459  32.522  24.018  0.00  0.00     0.090 H 
BRANCH 135 137
ATOM    137  C   SER d   1      27.601  31.177  22.781  0.00  0.00     0.243 C 
ATOM    138  O   SER d   1      27.686  30.478  21.769  0.00  0.00    -0.271 OA
ATOM    139  N   ASN d   1      28.623  31.406  23.597  0.00  0.00    -0.345 N 
ATOM    140  H75 ASN d   1      28.466  31.966  24.410  0.00  0.00     0.163 HD
BRANCH 139 141
ATOM    141  CA  ASN d   1      29.966  30.879  23.364  0.00  0.00     0.097 C 
ATOM    142  H76 ASN d   1      30.076  30.673  22.289  0.00  0.00     0.088 H 
BRANCH 141 143
ATOM    143  C   ASN d   1      30.260  29.601  24.134  0.00  0.00     0.241 C 
ATOM    144  O   ASN d   1      31.168  28.846  23.772  0.00  0.00    -0.271 OA
ATOM    145  N   VAL d   1      29.514  29.391  25.215  0.00  0.00    -0.346 N 
ATOM    146  H81 VAL d   1      28.809  30.060  25.452  0.00  0.00     0.163 HD
BRANCH 145 147
ATOM    147  CA  VAL d   1      29.687  28.224  26.063  0.00  0.00     0.092 C 
ATOM    148  H82 VAL d   1      30.613  28.354  26.643  0.00  0.00     0.088 H 
BRANCH 147 149
ATOM    149  C   VAL d   1      29.815  26.957  25.229  0.00  0.00     0.241 C 
ATOM    150  O   VAL d   1      28.911  26.603  24.473  0.00  0.00    -0.271 OA
ATOM    151  N   ALA d   1      30.956  26.289  25.362  0.00  0.00    -0.346 N 
ATOM    152  H90 ALA d   1      31.654  26.640  25.986  0.00  0.00     0.163 HD
BRANCH 151 153
ATOM    153  CA  ALA d   1      31.219  25.060  24.626  0.00  0.00     0.086 C 
ATOM    154  H91 ALA d   1      30.865  25.179  23.591  0.00  0.00     0.086 H 
BRANCH 153 155
ATOM    155  C   ALA d   1      30.476  23.898  25.275  0.00  0.00     0.240 C 
ATOM    156  O   ALA d   1      30.994  23.246  26.173  0.00  0.00    -0.271 OA
ATOM    157  N   LEU d   1      29.262  23.636  24.808  0.00  0.00    -0.346 N 
ATOM    158  H95 LEU d   1      28.894  24.186  24.058  0.00  0.00     0.163 HD
BRANCH 157 159
ATOM    159  CA  LEU d   1      28.457  22.562  25.370  0.00  0.00     0.089 C 
ATOM    160  H96 LEU d   1      28.612  22.549  26.459  0.00  0.00     0.087 H 
BRANCH 159 161
ATOM    161  C   LEU d   1      28.876  21.209  24.820  0.00  0.00     0.241 C 
ATOM    162  O   LEU d   1      28.748  20.942  23.626  0.00  0.00    -0.271 OA
ATOM    163  N   MET d   1      29.399  20.361  25.697  0.00  0.00    -0.346 N 
ATOM    164 6H10 MET d   1      29.490  20.633  26.655  0.00  0.00     0.163 HD
BRANCH 163 165
ATOM    165  CA  MET d   1      29.841  19.042  25.280  0.00  0.00     0.090 C 
ATOM    166 7H10 MET d   1      29.805  19.011  24.181  0.00  0.00     0.087 H 
BRANCH 165 167
ATOM    167  C   MET d   1      28.978  17.910  25.805  0.00  0.00     0.241 C 
ATOM    168  O   MET d   1      28.276  18.048  26.801  0.00  0.00    -0.271 OA
ATOM    169  N   LEU d   1      29.053  16.781  25.113  0.00  0.00    -0.346 N 
ATOM    170 5H11 LEU d   1      29.646  16.750  24.308  0.00  0.00     0.163 HD
BRANCH 169 171
ATOM    171  CA  LEU d   1      28.309  15.586  25.476  0.00  0.00     0.089 C 
ATOM    172 6H11 LEU d   1      27.668  15.788  26.347  0.00  0.00     0.087 H 
BRANCH 171 173
ATOM    173  C   LEU d   1      29.334  14.517  25.809  0.00  0.00     0.241 C 
ATOM    174  O   LEU d   1      30.402  14.465  25.198  0.00  0.00    -0.271 OA
ATOM    175  N   ASP d   1      29.016  13.658  26.765  0.00  0.00    -0.346 N 
ATOM    176 6H12 ASP d   1      28.134  13.730  27.231  0.00  0.00     0.163 HD
BRANCH 175 177
ATOM    177  CA  ASP d   1      29.948  12.615  27.133  0.00  0.00     0.098 C 
ATOM    178 7H12 ASP d   1      30.929  12.864  26.703  0.00  0.00     0.088 H 
BRANCH 177 179
ATOM    179  C   ASP d   1      29.519  11.266  26.578  0.00  0.00     0.241 C 
ATOM    180  O   ASP d   1      30.271  10.302  26.631  0.00  0.00    -0.271 OA
ATOM    181  N   CYS d   1      28.301  11.198  26.050  0.00  0.00    -0.344 N 
ATOM    182 0H13 CYS d   1      27.721  12.012  26.051  0.00  0.00     0.163 HD
BRANCH 181 183
ATOM    183  CA  CYS d   1      27.792   9.956  25.468  0.00  0.00     0.104 C 
ATOM    184 1H13 CYS d   1      28.613   9.474  24.917  0.00  0.00     0.090 H 
BRANCH 183 185
ATOM    185  C   CYS d   1      26.659  10.249  24.490  0.00  0.00     0.197 C 
ATOM    186  O   CYS d   1      26.654  11.369  23.931  0.00  0.00    -0.646 OA
ATOM    187  OXT CYS d   1      25.810   9.349  24.281  0.00  0.00    -0.646 OA
ENDBRANCH 183 185
BRANCH 183 188
ATOM    188  CB  CYS d   1      27.303   8.984  26.556  0.00  0.00     0.003 C 
ATOM    189 2H13 CYS d   1      28.092   8.902  27.318  0.00  0.00     0.052 H 
ATOM    190 3H13 CYS d   1      27.142   8.002  26.087  0.00  0.00     0.052 H 
BRANCH 188 191
ATOM    191  SG  CYS d   1      25.759   9.466  27.395  0.00  0.00    -0.180 SA
ATOM    192 4H13 CYS d   1      25.887  10.359  27.845  0.00  0.00     0.101 HD
ENDBRANCH 188 191
ENDBRANCH 183 188
ENDBRANCH 181 183
ENDBRANCH 177 179
BRANCH 177 193
ATOM    193  CB  ASP d   1      30.092  12.550  28.653  0.00  0.00     0.043 C 
ATOM    194 8H12 ASP d   1      29.220  12.024  29.069  0.00  0.00     0.052 H 
ATOM    195 9H12 ASP d   1      30.125  13.575  29.049  0.00  0.00     0.052 H 
BRANCH 193 196
ATOM    196  CG  ASP d   1      31.355  11.818  29.082  0.00  0.00     0.175 C 
ATOM    197  OD1 ASP d   1      31.245  10.671  29.573  0.00  0.00    -0.648 OA
ATOM    198  OD2 ASP d   1      32.453  12.398  28.912  0.00  0.00    -0.648 OA
ENDBRANCH 193 196
ENDBRANCH 177 193
ENDBRANCH 175 177
ENDBRANCH 171 173
BRANCH 171 199
ATOM    199  CB  LEU d   1      27.446  15.114  24.298  0.00  0.00    -0.035 C 
ATOM    200 7H11 LEU d   1      26.860  14.249  24.643  0.00  0.00     0.037 H 
ATOM    201 8H11 LEU d   1      28.127  14.798  23.494  0.00  0.00     0.037 H 
BRANCH 199 202
ATOM    202  CG  LEU d   1      26.466  16.125  23.699  0.00  0.00    -0.059 C 
ATOM    203 9H11 LEU d   1      27.033  16.952  23.247  0.00  0.00     0.038 H 
BRANCH 202 204
ATOM    204  CD1 LEU d   1      25.641  15.445  22.618  0.00  0.00    -0.073 C 
ATOM    205 0H12 LEU d   1      24.935  16.169  22.185  0.00  0.00     0.028 H 
ATOM    206 1H12 LEU d   1      25.082  14.606  23.057  0.00  0.00     0.028 H 
ATOM    207 2H12 LEU d   1      26.309  15.068  21.830  0.00  0.00     0.028 H 
ENDBRANCH 202 204
BRANCH 202 208
ATOM    208  CD2 LEU d   1      25.569  16.687  24.799  0.00  0.00    -0.073 C 
ATOM    209 3H12 LEU d   1      26.190  17.172  25.566  0.00  0.00     0.028 H 
ATOM    210 4H12 LEU d   1      24.994  15.869  25.257  0.00  0.00     0.028 H 
ATOM    211 5H12 LEU d   1      24.877  17.425  24.367  0.00  0.00     0.028 H 
ENDBRANCH 202 208
ENDBRANCH 199 202
ENDBRANCH 171 199
ENDBRANCH 169 171
ENDBRANCH 165 167
BRANCH 165 212
ATOM    212  CB  MET d   1      31.273  18.813  25.723  0.00  0.00    -0.030 C 
ATOM    213 8H10 MET d   1      31.599  17.830  25.352  0.00  0.00     0.037 H 
ATOM    214 9H10 MET d   1      31.303  18.818  26.823  0.00  0.00     0.037 H 
BRANCH 212 215
ATOM    215  CG  MET d   1      32.236  19.861  25.213  0.00  0.00    -0.021 C 
ATOM    216 0H11 MET d   1      31.898  20.857  25.535  0.00  0.00     0.049 H 
ATOM    217 1H11 MET d   1      32.270  19.823  24.114  0.00  0.00     0.049 H 
BRANCH 215 218
ATOM    218  SD  MET d   1      33.867  19.546  25.870  0.00  0.00    -0.173 SA
BRANCH 218 219
ATOM    219  CE  MET d   1      33.551  19.752  27.671  0.00  0.00    -0.035 C 
ATOM    220 2H11 MET d   1      34.484  19.585  28.228  0.00  0.00     0.041 H 
ATOM    221 3H11 MET d   1      32.794  19.023  27.996  0.00  0.00     0.041 H 
ATOM    222 4H11 MET d   1      33.185  20.771  27.865  0.00  0.00     0.041 H 
ENDBRANCH 218 219
ENDBRANCH 215 218
ENDBRANCH 212 215
ENDBRANCH 165 212
ENDBRANCH 163 165
ENDBRANCH 159 161
BRANCH 159 223
ATOM    223  CB  LEU d   1      26.973  22.833  25.099  0.00  0.00    -0.035 C 
ATOM    224  H97 LEU d   1      26.385  22.004  25.519  0.00  0.00     0.037 H 
ATOM    225  H98 LEU d   1      26.820  22.877  24.011  0.00  0.00     0.037 H 
BRANCH 223 226
ATOM    226  CG  LEU d   1      26.470  24.147  25.714  0.00  0.00    -0.059 C 
ATOM    227  H99 LEU d   1      27.036  24.984  25.280  0.00  0.00     0.038 H 
BRANCH 226 228
ATOM    228  CD1 LEU d   1      24.997  24.342  25.411  0.00  0.00    -0.073 C 
ATOM    229 0H10 LEU d   1      24.653  25.286  25.858  0.00  0.00     0.028 H 
ATOM    230 1H10 LEU d   1      24.422  23.505  25.834  0.00  0.00     0.028 H 
ATOM    231 2H10 LEU d   1      24.848  24.376  24.322  0.00  0.00     0.028 H 
ENDBRANCH 226 228
BRANCH 226 232
ATOM    232  CD2 LEU d   1      26.693  24.125  27.219  0.00  0.00    -0.073 C 
ATOM    233 3H10 LEU d   1      27.763  23.983  27.429  0.00  0.00     0.028 H 
ATOM    234 4H10 LEU d   1      26.120  23.298  27.663  0.00  0.00     0.028 H 
ATOM    235 5H10 LEU d   1      26.357  25.078  27.653  0.00  0.00     0.028 H 
ENDBRANCH 226 232
ENDBRANCH 223 226
ENDBRANCH 159 223
ENDBRANCH 157 159
ENDBRANCH 153 155
BRANCH 153 236
ATOM    236  CB  ALA d   1      32.709  24.776  24.608  0.00  0.00    -0.049 C 
ATOM    237  H92 ALA d   1      32.898  23.847  24.051  0.00  0.00     0.030 H 
ATOM    238  H93 ALA d   1      33.074  24.665  25.640  0.00  0.00     0.030 H 
ATOM    239  H94 ALA d   1      33.235  25.610  24.120  0.00  0.00     0.030 H 
ENDBRANCH 153 236
ENDBRANCH 151 153
ENDBRANCH 147 149
BRANCH 147 240
ATOM    240  CB  VAL d   1      28.505  28.083  27.051  0.00  0.00    -0.033 C 
ATOM    241  H83 VAL d   1      27.569  27.993  26.480  0.00  0.00     0.042 H 
BRANCH 240 242
ATOM    242  CG1 VAL d   1      28.684  26.839  27.905  0.00  0.00    -0.071 C 
ATOM    243  H84 VAL d   1      27.839  26.749  28.603  0.00  0.00     0.028 H 
ATOM    244  H85 VAL d   1      29.622  26.916  28.474  0.00  0.00     0.028 H 
ATOM    245  H86 VAL d   1      28.720  25.951  27.257  0.00  0.00     0.028 H 
ENDBRANCH 240 242
BRANCH 240 246
ATOM    246  CG2 VAL d   1      28.429  29.320  27.940  0.00  0.00    -0.071 C 
ATOM    247  H87 VAL d   1      28.299  30.215  27.313  0.00  0.00     0.028 H 
ATOM    248  H88 VAL d   1      29.358  29.411  28.522  0.00  0.00     0.028 H 
ATOM    249  H89 VAL d   1      27.575  29.226  28.626  0.00  0.00     0.028 H 
ENDBRANCH 240 246
ENDBRANCH 147 240
ENDBRANCH 145 147
ENDBRANCH 141 143
BRANCH 141 250
ATOM    250  CB  ASN d   1      30.987  31.925  23.787  0.00  0.00     0.036 C 
ATOM    251  H77 ASN d   1      30.920  32.784  23.103  0.00  0.00     0.051 H 
ATOM    252  H78 ASN d   1      31.993  31.485  23.725  0.00  0.00     0.051 H 
BRANCH 250 253
ATOM    253  CG  ASN d   1      30.749  32.410  25.212  0.00  0.00     0.217 C 
ATOM    254  OD1 ASN d   1      29.779  33.134  25.481  0.00  0.00    -0.274 OA
ATOM    255  ND2 ASN d   1      31.619  31.996  26.137  0.00  0.00    -0.370 N 
ATOM    256  H79 ASN d   1      31.511  32.283  27.089  0.00  0.00     0.159 HD
ATOM    257  H80 ASN d   1      32.378  31.399  25.878  0.00  0.00     0.159 HD
ENDBRANCH 250 253
ENDBRANCH 141 250
ENDBRANCH 139 141
ENDBRANCH 135 137
BRANCH 135 258
ATOM    258  CB  SER d   1      25.252  30.795  23.576  0.00  0.00     0.044 C 
ATOM    259  H72 SER d   1      25.210  30.010  22.807  0.00  0.00     0.077 H 
ATOM    260  H73 SER d   1      24.266  31.274  23.666  0.00  0.00     0.077 H 
BRANCH 258 261
ATOM    261  OG  SER d   1      25.603  30.213  24.818  0.00  0.00    -0.398 OA
ATOM    262  H74 SER d   1      25.638  30.889  25.485  0.00  0.00     0.209 HD
ENDBRANCH 258 261
ENDBRANCH 135 258
ENDBRANCH   3 135
TORSDOF 78
