REMARK  7 active torsions:
REMARK  status: ('A' for Active; 'I' for Inactive)
REMARK    1  A    between atoms: N2_14  and  N1_1 
REMARK    2  A    between atoms: C4_2  and  C2_12 
REMARK    3  A    between atoms: C8_6  and  C7_5 
REMARK    4  A    between atoms: C9_15  and  C10_7 
REMARK    5  A    between atoms: C13_8  and  O2_19 
REMARK    6  A    between atoms: C2_12  and  C1_11 
REMARK    7  A    between atoms: C2_12  and  C3_13 
REMARK       I    between atoms: N2_14  and  C9_15 
ROOT
ATOM      1  C4  1BA d   1     -51.632 118.544   5.437  0.00  0.00    -0.055 A 
ATOM      2  C5  1BA d   1     -53.007 118.567   5.490  0.00  0.00    -0.076 A 
ATOM      3  C6  1BA d   1     -53.701 119.392   4.632  0.00  0.00    -0.071 A 
ATOM      4  C7  1BA d   1     -53.034 120.194   3.731  0.00  0.00    -0.017 A 
ATOM      5  C17 1BA d   1     -50.981 119.348   4.536  0.00  0.00    -0.076 A 
ATOM      6  C16 1BA d   1     -51.667 120.179   3.683  0.00  0.00    -0.071 A 
ATOM      7  H1  1BA d   1     -53.538 117.943   6.199  0.00  0.00     0.084 H 
ATOM      8  H2  1BA d   1     -54.784 119.411   4.666  0.00  0.00     0.084 H 
ATOM      9  H5  1BA d   1     -49.898 119.327   4.496  0.00  0.00     0.084 H 
ATOM     10  H18 1BA d   1     -51.133 120.812   2.983  0.00  0.00     0.084 H 
ENDROOT
BRANCH   4  11
ATOM     11  C8  1BA d   1     -53.822 121.071   2.843  0.00  0.00     0.032 C 
ATOM     12  N1  1BA d   1     -53.329 121.876   1.950  0.00  0.00    -0.183 NA
ATOM     13  H3  1BA d   1     -54.906 121.041   2.945  0.00  0.00     0.118 H 
BRANCH  12  14
ATOM     14  N2  1BA d   1     -54.265 122.599   1.253  0.00  0.00    -0.243 N 
ATOM     15  C9  1BA d   1     -53.805 123.492   0.305  0.00  0.00     0.271 C 
ATOM     16  O1  1BA d   1     -52.701 123.478  -0.210  0.00  0.00    -0.266 OA
ATOM     17  H13 1BA d   1     -55.243 122.483   1.425  0.00  0.00     0.192 HD
BRANCH  15  18
ATOM     18  C10 1BA d   1     -54.703 124.560  -0.135  0.00  0.00     0.033 A 
ATOM     19  C15 1BA d   1     -54.973 124.646  -1.478  0.00  0.00    -0.065 A 
ATOM     20  C14 1BA d   1     -55.799 125.638  -1.938  0.00  0.00    -0.050 A 
ATOM     21  H4  1BA d   1     -54.536 123.935  -2.170  0.00  0.00     0.085 H 
ATOM     22  C13 1BA d   1     -56.333 126.525  -1.034  0.00  0.00     0.065 A 
ATOM     23  H17 1BA d   1     -56.027 125.722  -2.994  0.00  0.00     0.087 H 
ATOM     24  C12 1BA d   1     -56.065 126.449   0.315  0.00  0.00    -0.050 A 
ATOM     25  C11 1BA d   1     -55.235 125.448   0.769  0.00  0.00    -0.065 A 
ATOM     26  H15 1BA d   1     -56.499 127.163   1.006  0.00  0.00     0.087 H 
ATOM     27  H14 1BA d   1     -55.005 125.362   1.825  0.00  0.00     0.085 H 
BRANCH  22  28
ATOM     28  O2  1BA d   1     -57.157 127.515  -1.507  0.00  0.00    -0.361 OA
ATOM     29  H16 1BA d   1     -58.013 127.433  -1.103  0.00  0.00     0.217 HD
ENDBRANCH  22  28
ENDBRANCH  15  18
ENDBRANCH  12  14
ENDBRANCH   4  11
BRANCH   1  30
ATOM     30  C2  1BA d   1     -50.779 117.668   6.307  0.00  0.00    -0.036 C 
ATOM     31  H9  1BA d   1     -49.957 117.294   5.679  0.00  0.00     0.046 H 
BRANCH  30  32
ATOM     32  C1  1BA d   1     -50.164 118.420   7.461  0.00  0.00    -0.069 C 
ATOM     33  H6  1BA d   1     -49.552 117.732   8.062  0.00  0.00     0.028 H 
ATOM     34  H7  1BA d   1     -50.961 118.845   8.088  0.00  0.00     0.028 H 
ATOM     35  H8  1BA d   1     -49.530 119.231   7.074  0.00  0.00     0.028 H 
ENDBRANCH  30  32
BRANCH  30  36
ATOM     36  C3  1BA d   1     -51.537 116.466   6.832  0.00  0.00    -0.069 C 
ATOM     37  H10 1BA d   1     -51.985 115.918   5.990  0.00  0.00     0.028 H 
ATOM     38  H11 1BA d   1     -52.331 116.803   7.514  0.00  0.00     0.028 H 
ATOM     39  H12 1BA d   1     -50.845 115.804   7.373  0.00  0.00     0.028 H 
ENDBRANCH  30  36
ENDBRANCH   1  30
TORSDOF 7
