REMARK  11 active torsions:
REMARK  status: ('A' for Active; 'I' for Inactive)
REMARK    1  A    between atoms: N5_2  and  C16_4 
REMARK    2  A    between atoms: C11_9  and  C10_10 
REMARK       I    between atoms: C10_10  and  N4_12 
REMARK    3  A    between atoms: N4_12  and  C9_13 
REMARK    4  A    between atoms: C9_13  and  C8_14 
REMARK       I    between atoms: C8_14  and  N3_16 
REMARK    5  A    between atoms: N3_16  and  N2_17 
REMARK    6  A    between atoms: C7_18  and  C6_19 
REMARK    7  A    between atoms: C17_20  and  O9_21 
REMARK    8  A    between atoms: C2_22  and  C1_23 
REMARK    9  A    between atoms: C4_24  and  C5_27 
REMARK   10  A    between atoms: C5_27  and  O1_28 
REMARK   11  A    between atoms: O1_28  and  P1_29 
ROOT
ATOM      1  C8  BLP d   1     -10.540  11.034  52.992  0.00  0.00     0.255 C 
ATOM      2  O5  BLP d   1     -10.293  10.408  54.021  0.00  0.00    -0.270 OA
ATOM      3  N3  BLP d   1      -9.701  11.278  51.869  0.00  0.00    -0.246 N 
ATOM      4  H8  BLP d   1      -9.989  11.788  51.059  0.00  0.00     0.192 HD
ENDROOT
BRANCH   3   5
ATOM      5  N2  BLP d   1      -8.373  10.699  52.035  0.00  0.00    -0.184 NA
ATOM      6  C7  BLP d   1      -7.409  10.464  51.211  0.00  0.00     0.035 C 
ATOM      7  H9  BLP d   1      -7.448  10.819  50.182  0.00  0.00     0.118 H 
BRANCH   6   8
ATOM      8  C6  BLP d   1      -6.213   9.672  51.727  0.00  0.00     0.028 A 
ATOM      9  C17 BLP d   1      -6.011   9.309  53.092  0.00  0.00     0.102 A 
ATOM     10  C2  BLP d   1      -4.902   8.520  53.453  0.00  0.00     0.064 A 
ATOM     11  N1  BLP d   1      -4.040   8.084  52.486  0.00  0.00    -0.262 NA
ATOM     12  C3  BLP d   1      -4.219   8.379  51.195  0.00  0.00     0.012 A 
ATOM     13  C4  BLP d   1      -5.292   9.164  50.781  0.00  0.00    -0.002 A 
ATOM     14  H14 BLP d   1      -3.518   8.002  50.459  0.00  0.00     0.115 H 
BRANCH   9  15
ATOM     15  O9  BLP d   1      -6.867   9.697  54.099  0.00  0.00    -0.358 OA
ATOM     16  H10 BLP d   1      -7.737   9.359  53.922  0.00  0.00     0.217 HD
ENDBRANCH   9  15
BRANCH  10  17
ATOM     17  C1  BLP d   1      -4.613   8.120  54.885  0.00  0.00    -0.033 C 
ATOM     18  H11 BLP d   1      -3.699   7.508  54.918  0.00  0.00     0.035 H 
ATOM     19  H12 BLP d   1      -5.458   7.538  55.281  0.00  0.00     0.035 H 
ATOM     20  H13 BLP d   1      -4.472   9.023  55.497  0.00  0.00     0.035 H 
ENDBRANCH  10  17
BRANCH  13  21
ATOM     21  C5  BLP d   1      -5.427   9.416  49.275  0.00  0.00     0.058 C 
ATOM     22  H15 BLP d   1      -6.491   9.556  49.035  0.00  0.00     0.082 H 
ATOM     23  H16 BLP d   1      -5.041   8.539  48.735  0.00  0.00     0.082 H 
BRANCH  21  24
ATOM     24  O1  BLP d   1      -4.708  10.568  48.846  0.00  0.00    -0.278 OA
BRANCH  24  25
ATOM     25  P1  BLP d   1      -5.246  11.446  47.599  0.00  0.00     0.422 P 
ATOM     26  O2  BLP d   1      -6.683  11.805  48.069  0.00  0.00    -0.617 OA
ATOM     27  O3  BLP d   1      -4.308  12.608  47.615  0.00  0.00    -0.617 OA
ATOM     28  O4  BLP d   1      -5.204  10.434  46.449  0.00  0.00    -0.617 OA
ENDBRANCH  24  25
ENDBRANCH  21  24
ENDBRANCH  13  21
ENDBRANCH   6   8
ENDBRANCH   3   5
BRANCH   1  29
ATOM     29  C9  BLP d   1     -11.909  11.446  52.943  0.00  0.00     0.071 C 
ATOM     30  H6  BLP d   1     -12.483  11.106  53.817  0.00  0.00     0.078 H 
ATOM     31  H7  BLP d   1     -12.018  12.535  52.834  0.00  0.00     0.078 H 
BRANCH  29  32
ATOM     32  N4  BLP d   1     -12.271  10.708  51.699  0.00  0.00    -0.348 N 
ATOM     33  C10 BLP d   1     -12.581   9.386  51.456  0.00  0.00     0.254 C 
ATOM     34  O6  BLP d   1     -12.681   8.597  52.449  0.00  0.00    -0.268 OA
ATOM     35  H5  BLP d   1     -12.293  11.284  50.882  0.00  0.00     0.163 HD
BRANCH  33  36
ATOM     36  C11 BLP d   1     -12.984   8.916  50.054  0.00  0.00     0.065 A 
ATOM     37  C16 BLP d   1     -13.297   7.595  49.716  0.00  0.00     0.118 A 
ATOM     38  C15 BLP d   1     -13.763   7.311  48.400  0.00  0.00    -0.050 A 
ATOM     39  C14 BLP d   1     -13.899   8.331  47.422  0.00  0.00    -0.081 A 
ATOM     40  H1  BLP d   1     -14.020   6.291  48.139  0.00  0.00     0.087 H 
ATOM     41  C13 BLP d   1     -13.606   9.672  47.769  0.00  0.00    -0.082 A 
ATOM     42  H2  BLP d   1     -14.225   8.085  46.418  0.00  0.00     0.083 H 
ATOM     43  C12 BLP d   1     -13.161   9.917  49.060  0.00  0.00    -0.065 A 
ATOM     44  H3  BLP d   1     -13.725  10.477  47.053  0.00  0.00     0.083 H 
ATOM     45  H4  BLP d   1     -12.933  10.942  49.329  0.00  0.00     0.085 H 
BRANCH  37  46
ATOM     46  N5  BLP d   1     -13.204   6.487  50.545  0.00  0.00    -0.115 N 
ATOM     47  O8  BLP d   1     -12.874   6.515  51.759  0.00  0.00    -0.532 OA
ATOM     48  O7  BLP d   1     -13.488   5.321  50.070  0.00  0.00    -0.532 OA
ENDBRANCH  37  46
ENDBRANCH  33  36
ENDBRANCH  29  32
ENDBRANCH   1  29
TORSDOF 11
