REMARK  10 active torsions:
REMARK  status: ('A' for Active; 'I' for Inactive)
REMARK    1  A    between atoms: C30_1  and  C28_2 
REMARK    2  A    between atoms: C28_2  and  O25_3 
REMARK    3  A    between atoms: O25_3  and  C15_4 
REMARK    4  A    between atoms: C15_4  and  C13_5 
REMARK    5  A    between atoms: C15_4  and  C19_8 
REMARK    6  A    between atoms: C19_8  and  C18_9 
REMARK    7  A    between atoms: N4_17  and  C9_18 
REMARK    8  A    between atoms: C9_18  and  C3_19 
REMARK    9  A    between atoms: C7_20  and  C26_21 
REMARK   10  A    between atoms: C1_24  and  C6_25 
ROOT
ATOM      1  C18 208 d   1       2.221  26.684  19.770  0.00  0.00    -0.054 A 
ATOM      2  C21 208 d   1       3.264  27.267  19.013  0.00  0.00    -0.075 A 
ATOM      3  C17 208 d   1       2.336  25.394  20.262  0.00  0.00    -0.065 A 
ATOM      4  C11 208 d   1       3.519  24.678  20.012  0.00  0.00    -0.007 A 
ATOM      5  C12 208 d   1       3.945  23.365  20.395  0.00  0.00    -0.056 A 
ATOM      6  C10 208 d   1       5.205  23.197  19.919  0.00  0.00    -0.019 A 
ATOM      7  C8  208 d   1       4.536  25.281  19.286  0.00  0.00     0.044 A 
ATOM      8  C14 208 d   1       4.437  26.574  18.758  0.00  0.00    -0.056 A 
ATOM      9  N4  208 d   1       5.622  24.369  19.227  0.00  0.00    -0.350 N 
ATOM     10  H9  208 d   1       3.144  28.272  18.626  0.00  0.00     0.084 H 
ATOM     11  H10 208 d   1       1.528  24.945  20.829  0.00  0.00     0.085 H 
ATOM     12  H11 208 d   1       3.366  22.637  20.962  0.00  0.00     0.086 H 
ATOM     13  H12 208 d   1       5.807  22.299  20.047  0.00  0.00     0.111 H 
ATOM     14  H13 208 d   1       5.240  27.013  18.177  0.00  0.00     0.087 H 
ENDROOT
BRANCH   9  15
ATOM     15  C9  208 d   1       6.929  24.596  18.596  0.00  0.00     0.042 C 
ATOM     16  H14 208 d   1       7.685  23.969  19.091  0.00  0.00     0.074 H 
ATOM     17  H15 208 d   1       7.205  25.656  18.702  0.00  0.00     0.074 H 
BRANCH  15  18
ATOM     18  C3  208 d   1       6.870  24.244  17.143  0.00  0.00     0.085 A 
ATOM     19  C7  208 d   1       7.154  24.954  16.039  0.00  0.00     0.078 A 
ATOM     20  O5  208 d   1       6.943  24.182  14.914  0.00  0.00    -0.294 OA
ATOM     21  C1  208 d   1       6.517  22.969  15.321  0.00  0.00     0.182 A 
ATOM     22  N2  208 d   1       6.458  22.971  16.695  0.00  0.00    -0.224 NA
BRANCH  19  23
ATOM     23  C26 208 d   1       7.630  26.367  15.890  0.00  0.00    -0.029 C 
ATOM     24  H16 208 d   1       7.754  26.601  14.822  0.00  0.00     0.036 H 
ATOM     25  H17 208 d   1       8.594  26.485  16.406  0.00  0.00     0.036 H 
ATOM     26  H18 208 d   1       6.891  27.051  16.332  0.00  0.00     0.036 H 
ENDBRANCH  19  23
BRANCH  21  27
ATOM     27  C6  208 d   1       6.175  21.842  14.477  0.00  0.00     0.039 A 
ATOM     28  C16 208 d   1       6.386  21.850  13.083  0.00  0.00     0.048 A 
ATOM     29 CL23 208 d   1       7.072  23.242  12.275  0.00  0.00    -0.083 Cl
ATOM     30  C27 208 d   1       6.055  20.733  12.314  0.00  0.00    -0.061 A 
ATOM     31  C31 208 d   1       5.511  19.608  12.919  0.00  0.00    -0.081 A 
ATOM     32  H19 208 d   1       6.223  20.744  11.243  0.00  0.00     0.086 H 
ATOM     33  C29 208 d   1       5.293  19.590  14.299  0.00  0.00    -0.082 A 
ATOM     34  H20 208 d   1       5.255  18.742  12.320  0.00  0.00     0.083 H 
ATOM     35  C24 208 d   1       5.621  20.695  15.069  0.00  0.00    -0.067 A 
ATOM     36  H21 208 d   1       4.867  18.711  14.768  0.00  0.00     0.083 H 
ATOM     37  H22 208 d   1       5.448  20.674  16.139  0.00  0.00     0.085 H 
ENDBRANCH  21  27
ENDBRANCH  15  18
ENDBRANCH   9  15
BRANCH   1  38
ATOM     38  C19 208 d   1       0.977  27.468  20.068  0.00  0.00    -0.007 C 
ATOM     39  H7  208 d   1       0.504  27.056  20.971  0.00  0.00     0.044 H 
ATOM     40  H8  208 d   1       1.252  28.518  20.245  0.00  0.00     0.044 H 
BRANCH  38  41
ATOM     41  C15 208 d   1      -0.024  27.405  18.911  0.00  0.00     0.125 C 
ATOM     42  H6  208 d   1      -0.076  26.369  18.545  0.00  0.00     0.101 H 
BRANCH  41  43
ATOM     43  O25 208 d   1       0.398  28.243  17.838  0.00  0.00    -0.375 OA
BRANCH  43  44
ATOM     44  C28 208 d   1      -0.120  27.804  16.587  0.00  0.00     0.017 C 
ATOM     45  H4  208 d   1       0.272  26.801  16.363  0.00  0.00     0.073 H 
ATOM     46  H5  208 d   1      -1.218  27.765  16.642  0.00  0.00     0.073 H 
BRANCH  44  47
ATOM     47  C30 208 d   1       0.296  28.768  15.475  0.00  0.00    -0.056 C 
ATOM     48  H1  208 d   1      -0.110  28.417  14.515  0.00  0.00     0.030 H 
ATOM     49  H2  208 d   1       1.394  28.808  15.416  0.00  0.00     0.030 H 
ATOM     50  H3  208 d   1      -0.096  29.772  15.694  0.00  0.00     0.030 H 
ENDBRANCH  44  47
ENDBRANCH  43  44
ENDBRANCH  41  43
BRANCH  41  51
ATOM     51  C13 208 d   1      -1.382  27.811  19.402  0.00  0.00     0.203 C 
ATOM     52  O22 208 d   1      -2.117  26.922  19.926  0.00  0.00    -0.646 OA
ATOM     53  O20 208 d   1      -1.721  29.030  19.325  0.00  0.00    -0.646 OA
ENDBRANCH  41  51
ENDBRANCH  38  41
ENDBRANCH   1  38
TORSDOF 10
