REMARK  3 active torsions:
REMARK  status: ('A' for Active; 'I' for Inactive)
REMARK    1  A    between atoms: C1_1  and  C10_11 
REMARK    2  A    between atoms: C4_4  and  O5_5 
REMARK    3  A    between atoms: C8_9  and  C11_14 
ROOT
ATOM      1  C1  TSA d   1      -5.470   0.615   2.438  0.00  0.00     0.071 C 
ATOM      2  C2  TSA d   1      -5.310  -0.161   3.751  0.00  0.00    -0.086 C 
ATOM      3  C3  TSA d   1      -6.269  -0.075   4.694  0.00  0.00    -0.076 C 
ATOM      4  C4  TSA d   1      -7.331   1.017   4.754  0.00  0.00     0.076 C 
ATOM      5  C5  TSA d   1      -7.481   1.791   3.416  0.00  0.00     0.069 C 
ATOM      6  C6  TSA d   1      -6.077   1.986   2.793  0.00  0.00    -0.018 C 
ATOM      7  O7  TSA d   1      -8.294   1.127   2.459  0.00  0.00    -0.367 OA
ATOM      8  C8  TSA d   1      -7.885  -0.016   1.706  0.00  0.00     0.124 C 
ATOM      9  C9  TSA d   1      -6.400   0.038   1.350  0.00  0.00    -0.012 C 
ATOM     10  H1  TSA d   1      -4.428  -0.777   3.920  0.00  0.00     0.078 H 
ATOM     11  H2  TSA d   1      -6.287  -0.840   5.468  0.00  0.00     0.080 H 
ATOM     12  H3  TSA d   1      -8.298   0.577   5.038  0.00  0.00     0.093 H 
ATOM     13  H5  TSA d   1      -7.927   2.773   3.632  0.00  0.00     0.087 H 
ATOM     14  H6  TSA d   1      -6.163   2.595   1.881  0.00  0.00     0.039 H 
ATOM     15  H7  TSA d   1      -5.425   2.498   3.515  0.00  0.00     0.039 H 
ATOM     16  H8  TSA d   1      -8.459  -0.023   0.767  0.00  0.00     0.100 H 
ATOM     17  H9  TSA d   1      -6.068  -0.988   1.131  0.00  0.00     0.040 H 
ATOM     18  H10 TSA d   1      -6.291   0.659   0.449  0.00  0.00     0.040 H 
ENDROOT
BRANCH   8  19
ATOM     19  C11 TSA d   1      -8.197  -1.306   2.465  0.00  0.00     0.203 C 
ATOM     20  O3  TSA d   1      -7.906  -2.435   2.017  0.00  0.00    -0.646 OA
ATOM     21  O4  TSA d   1      -8.764  -1.149   3.554  0.00  0.00    -0.646 OA
ENDBRANCH   8  19
BRANCH   1  22
ATOM     22  C10 TSA d   1      -4.155   0.672   1.642  0.00  0.00     0.186 C 
ATOM     23  O1  TSA d   1      -3.968   1.656   0.912  0.00  0.00    -0.647 OA
ATOM     24  O2  TSA d   1      -3.326  -0.253   1.739  0.00  0.00    -0.647 OA
ENDBRANCH   1  22
BRANCH   4  25
ATOM     25  O5  TSA d   1      -6.900   1.955   5.717  0.00  0.00    -0.389 OA
ATOM     26  H4  TSA d   1      -6.811   1.524   6.559  0.00  0.00     0.210 HD
ENDBRANCH   4  25
TORSDOF 3
