REMARK  8 active torsions:
REMARK  status: ('A' for Active; 'I' for Inactive)
REMARK    1  A    between atoms: C22_2  and  C18_3 
REMARK       I    between atoms: C22_2  and  N24_16 
REMARK    2  A    between atoms: C15_7  and  C3_8 
REMARK    3  A    between atoms: N9_12  and  C10_13 
REMARK    4  A    between atoms: N24_16  and  C25_17 
REMARK    5  A    between atoms: C25_17  and  C27_18 
REMARK    6  A    between atoms: C25_17  and  C28_20 
REMARK    7  A    between atoms: C27_18  and  N43_19 
REMARK    8  A    between atoms: C28_20  and  C30_21 
ROOT
ATOM      1  O23 796 d   1      -9.690  -9.261   0.684  0.00  0.00    -0.267 OA
ATOM      2  C22 796 d   1     -10.094  -9.522   1.832  0.00  0.00     0.258 C 
ATOM      3  N24 796 d   1     -11.364  -9.586   2.201  0.00  0.00    -0.350 N 
ATOM      4  H9  796 d   1     -11.614 -10.049   3.051  0.00  0.00     0.163 HD
ENDROOT
BRANCH   3   5
ATOM      5  C25 796 d   1     -12.392  -8.987   1.375  0.00  0.00     0.039 C 
ATOM      6  H10 796 d   1     -12.137  -9.052   0.307  0.00  0.00     0.075 H 
BRANCH   5   7
ATOM      7  C27 796 d   1     -12.597  -7.523   1.750  0.00  0.00     0.098 C 
ATOM      8  H11 796 d   1     -11.612  -7.043   1.852  0.00  0.00     0.078 H 
ATOM      9  H12 796 d   1     -13.129  -7.476   2.712  0.00  0.00     0.078 H 
BRANCH   7  10
ATOM     10  N43 796 d   1     -13.369  -6.797   0.753  0.00  0.00    -0.077 N 
ATOM     11  H13 796 d   1     -13.477  -5.838   1.045  0.00  0.00     0.274 HD
ATOM     12  H14 796 d   1     -14.277  -7.223   0.656  0.00  0.00     0.274 HD
ATOM     13  H15 796 d   1     -12.887  -6.827  -0.132  0.00  0.00     0.274 HD
ENDBRANCH   7  10
ENDBRANCH   5   7
BRANCH   5  14
ATOM     14  C28 796 d   1     -13.592  -9.862   1.699  0.00  0.00    -0.019 C 
ATOM     15  H16 796 d   1     -14.514  -9.348   1.389  0.00  0.00     0.043 H 
ATOM     16  H17 796 d   1     -13.625 -10.052   2.782  0.00  0.00     0.043 H 
BRANCH  14  17
ATOM     17  C30 796 d   1     -13.475 -11.196   0.951  0.00  0.00    -0.034 A 
ATOM     18  C37 796 d   1     -13.875 -11.306  -0.371  0.00  0.00    -0.074 A 
ATOM     19  C36 796 d   1     -13.790 -12.540  -1.033  0.00  0.00    -0.061 A 
ATOM     20  H18 796 d   1     -14.255 -10.436  -0.895  0.00  0.00     0.084 H 
ATOM     21  C35 796 d   1     -13.307 -13.645  -0.365  0.00  0.00     0.035 A 
ATOM     22  H19 796 d   1     -14.103 -12.624  -2.067  0.00  0.00     0.086 H 
ATOM     23 CL4  796 d   1     -13.168 -15.231  -1.141  0.00  0.00    -0.084 Cl
ATOM     24  C34 796 d   1     -12.885 -13.567   0.922  0.00  0.00    -0.040 A 
ATOM     25  C33 796 d   1     -12.966 -12.343   1.553  0.00  0.00     0.042 A 
ATOM     26  H20 796 d   1     -12.497 -14.438   1.438  0.00  0.00     0.088 H 
ATOM     27 CL2  796 d   1     -12.406 -12.346   3.240  0.00  0.00    -0.084 Cl
ENDBRANCH  14  17
ENDBRANCH   5  14
ENDBRANCH   3   5
BRANCH   2  28
ATOM     28  C18 796 d   1      -9.142  -9.794   2.927  0.00  0.00     0.073 A 
ATOM     29  S1  796 d   1      -7.476  -9.917   2.366  0.00  0.00    -0.083 SA
ATOM     30  C15 796 d   1      -6.935 -10.268   4.033  0.00  0.00     0.035 A 
ATOM     31  C16 796 d   1      -8.015 -10.254   4.915  0.00  0.00    -0.063 A 
ATOM     32  C17 796 d   1      -9.243 -10.001   4.289  0.00  0.00    -0.060 A 
ATOM     33  H2  796 d   1      -7.914 -10.423   5.986  0.00  0.00     0.085 H 
ATOM     34  H1  796 d   1     -10.190  -9.970   4.827  0.00  0.00     0.085 H 
BRANCH  30  35
ATOM     35  C3  796 d   1      -5.456 -10.373   4.213  0.00  0.00     0.094 A 
ATOM     36  C2  796 d   1      -4.885 -10.444   5.491  0.00  0.00    -0.036 A 
ATOM     37  C1  796 d   1      -3.487 -10.471   5.637  0.00  0.00     0.023 A 
ATOM     38  H3  796 d   1      -5.522 -10.478   6.368  0.00  0.00     0.089 H 
ATOM     39  N6  796 d   1      -2.759 -10.404   4.518  0.00  0.00    -0.075 NA
ATOM     40  H8  796 d   1      -3.021 -10.543   6.613  0.00  0.00     0.115 H 
ATOM     41  C5  796 d   1      -3.313 -10.306   3.299  0.00  0.00     0.722 A 
ATOM     42  N4  796 d   1      -4.667 -10.294   3.115  0.00  0.00    -0.062 NA
ATOM     43  N9  796 d   1      -2.567 -10.239   2.232  0.00  0.00    -0.227 N 
ATOM     44  H4  796 d   1      -1.551 -10.404   2.273  0.00  0.00     0.177 HD
BRANCH  43  45
ATOM     45  C10 796 d   1      -3.234  -9.922   0.988  0.00  0.00    -0.005 C 
ATOM     46  H5  796 d   1      -2.496  -9.897   0.172  0.00  0.00     0.057 H 
ATOM     47  H6  796 d   1      -3.720  -8.939   1.073  0.00  0.00     0.057 H 
ATOM     48  H7  796 d   1      -3.992 -10.689   0.773  0.00  0.00     0.057 H 
ENDBRANCH  43  45
ENDBRANCH  30  35
ENDBRANCH   2  28
TORSDOF 8
