REMARK WARNING: 32 MAX_TORS EXCEEDED!!!
REMARK  38 active torsions:
REMARK  status: ('A' for Active; 'I' for Inactive)
REMARK    1  A    between atoms: C_1  and  CH3_3 
REMARK       I    between atoms: N_4  and  C_1 
REMARK    2  A    between atoms: CA_5  and  N_4 
REMARK    3  A    between atoms: C_6  and  CA_5 
REMARK    4  A    between atoms: CA_5  and  CB_8 
REMARK       I    between atoms: N_15  and  C_6 
REMARK    5  A    between atoms: CB_8  and  CG_9 
REMARK    6  A    between atoms: CA_16  and  N_15 
REMARK    7  A    between atoms: C_17  and  CA_16 
REMARK    8  A    between atoms: CA_16  and  CB_19 
REMARK       I    between atoms: N_23  and  C_17 
REMARK    9  A    between atoms: CB_19  and  CG_20 
REMARK   10  A    between atoms: CG_20  and  SD_21 
REMARK   11  A    between atoms: SD_21  and  CE_22 
REMARK   12  A    between atoms: CA_24  and  N_23 
REMARK   13  A    between atoms: C_25  and  CA_24 
REMARK   14  A    between atoms: CA_24  and  CB1_27 
REMARK   15  A    between atoms: CA_24  and  CB2_28 
REMARK       I    between atoms: N_29  and  C_25 
REMARK   16  A    between atoms: CA_30  and  N_29 
REMARK   17  A    between atoms: CA_30  and  CB_31 
REMARK   18  A    between atoms: C_43  and  CA_30 
REMARK   19  A    between atoms: CB_31  and  CG_32 
REMARK   20  A    between atoms: CZ_37  and  CH4_38 
REMARK   21  A    between atoms: CH4_38  and  P_39 
REMARK       I    between atoms: N_45  and  C_43 
REMARK   22  A    between atoms: CA_46  and  N_45 
REMARK   23  A    between atoms: CA_46  and  CB_47 
REMARK   24  A    between atoms: C_58  and  CA_46 
REMARK   25  A    between atoms: CB_47  and  CG_48 
REMARK       I    between atoms: N_60  and  C_58 
REMARK   26  A    between atoms: CA_61  and  N_60 
REMARK   27  A    between atoms: C_62  and  CA_61 
REMARK   28  A    between atoms: CA_61  and  CB_64 
REMARK       I    between atoms: N1_74  and  C_62 
REMARK   29  A    between atoms: CB_64  and  CG_65 
REMARK   30  A    between atoms: CG_65  and  CD_66 
REMARK   31  A    between atoms: C1_71  and  C2_72 
REMARK   32  A    between atoms: C1_71  and  N1_74 
REMARK       I    between atoms: C2_72  and  N_75 
REMARK   33  A    between atoms: N_75  and  CA_76 
REMARK   34  A    between atoms: CA_76  and  C_77 
REMARK   35  A    between atoms: CA_76  and  CB_79 
REMARK   36  A    between atoms: CB_79  and  CG_80 
REMARK   37  A    between atoms: CG_80  and  CD1_81 
REMARK   38  A    between atoms: CG_80  and  CD2_82 
ROOT
ATOM      1  CA  PM3 d   1      12.331  18.317  14.445  0.00  0.00     0.093 C 
ATOM      2  H30 PM3 d   1      12.639  17.907  15.418  0.00  0.00     0.088 H 
ENDROOT
BRANCH   1   3
ATOM      3  N   PM3 d   1      13.515  18.502  13.614  0.00  0.00    -0.345 N 
ATOM      4  C   AIB d   1      14.360  17.504  13.378  0.00  0.00     0.246 C 
ATOM      5  O2  AIB d   1      14.211  16.379  13.860  0.00  0.00    -0.271 OA
ATOM      6  H29 PM3 d   1      13.695  19.400  13.213  0.00  0.00     0.163 HD
BRANCH   4   7
ATOM      7  CA  AIB d   1      15.557  17.817  12.478  0.00  0.00     0.106 C 
BRANCH   7   8
ATOM      8  N   AIB d   1      15.103  18.519  11.277  0.00  0.00    -0.342 N 
ATOM      9  C   MET d   1      14.179  18.017  10.462  0.00  0.00     0.241 C 
ATOM     10  O   MET d   1      13.631  16.927  10.651  0.00  0.00    -0.271 OA
ATOM     11  H22 AIB d   1      15.502  19.410  11.061  0.00  0.00     0.163 HD
BRANCH   9  12
ATOM     12  CA  MET d   1      13.815  18.873   9.253  0.00  0.00     0.090 C 
ATOM     13  H14 MET d   1      12.859  18.508   8.850  0.00  0.00     0.087 H 
BRANCH  12  14
ATOM     14  N   MET d   1      13.649  20.283   9.602  0.00  0.00    -0.346 N 
ATOM     15  C   PHE d   1      12.849  20.657  10.598  0.00  0.00     0.241 C 
ATOM     16  O   PHE d   1      12.211  19.852  11.271  0.00  0.00    -0.271 OA
ATOM     17  H13 MET d   1      14.145  20.979   9.083  0.00  0.00     0.163 HD
BRANCH  15  18
ATOM     18  CA  PHE d   1      12.734  22.156  10.874  0.00  0.00     0.093 C 
ATOM     19  H5  PHE d   1      12.145  22.280  11.794  0.00  0.00     0.088 H 
BRANCH  18  20
ATOM     20  N   PHE d   1      14.013  22.821  11.086  0.00  0.00    -0.348 N 
ATOM     21  C   ACE d   1      14.860  22.425  12.034  0.00  0.00     0.214 C 
ATOM     22  O   ACE d   1      14.639  21.469  12.774  0.00  0.00    -0.274 OA
ATOM     23  H4  PHE d   1      14.261  23.595  10.504  0.00  0.00     0.163 HD
BRANCH  21  24
ATOM     24  CH3 ACE d   1      16.158  23.219  12.155  0.00  0.00    -0.003 C 
ATOM     25  H1  ACE d   1      16.164  24.028  11.409  0.00  0.00     0.040 H 
ATOM     26  H2  ACE d   1      17.014  22.551  11.978  0.00  0.00     0.040 H 
ATOM     27  H3  ACE d   1      16.231  23.650  13.164  0.00  0.00     0.040 H 
ENDBRANCH  21  24
ENDBRANCH  18  20
BRANCH  18  28
ATOM     28  CB  PHE d   1      11.972  22.815   9.723  0.00  0.00    -0.014 C 
ATOM     29  H6  PHE d   1      12.618  22.816   8.833  0.00  0.00     0.043 H 
ATOM     30  H7  PHE d   1      11.738  23.851  10.008  0.00  0.00     0.043 H 
BRANCH  28  31
ATOM     31  CG  PHE d   1      10.689  22.116   9.378  0.00  0.00    -0.056 A 
ATOM     32  CD1 PHE d   1       9.574  22.230  10.204  0.00  0.00    -0.077 A 
ATOM     33  CE1 PHE d   1       8.398  21.534   9.916  0.00  0.00    -0.082 A 
ATOM     34  H8  PHE d   1       9.619  22.866  11.081  0.00  0.00     0.084 H 
ATOM     35  CZ  PHE d   1       8.335  20.720   8.791  0.00  0.00    -0.083 A 
ATOM     36  H10 PHE d   1       7.537  21.628  10.568  0.00  0.00     0.083 H 
ATOM     37  CE2 PHE d   1       9.442  20.602   7.956  0.00  0.00    -0.082 A 
ATOM     38  H12 PHE d   1       7.424  20.177   8.564  0.00  0.00     0.083 H 
ATOM     39  CD2 PHE d   1      10.612  21.300   8.255  0.00  0.00    -0.077 A 
ATOM     40  H11 PHE d   1       9.395  19.970   7.077  0.00  0.00     0.083 H 
ATOM     41  H9  PHE d   1      11.473  21.205   7.603  0.00  0.00     0.084 H 
ENDBRANCH  28  31
ENDBRANCH  18  28
ENDBRANCH  15  18
ENDBRANCH  12  14
BRANCH  12  42
ATOM     42  CB  MET d   1      14.891  18.717   8.173  0.00  0.00    -0.030 C 
ATOM     43  H15 MET d   1      15.117  17.646   8.064  0.00  0.00     0.037 H 
ATOM     44  H16 MET d   1      15.793  19.251   8.506  0.00  0.00     0.037 H 
BRANCH  42  45
ATOM     45  CG  MET d   1      14.493  19.259   6.813  0.00  0.00    -0.021 C 
ATOM     46  H17 MET d   1      15.367  19.213   6.147  0.00  0.00     0.049 H 
ATOM     47  H18 MET d   1      14.177  20.306   6.931  0.00  0.00     0.049 H 
BRANCH  45  48
ATOM     48  SD  MET d   1      13.142  18.330   6.057  0.00  0.00    -0.173 SA
BRANCH  48  49
ATOM     49  CE  MET d   1      14.042  16.958   5.317  0.00  0.00    -0.035 C 
ATOM     50  H19 MET d   1      13.334  16.288   4.806  0.00  0.00     0.041 H 
ATOM     51  H20 MET d   1      14.572  16.401   6.103  0.00  0.00     0.041 H 
ATOM     52  H21 MET d   1      14.769  17.347   4.589  0.00  0.00     0.041 H 
ENDBRANCH  48  49
ENDBRANCH  45  48
ENDBRANCH  42  45
ENDBRANCH  12  42
ENDBRANCH   9  12
ENDBRANCH   7   8
BRANCH   7  53
ATOM     53  CB1 AIB d   1      16.549  18.691  13.228  0.00  0.00    -0.045 C 
ATOM     54  H23 AIB d   1      16.891  18.165  14.131  0.00  0.00     0.031 H 
ATOM     55  H24 AIB d   1      16.062  19.634  13.516  0.00  0.00     0.031 H 
ATOM     56  H25 AIB d   1      17.411  18.906  12.580  0.00  0.00     0.031 H 
ENDBRANCH   7  53
BRANCH   7  57
ATOM     57  CB2 AIB d   1      16.254  16.522  12.082  0.00  0.00    -0.045 C 
ATOM     58  H26 AIB d   1      16.594  15.997  12.987  0.00  0.00     0.031 H 
ATOM     59  H27 AIB d   1      17.120  16.752  11.444  0.00  0.00     0.031 H 
ATOM     60  H28 AIB d   1      15.551  15.882  11.529  0.00  0.00     0.031 H 
ENDBRANCH   7  57
ENDBRANCH   4   7
ENDBRANCH   1   3
BRANCH   1  61
ATOM     61  CB  PM3 d   1      11.615  19.654  14.660  0.00  0.00    -0.014 C 
ATOM     62  H31 PM3 d   1      10.627  19.446  15.095  0.00  0.00     0.043 H 
ATOM     63  H32 PM3 d   1      11.490  20.136  13.679  0.00  0.00     0.043 H 
BRANCH  61  64
ATOM     64  CG  PM3 d   1      12.332  20.621  15.568  0.00  0.00    -0.056 A 
ATOM     65  CD1 PM3 d   1      12.657  21.905  15.132  0.00  0.00    -0.076 A 
ATOM     66  CE1 PM3 d   1      13.270  22.819  15.986  0.00  0.00    -0.076 A 
ATOM     67  H33 PM3 d   1      12.429  22.196  14.113  0.00  0.00     0.084 H 
ATOM     68  CZ  PM3 d   1      13.565  22.442  17.288  0.00  0.00    -0.045 A 
ATOM     69  H34 PM3 d   1      13.514  23.816  15.636  0.00  0.00     0.084 H 
ATOM     70  CE2 PM3 d   1      13.256  21.171  17.738  0.00  0.00    -0.076 A 
ATOM     71  CD2 PM3 d   1      12.641  20.270  16.878  0.00  0.00    -0.076 A 
ATOM     72  H36 PM3 d   1      13.492  20.880  18.755  0.00  0.00     0.084 H 
ATOM     73  H35 PM3 d   1      12.398  19.276  17.234  0.00  0.00     0.084 H 
BRANCH  68  74
ATOM     74  CH4 PM3 d   1      14.234  23.420  18.222  0.00  0.00     0.063 C 
ATOM     75  H37 PM3 d   1      13.927  23.158  19.245  0.00  0.00     0.061 H 
ATOM     76  H38 PM3 d   1      13.857  24.422  17.971  0.00  0.00     0.061 H 
BRANCH  74  77
ATOM     77  P   PM3 d   1      16.011  23.505  18.208  0.00  0.00     0.263 P 
ATOM     78  O1  PM3 d   1      16.476  22.129  18.520  0.00  0.00    -0.639 OA
ATOM     79  O2  PM3 d   1      16.353  23.943  16.833  0.00  0.00    -0.639 OA
ATOM     80  O3  PM3 d   1      16.374  24.498  19.246  0.00  0.00    -0.639 OA
ENDBRANCH  74  77
ENDBRANCH  68  74
ENDBRANCH  61  64
ENDBRANCH   1  61
BRANCH   1  81
ATOM     81  C   PM3 d   1      11.352  17.357  13.780  0.00  0.00     0.241 C 
ATOM     82  O   PM3 d   1      10.818  16.447  14.410  0.00  0.00    -0.271 OA
ATOM     83  N   6CW d   1      11.114  17.586  12.495  0.00  0.00    -0.346 N 
ATOM     84  H39 6CW d   1      11.594  18.335  12.039  0.00  0.00     0.163 HD
BRANCH  83  85
ATOM     85  CA  6CW d   1      10.176  16.780  11.729  0.00  0.00     0.093 C 
ATOM     86  H40 6CW d   1       9.186  16.878  12.198  0.00  0.00     0.088 H 
BRANCH  85  87
ATOM     87  CB  6CW d   1      10.093  17.331  10.303  0.00  0.00    -0.012 C 
ATOM     88  H41 6CW d   1      11.020  17.066   9.773  0.00  0.00     0.044 H 
ATOM     89  H42 6CW d   1      10.003  18.426  10.358  0.00  0.00     0.044 H 
BRANCH  87  90
ATOM     90  CG  6CW d   1       8.942  16.803   9.530  0.00  0.00    -0.028 A 
ATOM     91  CD2 6CW d   1       7.569  17.166   9.695  0.00  0.00    -0.002 A 
ATOM     92  CE3 6CW d   1       6.893  18.057  10.541  0.00  0.00    -0.069 A 
ATOM     93  CE2 6CW d   1       6.824  16.416   8.758  0.00  0.00     0.044 A 
ATOM     94  CZ3 6CW d   1       5.513  18.167  10.429  0.00  0.00    -0.061 A 
ATOM     95  H43 6CW d   1       7.437  18.648  11.268  0.00  0.00     0.085 H 
ATOM     96  CH2 6CW d   1       4.795  17.405   9.486  0.00  0.00     0.036 A 
ATOM     97  H47 6CW d   1       4.979  18.851  11.079  0.00  0.00     0.086 H 
ATOM     98  CZ2 6CW d   1       5.432  16.525   8.646  0.00  0.00    -0.035 A 
ATOM     99 CLL  6CW d   1       3.073  17.577   9.388  0.00  0.00    -0.084 Cl
ATOM    100  H46 6CW d   1       4.878  15.937   7.923  0.00  0.00     0.089 H 
ATOM    101  NE1 6CW d   1       7.710  15.634   8.062  0.00  0.00    -0.365 N 
ATOM    102  CD1 6CW d   1       8.977  15.870   8.530  0.00  0.00    -0.015 A 
ATOM    103  H44 6CW d   1       7.463  14.976   7.309  0.00  0.00     0.165 HD
ATOM    104  H45 6CW d   1       9.879  15.386   8.160  0.00  0.00     0.112 H 
ENDBRANCH  87  90
ENDBRANCH  85  87
BRANCH  85 105
ATOM    105  C   6CW d   1      10.531  15.296  11.706  0.00  0.00     0.241 C 
ATOM    106  O   6CW d   1       9.648  14.440  11.703  0.00  0.00    -0.271 OA
ATOM    107  N   GLU d   1      11.823  14.994  11.693  0.00  0.00    -0.346 N 
ATOM    108  H48 GLU d   1      12.499  15.731  11.700  0.00  0.00     0.163 HD
BRANCH 107 109
ATOM    109  CA  GLU d   1      12.276  13.610  11.669  0.00  0.00     0.090 C 
ATOM    110  H49 GLU d   1      11.851  13.112  10.785  0.00  0.00     0.087 H 
BRANCH 109 111
ATOM    111  C   GLU d   1      11.809  12.879  12.921  0.00  0.00     0.241 C 
ATOM    112  O   GLU d   1      11.596  11.667  12.901  0.00  0.00    -0.271 OA
ATOM    113  N1  1AC d   1      11.648  13.625  14.008  0.00  0.00    -0.341 N 
ATOM    114  H58 1AC d   1      11.827  14.607  13.954  0.00  0.00     0.163 HD
BRANCH 113 115
ATOM    115  C1  1AC d   1      11.218  13.053  15.278  0.00  0.00     0.114 A 
ATOM    116  C3  1AC d   1      12.283  12.440  16.162  0.00  0.00    -0.030 A 
ATOM    117  C4  1AC d   1      11.666  13.755  16.541  0.00  0.00    -0.030 A 
ATOM    118  H54 1AC d   1      12.057  11.538  16.749  0.00  0.00     0.037 H 
ATOM    119  H55 1AC d   1      13.327  12.402  15.818  0.00  0.00     0.037 H 
ATOM    120  H56 1AC d   1      12.259  14.679  16.475  0.00  0.00     0.037 H 
ATOM    121  H57 1AC d   1      10.989  13.815  17.406  0.00  0.00     0.037 H 
BRANCH 115 122
ATOM    122  C2  1AC d   1       9.832  12.425  15.238  0.00  0.00     0.246 C 
ATOM    123  O1  1AC d   1       9.482  11.637  16.114  0.00  0.00    -0.271 OA
ATOM    124  N   LEU d   1       9.041  12.768  14.227  0.00  0.00    -0.344 N 
ATOM    125  H59 LEU d   1       9.367  13.415  13.537  0.00  0.00     0.163 HD
BRANCH 124 126
ATOM    126  CA  LEU d   1       7.701  12.207  14.118  0.00  0.00     0.096 C 
ATOM    127  H60 LEU d   1       7.196  12.329  15.088  0.00  0.00     0.089 H 
BRANCH 126 128
ATOM    128  C   LEU d   1       7.744  10.725  13.777  0.00  0.00     0.196 C 
ATOM    129  O   LEU d   1       8.678  10.306  13.060  0.00  0.00    -0.646 OA
ATOM    130  OXT LEU d   1       6.823  10.009  14.220  0.00  0.00    -0.646 OA
ENDBRANCH 126 128
BRANCH 126 131
ATOM    131  CB  LEU d   1       6.894  12.942  13.049  0.00  0.00    -0.034 C 
ATOM    132  H61 LEU d   1       5.994  12.345  12.841  0.00  0.00     0.037 H 
ATOM    133  H62 LEU d   1       7.514  12.998  12.142  0.00  0.00     0.037 H 
BRANCH 131 134
ATOM    134  CG  LEU d   1       6.441  14.362  13.391  0.00  0.00    -0.059 C 
ATOM    135  H63 LEU d   1       7.320  14.968  13.657  0.00  0.00     0.038 H 
BRANCH 134 136
ATOM    136  CD1 LEU d   1       5.763  14.979  12.178  0.00  0.00    -0.073 C 
ATOM    137  H64 LEU d   1       5.436  16.001  12.421  0.00  0.00     0.028 H 
ATOM    138  H65 LEU d   1       4.890  14.372  11.897  0.00  0.00     0.028 H 
ATOM    139  H66 LEU d   1       6.473  15.011  11.338  0.00  0.00     0.028 H 
ENDBRANCH 134 136
BRANCH 134 140
ATOM    140  CD2 LEU d   1       5.488  14.326  14.579  0.00  0.00    -0.073 C 
ATOM    141  H67 LEU d   1       5.997  13.877  15.444  0.00  0.00     0.028 H 
ATOM    142  H68 LEU d   1       4.604  13.725  14.322  0.00  0.00     0.028 H 
ATOM    143  H69 LEU d   1       5.175  15.350  14.829  0.00  0.00     0.028 H 
ENDBRANCH 134 140
ENDBRANCH 131 134
ENDBRANCH 126 131
ENDBRANCH 124 126
ENDBRANCH 115 122
ENDBRANCH 113 115
ENDBRANCH 109 111
BRANCH 109 144
ATOM    144  CB  GLU d   1      13.804  13.557  11.586  0.00  0.00    -0.029 C 
ATOM    145  H50 GLU d   1      14.215  13.977  12.516  0.00  0.00     0.037 H 
ATOM    146  H51 GLU d   1      14.125  14.172  10.732  0.00  0.00     0.037 H 
BRANCH 144 147
ATOM    147  CG  GLU d   1      14.368  12.154  11.404  0.00  0.00     0.018 C 
ATOM    148  H52 GLU d   1      14.087  11.788  10.405  0.00  0.00     0.049 H 
ATOM    149  H53 GLU d   1      13.932  11.497  12.171  0.00  0.00     0.049 H 
BRANCH 147 150
ATOM    150  CD  GLU d   1      15.881  12.112  11.530  0.00  0.00     0.172 C 
ATOM    151  OE1 GLU d   1      16.562  12.905  10.847  0.00  0.00    -0.648 OA
ATOM    152  OE2 GLU d   1      16.390  11.281  12.311  0.00  0.00    -0.648 OA
ENDBRANCH 147 150
ENDBRANCH 144 147
ENDBRANCH 109 144
ENDBRANCH 107 109
ENDBRANCH  85 105
ENDBRANCH  83  85
ENDBRANCH   1  81
TORSDOF 38
