REMARK  11 active torsions:
REMARK  status: ('A' for Active; 'I' for Inactive)
REMARK    1  A    between atoms: O3B_8  and  PG_1 
REMARK    2  A    between atoms: PB_5  and  O3B_8 
REMARK    3  A    between atoms: O3A_12  and  PB_5 
REMARK    4  A    between atoms: PA_9  and  O3A_12 
REMARK    5  A    between atoms: O5'_38  and  PA_9 
REMARK    6  A    between atoms: C1'_46  and  N9_13 
REMARK    7  A    between atoms: C2F_24  and  N2F_29 
REMARK    8  A    between atoms: C4F_26  and  N4F_30 
REMARK    9  A    between atoms: C6F_28  and  N6F_31 
REMARK   10  A    between atoms: C5'_39  and  O5'_38 
REMARK   11  A    between atoms: C4'_40  and  C5'_39 
ROOT
ATOM      1  C1F 128 d   1      62.096 -15.003  54.885  0.00  0.00     0.247 A 
ATOM      2  C2F 128 d   1      63.608 -15.067  54.501  0.00  0.00     0.147 A 
ATOM      3  C3F 128 d   1      64.415 -16.164  54.886  0.00  0.00    -0.018 A 
ATOM      4  C4F 128 d   1      64.034 -17.290  55.614  0.00  0.00     0.103 A 
ATOM      5  C5F 128 d   1      62.669 -17.327  56.016  0.00  0.00    -0.038 A 
ATOM      6  C6F 128 d   1      61.640 -16.262  55.711  0.00  0.00     0.152 A 
ATOM      7  C4' 128 d   1      59.642 -12.908  55.876  0.00  0.00     0.089 A 
ATOM      8  O4' 128 d   1      58.728 -13.492  54.865  0.00  0.00    -0.353 OA
ATOM      9  C3' 128 d   1      60.885 -13.000  55.135  0.00  0.00     0.098 A 
ATOM     10  O3' 128 d   1      61.788 -13.874  55.868  0.00  0.00    -0.337 OA
ATOM     11  C2' 128 d   1      60.622 -13.644  53.702  0.00  0.00     0.112 A 
ATOM     12  O2' 128 d   1      61.382 -14.875  53.524  0.00  0.00    -0.335 OA
ATOM     13  C1' 128 d   1      59.098 -13.952  53.600  0.00  0.00     0.140 A 
ATOM     14  H5  128 d   1      65.458 -16.124  54.577  0.00  0.00     0.090 H 
ATOM     15  H6  128 d   1      62.339 -18.192  56.589  0.00  0.00     0.084 H 
ATOM     16  H7  128 d   1      61.877 -15.711  56.633  0.00  0.00     0.098 H 
ATOM     17  H10 128 d   1      59.719 -13.508  56.795  0.00  0.00     0.090 H 
ATOM     18  H11 128 d   1      61.329 -12.000  55.021  0.00  0.00     0.091 H 
ATOM     19  H12 128 d   1      60.911 -12.927  52.919  0.00  0.00     0.094 H 
ATOM     20  H13 128 d   1      58.911 -15.025  53.449  0.00  0.00     0.122 H 
ENDROOT
BRANCH   2  21
ATOM     21  N2F 128 d   1      64.281 -14.026  53.739  0.00  0.00    -0.114 N 
ATOM     22  O2F 128 d   1      63.744 -13.036  53.338  0.00  0.00    -0.532 OA
ATOM     23  O3F 128 d   1      65.468 -14.095  53.451  0.00  0.00    -0.532 OA
ENDBRANCH   2  21
BRANCH   6  24
ATOM     24  N6F 128 d   1      60.310 -16.589  56.254  0.00  0.00    -0.141 N 
ATOM     25  O6F 128 d   1      60.129 -17.647  56.893  0.00  0.00    -0.536 OA
ATOM     26  O7F 128 d   1      59.330 -15.937  56.154  0.00  0.00    -0.536 OA
ENDBRANCH   6  24
BRANCH   4  27
ATOM     27  N4F 128 d   1      64.831 -18.318  55.954  0.00  0.00    -0.116 N 
ATOM     28  O4F 128 d   1      64.457 -19.296  56.593  0.00  0.00    -0.532 OA
ATOM     29  O5F 128 d   1      66.002 -18.347  55.639  0.00  0.00    -0.532 OA
ENDBRANCH   4  27
BRANCH   7  30
ATOM     30  C5' 128 d   1      58.957 -11.488  56.245  0.00  0.00     0.058 C 
ATOM     31  H8  128 d   1      57.935 -11.464  55.839  0.00  0.00     0.079 H 
ATOM     32  H9  128 d   1      58.920 -11.379  57.339  0.00  0.00     0.079 H 
BRANCH  30  33
ATOM     33  O5' 128 d   1      59.720 -10.386  55.681  0.00  0.00    -0.287 OA
BRANCH  33  34
ATOM     34  PA  128 d   1      59.274  -8.798  55.917  0.00  0.00     0.417 P 
ATOM     35  O1A 128 d   1      57.716  -8.687  55.648  0.00  0.00    -0.624 OA
ATOM     36  O2A 128 d   1      60.114  -7.738  55.234  0.00  0.00    -0.624 OA
BRANCH  34  37
ATOM     37  O3A 128 d   1      59.690  -8.619  57.484  0.00  0.00    -0.180 OA
BRANCH  37  38
ATOM     38  PB  128 d   1      59.173  -8.783  59.111  0.00  0.00     0.428 P 
ATOM     39  O1B 128 d   1      60.197  -8.408  59.611  0.00  0.00    -0.624 OA
ATOM     40  O2B 128 d   1      58.955  -9.774  59.320  0.00  0.00    -0.624 OA
BRANCH  38  41
ATOM     41  O3B 128 d   1      58.073  -7.706  59.487  0.00  0.00    -0.173 OA
BRANCH  41  42
ATOM     42  PG  128 d   1      57.870  -6.046  59.386  0.00  0.00     0.431 P 
ATOM     43  O1G 128 d   1      57.926  -5.598  57.852  0.00  0.00    -0.616 OA
ATOM     44  O2G 128 d   1      56.476  -5.519  59.959  0.00  0.00    -0.616 OA
ATOM     45  O3G 128 d   1      58.959  -5.353  60.053  0.00  0.00    -0.616 OA
ENDBRANCH  41  42
ENDBRANCH  38  41
ENDBRANCH  37  38
ENDBRANCH  34  37
ENDBRANCH  33  34
ENDBRANCH  30  33
ENDBRANCH   7  30
BRANCH  13  46
ATOM     46  N9  128 d   1      58.321 -13.151  52.589  0.00  0.00    -0.294 N 
ATOM     47  C8  128 d   1      58.193 -11.813  52.385  0.00  0.00     0.071 A 
ATOM     48  N7  128 d   1      57.423 -11.467  51.400  0.00  0.00    -0.236 NA
ATOM     49  H1  128 d   1      58.703 -11.080  53.008  0.00  0.00     0.144 H 
ATOM     50  C5  128 d   1      56.993 -12.628  50.899  0.00  0.00     0.149 A 
ATOM     51  C6  128 d   1      56.117 -12.854  49.776  0.00  0.00     0.155 A 
ATOM     52  C4  128 d   1      57.550 -13.699  51.600  0.00  0.00     0.167 A 
ATOM     53  N6  128 d   1      55.600 -11.798  49.114  0.00  0.00    -0.382 N 
ATOM     54  N1  128 d   1      55.778 -14.192  49.393  0.00  0.00    -0.222 NA
ATOM     55  H2  128 d   1      54.973 -11.950  48.311  0.00  0.00     0.157 HD
ATOM     56  H3  128 d   1      55.832 -10.840  49.412  0.00  0.00     0.157 HD
ATOM     57  C2  128 d   1      56.337 -15.226  50.111  0.00  0.00     0.091 A 
ATOM     58  N3  128 d   1      57.172 -14.982  51.180  0.00  0.00    -0.222 NA
ATOM     59  H4  128 d   1      56.116 -16.250  49.830  0.00  0.00     0.146 H 
ENDBRANCH  13  46
TORSDOF 11
