REMARK  16 active torsions:
REMARK  status: ('A' for Active; 'I' for Inactive)
REMARK    1  A    between atoms: C16_16  and  C17_17 
REMARK    2  A    between atoms: C30_30  and  C27_27 
REMARK       I    between atoms: N32_32  and  C30_30 
REMARK    3  A    between atoms: C33_33  and  N32_32 
REMARK    4  A    between atoms: C33_33  and  C34_34 
REMARK    5  A    between atoms: C38_38  and  C33_33 
REMARK    6  A    between atoms: C34_34  and  C35_35 
REMARK    7  A    between atoms: C35_35  and  C36_36 
REMARK    8  A    between atoms: C38_38  and  O37_37 
REMARK    9  A    between atoms: C44_44  and  C38_38 
REMARK   10  A    between atoms: N40_40  and  C41_41 
REMARK       I    between atoms: N40_40  and  C44_44 
REMARK   11  A    between atoms: C41_41  and  C42_42 
REMARK       I    between atoms: C42_42  and  N45_45 
REMARK   12  A    between atoms: N45_45  and  C46_46 
REMARK   13  A    between atoms: C46_46  and  C47_47 
REMARK   14  A    between atoms: C46_46  and  C53_53 
REMARK       I    between atoms: C53_53  and  N55_55 
REMARK   15  A    between atoms: N55_55  and  C56_56 
REMARK   16  A    between atoms: N55_55  and  C57_57 
ROOT
ATOM      1  C1  NHN d   1     190.671 -10.766  48.136  0.00  0.00     0.013 C 
ATOM      2  C2  NHN d   1     190.034 -11.790  49.068  0.00  0.00    -0.033 C 
ATOM      3  C3  NHN d   1     189.802 -11.281  50.446  0.00  0.00    -0.055 A 
ATOM      4  C4  NHN d   1     190.704 -11.561  51.466  0.00  0.00    -0.045 A 
ATOM      5  C5  NHN d   1     188.700 -10.484  50.721  0.00  0.00    -0.077 A 
ATOM      6  C6  NHN d   1     190.513 -11.070  52.759  0.00  0.00     0.069 A 
ATOM      7  C7  NHN d   1     188.485  -9.992  51.999  0.00  0.00    -0.080 A 
ATOM      8  C8  NHN d   1     189.395 -10.282  53.007  0.00  0.00    -0.051 A 
ATOM      9  C9  NHN d   1     192.175 -10.720  48.373  0.00  0.00     0.218 C 
ATOM     10  O10 NHN d   1     192.797 -11.727  48.706  0.00  0.00    -0.274 OA
ATOM     11  O11 NHN d   1     191.396 -11.327  53.835  0.00  0.00    -0.349 OA
ATOM     12  C12 NHN d   1     192.502 -12.127  53.468  0.00  0.00     0.046 C 
ATOM     13  C13 NHN d   1     193.499 -11.085  53.025  0.00  0.00     0.040 C 
ATOM     14  O14 NHN d   1     194.565 -11.755  52.453  0.00  0.00    -0.382 OA
ATOM     15  N15 NHN d   1     192.762  -9.553  48.169  0.00  0.00    -0.347 N 
ATOM     16  C16 NHN d   1     194.206  -9.430  48.210  0.00  0.00     0.093 C 
ATOM     17  C23 NHN d   1     194.641  -8.656  49.439  0.00  0.00     0.243 C 
ATOM     18  O24 NHN d   1     194.317  -7.481  49.576  0.00  0.00    -0.271 OA
ATOM     19  N25 NHN d   1     195.316  -9.321  50.375  0.00  0.00    -0.334 N 
ATOM     20  C26 NHN d   1     195.434 -10.780  50.492  0.00  0.00     0.023 C 
ATOM     21  C27 NHN d   1     195.782  -8.647  51.581  0.00  0.00     0.094 C 
ATOM     22  C28 NHN d   1     196.358  -9.780  52.408  0.00  0.00    -0.012 C 
ATOM     23  C29 NHN d   1     195.486 -10.862  51.971  0.00  0.00     0.056 C 
ATOM     24  H1  NHN d   1     190.239  -9.774  48.334  0.00  0.00     0.047 H 
ATOM     25  H2  NHN d   1     190.474 -11.050  47.092  0.00  0.00     0.047 H 
ATOM     26  H3  NHN d   1     190.698 -12.665  49.128  0.00  0.00     0.040 H 
ATOM     27  H4  NHN d   1     189.066 -12.093  48.642  0.00  0.00     0.040 H 
ATOM     28  H5  NHN d   1     191.573 -12.173  51.253  0.00  0.00     0.088 H 
ATOM     29  H6  NHN d   1     188.000 -10.244  49.929  0.00  0.00     0.084 H 
ATOM     30  H7  NHN d   1     187.612  -9.385  52.210  0.00  0.00     0.083 H 
ATOM     31  H8  NHN d   1     189.231  -9.888  54.003  0.00  0.00     0.087 H 
ATOM     32  H9  NHN d   1     192.246 -12.812  52.646  0.00  0.00     0.078 H 
ATOM     33  H10 NHN d   1     192.880 -12.706  54.324  0.00  0.00     0.078 H 
ATOM     34  H11 NHN d   1     193.843 -10.500  53.891  0.00  0.00     0.077 H 
ATOM     35  H12 NHN d   1     193.038 -10.412  52.288  0.00  0.00     0.077 H 
ATOM     36  H13 NHN d   1     192.203  -8.745  47.984  0.00  0.00     0.163 HD
ATOM     37  H14 NHN d   1     194.647 -10.438  48.232  0.00  0.00     0.088 H 
ATOM     38  H26 NHN d   1     196.351 -11.164  50.020  0.00  0.00     0.068 H 
ATOM     39  H27 NHN d   1     194.561 -11.304  50.076  0.00  0.00     0.068 H 
ATOM     40  H28 NHN d   1     194.968  -8.130  52.110  0.00  0.00     0.088 H 
ATOM     41  H29 NHN d   1     196.266  -9.589  53.487  0.00  0.00     0.040 H 
ATOM     42  H30 NHN d   1     197.411  -9.976  52.159  0.00  0.00     0.040 H 
ATOM     43  H31 NHN d   1     196.292 -11.605  52.063  0.00  0.00     0.086 H 
ENDROOT
BRANCH  21  44
ATOM     44  C30 NHN d   1     196.869  -7.669  51.183  0.00  0.00     0.241 C 
ATOM     45  O31 NHN d   1     197.844  -8.043  50.524  0.00  0.00    -0.271 OA
ATOM     46  N32 NHN d   1     196.685  -6.411  51.572  0.00  0.00    -0.352 N 
ATOM     47  H32 NHN d   1     195.866  -6.188  52.100  0.00  0.00     0.163 HD
BRANCH  46  48
ATOM     48  C33 NHN d   1     197.628  -5.341  51.261  0.00  0.00     0.045 C 
ATOM     49  H33 NHN d   1     198.423  -5.787  50.646  0.00  0.00     0.077 H 
BRANCH  48  50
ATOM     50  C34 NHN d   1     196.953  -4.267  50.384  0.00  0.00    -0.044 C 
ATOM     51  H34 NHN d   1     197.739  -3.634  49.947  0.00  0.00     0.036 H 
ATOM     52  H35 NHN d   1     196.304  -3.654  51.027  0.00  0.00     0.036 H 
BRANCH  50  53
ATOM     53  C35 NHN d   1     196.102  -4.834  49.243  0.00  0.00    -0.067 C 
ATOM     54  H36 NHN d   1     195.067  -4.919  49.605  0.00  0.00     0.032 H 
ATOM     55  H37 NHN d   1     196.489  -5.835  49.000  0.00  0.00     0.032 H 
BRANCH  53  56
ATOM     56  C36 NHN d   1     196.081  -4.039  47.992  0.00  0.00    -0.076 C 
ATOM     57  H38 NHN d   1     195.442  -4.540  47.250  0.00  0.00     0.027 H 
ATOM     58  H39 NHN d   1     197.103  -3.951  47.596  0.00  0.00     0.027 H 
ATOM     59  H40 NHN d   1     195.682  -3.036  48.202  0.00  0.00     0.027 H 
ENDBRANCH  53  56
ENDBRANCH  50  53
ENDBRANCH  48  50
BRANCH  48  60
ATOM     60  C38 NHN d   1     198.322  -4.792  52.518  0.00  0.00     0.131 C 
ATOM     61  H42 NHN d   1     197.637  -4.117  53.051  0.00  0.00     0.101 H 
BRANCH  60  62
ATOM     62  O37 NHN d   1     198.694  -5.864  53.418  0.00  0.00    -0.384 OA
ATOM     63  H41 NHN d   1     197.915  -6.338  53.683  0.00  0.00     0.210 HD
ENDBRANCH  60  62
BRANCH  60  64
ATOM     64  C44 NHN d   1     199.533  -3.993  52.021  0.00  0.00     0.248 C 
ATOM     65  O39 NHN d   1     199.530  -2.809  51.675  0.00  0.00    -0.271 OA
ATOM     66  N40 NHN d   1     200.626  -4.736  52.000  0.00  0.00    -0.350 N 
ATOM     67  H43 NHN d   1     200.537  -5.720  52.156  0.00  0.00     0.163 HD
BRANCH  66  68
ATOM     68  C41 NHN d   1     201.947  -4.192  51.762  0.00  0.00     0.069 C 
ATOM     69  H44 NHN d   1     202.697  -4.829  52.254  0.00  0.00     0.078 H 
ATOM     70  H45 NHN d   1     202.002  -3.174  52.175  0.00  0.00     0.078 H 
BRANCH  68  71
ATOM     71  C42 NHN d   1     202.226  -4.145  50.284  0.00  0.00     0.236 C 
ATOM     72  O43 NHN d   1     201.358  -4.408  49.452  0.00  0.00    -0.272 OA
ATOM     73  N45 NHN d   1     203.456  -3.772  49.964  0.00  0.00    -0.342 N 
ATOM     74  H46 NHN d   1     204.086  -3.534  50.703  0.00  0.00     0.163 HD
BRANCH  73  75
ATOM     75  C46 NHN d   1     203.936  -3.691  48.603  0.00  0.00     0.115 C 
ATOM     76  H47 NHN d   1     203.527  -4.519  48.006  0.00  0.00     0.095 H 
BRANCH  75  77
ATOM     77  C47 NHN d   1     203.727  -2.368  47.899  0.00  0.00    -0.026 A 
ATOM     78  C48 NHN d   1     203.313  -2.368  46.582  0.00  0.00    -0.074 A 
ATOM     79  C50 NHN d   1     203.176  -1.186  45.886  0.00  0.00    -0.082 A 
ATOM     80  H48 NHN d   1     203.093  -3.308  46.090  0.00  0.00     0.084 H 
ATOM     81  C52 NHN d   1     203.457   0.023  46.514  0.00  0.00    -0.083 A 
ATOM     82  H50 NHN d   1     202.850  -1.199  44.852  0.00  0.00     0.083 H 
ATOM     83  C51 NHN d   1     203.867   0.033  47.832  0.00  0.00    -0.082 A 
ATOM     84  H52 NHN d   1     203.354   0.955  45.970  0.00  0.00     0.083 H 
ATOM     85  C49 NHN d   1     203.999  -1.158  48.516  0.00  0.00    -0.074 A 
ATOM     86  H51 NHN d   1     204.084   0.972  48.328  0.00  0.00     0.083 H 
ATOM     87  H49 NHN d   1     204.320  -1.147  49.551  0.00  0.00     0.084 H 
ENDBRANCH  75  77
BRANCH  75  88
ATOM     88  C53 NHN d   1     205.453  -3.733  48.728  0.00  0.00     0.246 C 
ATOM     89  O54 NHN d   1     206.020  -3.180  49.680  0.00  0.00    -0.271 OA
ATOM     90  N55 NHN d   1     206.133  -4.383  47.770  0.00  0.00    -0.359 N 
BRANCH  90  91
ATOM     91  C56 NHN d   1     207.531  -4.392  47.833  0.00  0.00    -0.017 C 
ATOM     92  H53 NHN d   1     207.933  -4.962  46.982  0.00  0.00     0.056 H 
ATOM     93  H54 NHN d   1     207.853  -4.862  48.774  0.00  0.00     0.056 H 
ATOM     94  H55 NHN d   1     207.907  -3.359  47.792  0.00  0.00     0.056 H 
ENDBRANCH  90  91
BRANCH  90  95
ATOM     95  C57 NHN d   1     205.475  -5.034  46.731  0.00  0.00    -0.017 C 
ATOM     96  H56 NHN d   1     204.388  -4.915  46.854  0.00  0.00     0.056 H 
ATOM     97  H57 NHN d   1     205.731  -6.104  46.748  0.00  0.00     0.056 H 
ATOM     98  H58 NHN d   1     205.785  -4.598  45.770  0.00  0.00     0.056 H 
ENDBRANCH  90  95
ENDBRANCH  75  88
ENDBRANCH  73  75
ENDBRANCH  68  71
ENDBRANCH  66  68
ENDBRANCH  60  64
ENDBRANCH  48  60
ENDBRANCH  46  48
ENDBRANCH  21  44
BRANCH  16  99
ATOM     99  C17 NHN d   1     194.735  -8.667  46.994  0.00  0.00    -0.026 C 
ATOM    100  C18 NHN d   1     196.259  -8.535  47.051  0.00  0.00    -0.059 C 
ATOM    101  C20 NHN d   1     196.821  -7.779  45.865  0.00  0.00    -0.065 C 
ATOM    102  H16 NHN d   1     196.700  -9.543  47.068  0.00  0.00     0.033 H 
ATOM    103  H17 NHN d   1     196.532  -8.000  47.972  0.00  0.00     0.033 H 
ATOM    104  C22 NHN d   1     196.391  -8.431  44.551  0.00  0.00    -0.065 C 
ATOM    105  H20 NHN d   1     197.919  -7.779  45.925  0.00  0.00     0.033 H 
ATOM    106  H21 NHN d   1     196.453  -6.743  45.891  0.00  0.00     0.033 H 
ATOM    107  C21 NHN d   1     194.880  -8.616  44.476  0.00  0.00    -0.065 C 
ATOM    108  H24 NHN d   1     196.874  -9.416  44.468  0.00  0.00     0.033 H 
ATOM    109  H25 NHN d   1     196.713  -7.793  43.715  0.00  0.00     0.033 H 
ATOM    110  C19 NHN d   1     194.375  -9.368  45.690  0.00  0.00    -0.059 C 
ATOM    111  H22 NHN d   1     194.396  -7.629  44.435  0.00  0.00     0.033 H 
ATOM    112  H23 NHN d   1     194.630  -9.185  43.568  0.00  0.00     0.033 H 
ATOM    113  H18 NHN d   1     193.280  -9.452  45.624  0.00  0.00     0.033 H 
ATOM    114  H19 NHN d   1     194.821 -10.374  45.694  0.00  0.00     0.033 H 
ATOM    115  H15 NHN d   1     194.287  -7.662  46.994  0.00  0.00     0.043 H 
ENDBRANCH  16  99
TORSDOF 16
