REMARK  14 active torsions:
REMARK  status: ('A' for Active; 'I' for Inactive)
REMARK    1  A    between atoms: NA1_2  and  CA7_1 
REMARK    2  A    between atoms: CA6_3  and  NA1_2 
REMARK    3  A    between atoms: CA_9  and  CA1_8 
REMARK    4  A    between atoms: O3'_33  and  CA_9 
REMARK    5  A    between atoms: PA_11  and  O1A_14 
REMARK    6  A    between atoms: O5'_39  and  PA_11 
REMARK    7  A    between atoms: O1A_14  and  PB_15 
REMARK    8  A    between atoms: PB_15  and  O1B_18 
REMARK    9  A    between atoms: O1B_18  and  PG_19 
REMARK   10  A    between atoms: C1'_41  and  N9_23 
REMARK   11  A    between atoms: C3'_34  and  O3'_33 
REMARK   12  A    between atoms: C2'_35  and  O2'_36 
REMARK   13  A    between atoms: C5'_38  and  C4'_37 
REMARK   14  A    between atoms: C5'_38  and  O5'_39 
ROOT
ATOM      1  C3' ONA d   1      60.313 -13.554  53.683  0.00  0.00     0.103 C 
ATOM      2  C2' ONA d   1      59.556 -14.096  52.481  0.00  0.00     0.106 C 
ATOM      3  C4' ONA d   1      59.171 -13.413  54.686  0.00  0.00     0.090 C 
ATOM      4  O4' ONA d   1      58.163 -14.444  54.343  0.00  0.00    -0.353 OA
ATOM      5  C1' ONA d   1      58.619 -15.115  53.132  0.00  0.00     0.140 C 
ATOM      6  H15 ONA d   1      60.808 -12.592  53.485  0.00  0.00     0.092 H 
ATOM      7  H16 ONA d   1      58.988 -13.302  51.974  0.00  0.00     0.093 H 
ATOM      8  H18 ONA d   1      59.602 -13.653  55.669  0.00  0.00     0.090 H 
ATOM      9  H21 ONA d   1      59.192 -16.014  53.401  0.00  0.00     0.122 H 
ENDROOT
BRANCH   1  10
ATOM     10  O3' ONA d   1      61.307 -14.582  54.078  0.00  0.00    -0.317 OA
BRANCH  10  11
ATOM     11  CA  ONA d   1      62.201 -14.479  55.109  0.00  0.00     0.228 C 
ATOM     12  OA  ONA d   1      62.203 -13.399  56.061  0.00  0.00    -0.163 OA
BRANCH  11  13
ATOM     13  CA1 ONA d   1      63.225 -15.628  55.204  0.00  0.00     0.045 C 
ATOM     14  CA6 ONA d   1      64.628 -15.497  54.949  0.00  0.00     0.043 C 
ATOM     15  CA5 ONA d   1      65.633 -16.721  55.068  0.00  0.00    -0.024 C 
ATOM     16  CA4 ONA d   1      65.005 -18.167  55.288  0.00  0.00    -0.057 C 
ATOM     17  H4  ONA d   1      66.300 -16.518  55.919  0.00  0.00     0.042 H 
ATOM     18  H5  ONA d   1      66.222 -16.755  54.140  0.00  0.00     0.042 H 
ATOM     19  CA3 ONA d   1      63.510 -18.206  55.756  0.00  0.00    -0.049 C 
ATOM     20  H6  ONA d   1      65.609 -18.683  56.049  0.00  0.00     0.033 H 
ATOM     21  H7  ONA d   1      65.073 -18.711  54.335  0.00  0.00     0.033 H 
ATOM     22  CA2 ONA d   1      62.708 -16.875  55.575  0.00  0.00    -0.086 C 
ATOM     23  H8  ONA d   1      63.497 -18.466  56.825  0.00  0.00     0.038 H 
ATOM     24  H9  ONA d   1      62.996 -18.991  55.182  0.00  0.00     0.038 H 
ATOM     25  H10 ONA d   1      61.635 -16.924  55.757  0.00  0.00     0.078 H 
BRANCH  14  26
ATOM     26  NA1 ONA d   1      65.090 -14.260  54.589  0.00  0.00    -0.298 NA
BRANCH  26  27
ATOM     27  CA7 ONA d   1      66.475 -13.831  54.267  0.00  0.00     0.001 C 
ATOM     28  H1  ONA d   1      66.479 -12.759  54.019  0.00  0.00     0.059 H 
ATOM     29  H2  ONA d   1      66.847 -14.408  53.407  0.00  0.00     0.059 H 
ATOM     30  H3  ONA d   1      67.125 -14.008  55.136  0.00  0.00     0.059 H 
ENDBRANCH  26  27
ENDBRANCH  14  26
ENDBRANCH  11  13
ENDBRANCH  10  11
ENDBRANCH   1  10
BRANCH   2  31
ATOM     31  O2' ONA d   1      60.447 -14.710  51.547  0.00  0.00    -0.388 OA
ATOM     32  H17 ONA d   1      60.902 -15.429  51.970  0.00  0.00     0.210 HD
ENDBRANCH   2  31
BRANCH   3  33
ATOM     33  C5' ONA d   1      58.405 -12.048  54.874  0.00  0.00     0.058 C 
ATOM     34  H19 ONA d   1      58.338 -11.897  55.962  0.00  0.00     0.079 H 
ATOM     35  H20 ONA d   1      57.398 -12.218  54.464  0.00  0.00     0.079 H 
BRANCH  33  36
ATOM     36  O5' ONA d   1      58.783 -10.919  54.395  0.00  0.00    -0.287 OA
BRANCH  36  37
ATOM     37  PA  ONA d   1      57.536  -9.879  54.544  0.00  0.00     0.417 P 
ATOM     38  O3A ONA d   1      58.055  -8.788  53.543  0.00  0.00    -0.624 OA
ATOM     39  O2A ONA d   1      56.228 -10.484  54.233  0.00  0.00    -0.624 OA
BRANCH  37  40
ATOM     40  O1A ONA d   1      57.773  -9.635  56.079  0.00  0.00    -0.180 OA
BRANCH  40  41
ATOM     41  PB  ONA d   1      56.789  -8.960  57.077  0.00  0.00     0.428 P 
ATOM     42  O3B ONA d   1      55.616 -10.068  56.929  0.00  0.00    -0.624 OA
ATOM     43  O2B ONA d   1      56.128  -7.593  56.890  0.00  0.00    -0.624 OA
BRANCH  41  44
ATOM     44  O1B ONA d   1      57.688  -9.353  58.265  0.00  0.00    -0.173 OA
BRANCH  44  45
ATOM     45  PG  ONA d   1      58.456  -8.158  58.876  0.00  0.00     0.431 P 
ATOM     46  O3G ONA d   1      58.949  -7.155  57.684  0.00  0.00    -0.616 OA
ATOM     47  O1G ONA d   1      57.355  -7.464  59.843  0.00  0.00    -0.616 OA
ATOM     48  O2G ONA d   1      59.630  -8.654  59.639  0.00  0.00    -0.616 OA
ENDBRANCH  44  45
ENDBRANCH  41  44
ENDBRANCH  40  41
ENDBRANCH  37  40
ENDBRANCH  36  37
ENDBRANCH  33  36
ENDBRANCH   3  33
BRANCH   5  49
ATOM     49  N9  ONA d   1      57.475 -15.550  52.253  0.00  0.00    -0.294 N 
ATOM     50  C8  ONA d   1      57.203 -16.836  51.936  0.00  0.00     0.071 A 
ATOM     51  N7  ONA d   1      56.140 -16.894  51.130  0.00  0.00    -0.236 NA
ATOM     52  H11 ONA d   1      57.768 -17.698  52.287  0.00  0.00     0.144 H 
ATOM     53  C5  ONA d   1      55.723 -15.653  50.925  0.00  0.00     0.149 A 
ATOM     54  C4  ONA d   1      56.574 -14.778  51.644  0.00  0.00     0.167 A 
ATOM     55  C6  ONA d   1      54.675 -15.060  50.177  0.00  0.00     0.155 A 
ATOM     56  N3  ONA d   1      56.395 -13.419  51.625  0.00  0.00    -0.222 NA
ATOM     57  C2  ONA d   1      55.410 -12.808  50.933  0.00  0.00     0.091 A 
ATOM     58  N1  ONA d   1      54.516 -13.624  50.183  0.00  0.00    -0.222 NA
ATOM     59  H12 ONA d   1      55.303 -11.729  50.948  0.00  0.00     0.146 H 
ATOM     60  N6  ONA d   1      53.836 -15.819  49.470  0.00  0.00    -0.382 N 
ATOM     61  H13 ONA d   1      53.077 -15.381  48.929  0.00  0.00     0.157 HD
ATOM     62  H14 ONA d   1      53.947 -16.843  49.465  0.00  0.00     0.157 HD
ENDBRANCH   5  49
TORSDOF 14
