REMARK  6 active torsions:
REMARK  status: ('A' for Active; 'I' for Inactive)
REMARK    1  A    between atoms: C4_4  and  S1_8 
REMARK    2  A    between atoms: C6_6  and  C7_7 
REMARK    3  A    between atoms: S1_8  and  C8_11 
REMARK    4  A    between atoms: C9_12  and  N2_24 
REMARK    5  A    between atoms: C11_14  and  C14_20 
REMARK    6  A    between atoms: C13_16  and  N1_17 
ROOT
ATOM      1  C8  D3F d   1     -25.129 -40.451   5.127  0.00  0.00     0.130 A 
ATOM      2  C9  D3F d   1     -25.291 -40.577   6.512  0.00  0.00     0.128 A 
ATOM      3  C10 D3F d   1     -25.284 -39.470   7.363  0.00  0.00    -0.035 A 
ATOM      4  C11 D3F d   1     -25.102 -38.188   6.851  0.00  0.00     0.052 A 
ATOM      5  C12 D3F d   1     -24.920 -38.048   5.478  0.00  0.00    -0.035 A 
ATOM      6  C13 D3F d   1     -24.929 -39.156   4.627  0.00  0.00     0.128 A 
ATOM      7  H6  D3F d   1     -25.421 -39.610   8.429  0.00  0.00     0.088 H 
ATOM      8  H7  D3F d   1     -24.768 -37.059   5.061  0.00  0.00     0.088 H 
ENDROOT
BRANCH   1   9
ATOM      9  S1  D3F d   1     -25.247 -41.836   4.040  0.00  0.00     0.213 S 
ATOM     10  O1  D3F d   1     -26.704 -42.201   3.813  0.00  0.00    -0.217 OA
ATOM     11  O2  D3F d   1     -24.705 -41.414   2.672  0.00  0.00    -0.217 OA
BRANCH   9  12
ATOM     12  C4  D3F d   1     -24.395 -43.322   4.383  0.00  0.00     0.086 A 
ATOM     13  C3  D3F d   1     -24.082 -44.252   3.405  0.00  0.00     0.057 A 
ATOM     14  C2  D3F d   1     -23.397 -45.408   3.695  0.00  0.00    -0.039 A 
ATOM     15 CL1  D3F d   1     -24.817 -43.821   2.109  0.00  0.00    -0.083 Cl
ATOM     16  C1  D3F d   1     -22.972 -45.686   4.968  0.00  0.00     0.041 A 
ATOM     17  H1  D3F d   1     -23.189 -46.115   2.900  0.00  0.00     0.088 H 
ATOM     18  C6  D3F d   1     -23.300 -44.801   5.999  0.00  0.00    -0.039 A 
ATOM     19 CL2  D3F d   1     -22.023 -47.086   5.281  0.00  0.00    -0.084 Cl
ATOM     20  C5  D3F d   1     -23.992 -43.638   5.690  0.00  0.00    -0.053 A 
ATOM     21  H2  D3F d   1     -24.231 -42.946   6.490  0.00  0.00     0.086 H 
BRANCH  18  22
ATOM     22  C7  D3F d   1     -22.901 -45.164   7.439  0.00  0.00    -0.050 C 
ATOM     23  H3  D3F d   1     -22.364 -46.124   7.440  0.00  0.00     0.033 H 
ATOM     24  H4  D3F d   1     -23.805 -45.249   8.060  0.00  0.00     0.033 H 
ATOM     25  H5  D3F d   1     -22.248 -44.379   7.848  0.00  0.00     0.033 H 
ENDBRANCH  18  22
ENDBRANCH   9  12
ENDBRANCH   1   9
BRANCH   2  26
ATOM     26  N2  D3F d   1     -25.438 -41.770   7.083  0.00  0.00    -0.114 N 
ATOM     27  O5  D3F d   1     -26.683 -42.459   6.951  0.00  0.00    -0.532 OA
ATOM     28  O6  D3F d   1     -24.348 -42.363   7.795  0.00  0.00    -0.532 OA
ENDBRANCH   2  26
BRANCH   6  29
ATOM     29  N1  D3F d   1     -24.727 -38.948   3.321  0.00  0.00    -0.114 N 
ATOM     30  O3  D3F d   1     -25.838 -38.973   2.417  0.00  0.00    -0.532 OA
ATOM     31  O4  D3F d   1     -23.402 -38.688   2.834  0.00  0.00    -0.532 OA
ENDBRANCH   6  29
BRANCH   4  32
ATOM     32  C14 D3F d   1     -25.080 -36.969   7.792  0.00  0.00     0.417 C 
ATOM     33  F1  D3F d   1     -24.794 -35.863   7.091  0.00  0.00    -0.166 F 
ATOM     34  F2  D3F d   1     -26.253 -36.817   8.445  0.00  0.00    -0.166 F 
ATOM     35  F3  D3F d   1     -24.115 -37.137   8.708  0.00  0.00    -0.166 F 
ENDBRANCH   4  32
TORSDOF 6
