REMARK  7 active torsions:
REMARK  status: ('A' for Active; 'I' for Inactive)
REMARK    1  A    between atoms: CAF_6  and  CAG_7 
REMARK    2  A    between atoms: CAG_7  and  CAH_8 
REMARK    3  A    between atoms: CAH_8  and  CAI_9 
REMARK    4  A    between atoms: CAL_13  and  CAN_14 
REMARK    5  A    between atoms: CAN_14  and  SAO_16 
REMARK    6  A    between atoms: SAO_16  and  CAP_17 
REMARK    7  A    between atoms: CAS_19  and  CAU_20 
ROOT
ATOM      1  CAI F3F d   1     -23.313 -37.958   1.754  0.00  0.00     0.129 A 
ATOM      2  OAM F3F d   1     -22.245 -38.863   1.876  0.00  0.00    -0.297 OA
ATOM      3  CAJ F3F d   1     -23.484 -37.632   0.472  0.00  0.00    -0.039 A 
ATOM      4  CAK F3F d   1     -22.602 -38.326  -0.271  0.00  0.00    -0.042 A 
ATOM      5  CAL F3F d   1     -21.878 -39.089   0.544  0.00  0.00     0.134 A 
ATOM      6  H6  F3F d   1     -24.216 -36.922   0.090  0.00  0.00     0.088 H 
ATOM      7  H7  F3F d   1     -22.499 -38.272  -1.354  0.00  0.00     0.088 H 
ENDROOT
BRANCH   1   8
ATOM      8  CAH F3F d   1     -23.976 -37.516   2.955  0.00  0.00    -0.036 C 
BRANCH   8   9
ATOM      9  CAG F3F d   1     -24.395 -36.956   4.008  0.00  0.00    -0.059 C 
BRANCH   9  10
ATOM     10  CAF F3F d   1     -24.912 -36.401   5.234  0.00  0.00     0.018 A 
ATOM     11  CAA F3F d   1     -24.756 -35.031   5.506  0.00  0.00    -0.065 A 
ATOM     12  CAB F3F d   1     -25.249 -34.489   6.700  0.00  0.00    -0.082 A 
ATOM     13  H1  F3F d   1     -24.253 -34.392   4.790  0.00  0.00     0.085 H 
ATOM     14  CAC F3F d   1     -25.894 -35.312   7.631  0.00  0.00    -0.083 A 
ATOM     15  H2  F3F d   1     -25.131 -33.431   6.903  0.00  0.00     0.083 H 
ATOM     16  CAD F3F d   1     -26.046 -36.678   7.364  0.00  0.00    -0.082 A 
ATOM     17  H3  F3F d   1     -26.274 -34.893   8.556  0.00  0.00     0.083 H 
ATOM     18  CAE F3F d   1     -25.557 -37.221   6.165  0.00  0.00    -0.065 A 
ATOM     19  H4  F3F d   1     -26.542 -37.318   8.085  0.00  0.00     0.083 H 
ATOM     20  H5  F3F d   1     -25.680 -38.279   5.961  0.00  0.00     0.085 H 
ENDBRANCH   9  10
ENDBRANCH   8   9
ENDBRANCH   1   8
BRANCH   5  21
ATOM     21  CAN F3F d   1     -20.749 -40.040   0.140  0.00  0.00     0.250 C 
ATOM     22  OAY F3F d   1     -20.318 -40.049  -1.016  0.00  0.00    -0.277 OA
BRANCH  21  23
ATOM     23  SAO F3F d   1     -20.015 -41.156   1.315  0.00  0.00    -0.005 SA
BRANCH  23  24
ATOM     24  CAP F3F d   1     -20.914 -42.596   0.864  0.00  0.00     0.197 A 
ATOM     25  NAT F3F d   1     -20.573 -43.836   1.165  0.00  0.00    -0.313 N 
ATOM     26  CAS F3F d   1     -21.556 -44.586   0.663  0.00  0.00     0.236 A 
ATOM     27  H8  F3F d   1     -19.735 -44.153   1.674  0.00  0.00     0.169 HD
ATOM     28  NAR F3F d   1     -22.438 -43.795   0.059  0.00  0.00    -0.124 NA
ATOM     29  NAQ F3F d   1     -22.055 -42.621   0.176  0.00  0.00    -0.122 NA
BRANCH  26  30
ATOM     30  CAU F3F d   1     -21.624 -46.100   0.838  0.00  0.00     0.453 C 
ATOM     31  FAW F3F d   1     -22.350 -46.740  -0.098  0.00  0.00    -0.163 F 
ATOM     32  FAX F3F d   1     -20.373 -46.544   0.775  0.00  0.00    -0.163 F 
ATOM     33  FAV F3F d   1     -22.145 -46.360   2.059  0.00  0.00    -0.163 F 
ENDBRANCH  26  30
ENDBRANCH  23  24
ENDBRANCH  21  23
ENDBRANCH   5  21
TORSDOF 7
