REMARK  20 active torsions:
REMARK  status: ('A' for Active; 'I' for Inactive)
REMARK    1  A    between atoms: C1_29  and  N_1 
REMARK    2  A    between atoms: N_1  and  S12_30 
REMARK    3  A    between atoms: C36_3  and  O49_4 
REMARK    4  A    between atoms: C11_7  and  C36_3 
REMARK    5  A    between atoms: O49_4  and  C51_5 
REMARK    6  A    between atoms: C51_5  and  C54_6 
REMARK    7  A    between atoms: C11_7  and  C15_8 
REMARK    8  A    between atoms: C11_7  and  C14_18 
REMARK    9  A    between atoms: C35_23  and  C11_7 
REMARK   10  A    between atoms: C15_8  and  C44_9 
REMARK   11  A    between atoms: C44_9  and  N39_10 
REMARK       I    between atoms: N39_10  and  C37_11 
REMARK   12  A    between atoms: C37_11  and  O19_13 
REMARK   13  A    between atoms: O19_13  and  C20_14 
REMARK   14  A    between atoms: C20_14  and  C23_15 
REMARK   15  A    between atoms: C20_14  and  C22_16 
REMARK   16  A    between atoms: C20_14  and  C21_17 
REMARK   17  A    between atoms: C14_18  and  O47_19 
REMARK   18  A    between atoms: O47_19  and  C50_20 
REMARK   19  A    between atoms: C50_20  and  C60_21 
REMARK   20  A    between atoms: C2_24  and  C35_23 
ROOT
ATOM      1  C11 3UN d   1      20.655   3.349  30.222  0.00  0.00     0.141 C 
ENDROOT
BRANCH   1   2
ATOM      2  C36 3UN d   1      20.413   2.595  31.511  0.00  0.00     0.278 C 
ATOM      3  O48 3UN d   1      19.527   1.763  31.665  0.00  0.00    -0.264 OA
BRANCH   2   4
ATOM      4  O49 3UN d   1      21.276   2.843  32.638  0.00  0.00    -0.321 OA
BRANCH   4   5
ATOM      5  C51 3UN d   1      21.200   2.015  33.798  0.00  0.00     0.025 C 
ATOM      6  H2  3UN d   1      20.624   1.106  33.571  0.00  0.00     0.074 H 
ATOM      7  H3  3UN d   1      20.712   2.563  34.617  0.00  0.00     0.074 H 
BRANCH   5   8
ATOM      8  C54 3UN d   1      22.608   1.644  34.197  0.00  0.00    -0.056 C 
ATOM      9  H4  3UN d   1      22.579   1.004  35.091  0.00  0.00     0.030 H 
ATOM     10  H5  3UN d   1      23.179   2.558  34.418  0.00  0.00     0.030 H 
ATOM     11  H6  3UN d   1      23.092   1.100  33.372  0.00  0.00     0.030 H 
ENDBRANCH   5   8
ENDBRANCH   4   5
ENDBRANCH   2   4
ENDBRANCH   1   2
BRANCH   1  12
ATOM     12  C15 3UN d   1      20.927   4.833  30.491  0.00  0.00    -0.025 C 
ATOM     13  H7  3UN d   1      21.212   5.296  29.535  0.00  0.00     0.038 H 
ATOM     14  H8  3UN d   1      21.772   4.893  31.193  0.00  0.00     0.038 H 
BRANCH  12  15
ATOM     15  C44 3UN d   1      19.778   5.661  31.080  0.00  0.00    -0.001 C 
ATOM     16  H9  3UN d   1      19.451   5.203  32.025  0.00  0.00     0.064 H 
ATOM     17  H10 3UN d   1      18.939   5.671  30.368  0.00  0.00     0.064 H 
BRANCH  15  18
ATOM     18  N39 3UN d   1      20.206   7.042  31.338  0.00  0.00    -0.337 N 
ATOM     19  C37 3UN d   1      20.061   8.128  30.567  0.00  0.00     0.361 C 
ATOM     20  O38 3UN d   1      19.532   8.082  29.467  0.00  0.00    -0.238 OA
ATOM     21  H11 3UN d   1      20.670   7.193  32.211  0.00  0.00     0.164 HD
BRANCH  19  22
ATOM     22  O19 3UN d   1      20.537   9.443  30.998  0.00  0.00    -0.294 OA
BRANCH  22  23
ATOM     23  C20 3UN d   1      20.251  10.657  30.285  0.00  0.00     0.061 C 
BRANCH  23  24
ATOM     24  C23 3UN d   1      18.842  10.633  29.699  0.00  0.00    -0.048 C 
ATOM     25  H12 3UN d   1      18.653  11.573  29.160  0.00  0.00     0.031 H 
ATOM     26  H13 3UN d   1      18.109  10.522  30.511  0.00  0.00     0.031 H 
ATOM     27  H14 3UN d   1      18.749   9.787  29.003  0.00  0.00     0.031 H 
ENDBRANCH  23  24
BRANCH  23  28
ATOM     28  C22 3UN d   1      20.331  11.861  31.223  0.00  0.00    -0.048 C 
ATOM     29  H15 3UN d   1      20.109  12.780  30.660  0.00  0.00     0.031 H 
ATOM     30  H16 3UN d   1      21.343  11.927  31.649  0.00  0.00     0.031 H 
ATOM     31  H17 3UN d   1      19.598  11.743  32.035  0.00  0.00     0.031 H 
ENDBRANCH  23  28
BRANCH  23  32
ATOM     32  C21 3UN d   1      21.285  10.813  29.167  0.00  0.00    -0.048 C 
ATOM     33  H18 3UN d   1      21.083  11.739  28.608  0.00  0.00     0.031 H 
ATOM     34  H19 3UN d   1      21.221   9.952  28.486  0.00  0.00     0.031 H 
ATOM     35  H20 3UN d   1      22.293  10.861  29.604  0.00  0.00     0.031 H 
ENDBRANCH  23  32
ENDBRANCH  22  23
ENDBRANCH  19  22
ENDBRANCH  15  18
ENDBRANCH  12  15
ENDBRANCH   1  12
BRANCH   1  36
ATOM     36  C14 3UN d   1      19.445   3.189  29.338  0.00  0.00     0.278 C 
ATOM     37  O46 3UN d   1      18.830   4.149  28.891  0.00  0.00    -0.264 OA
BRANCH  36  38
ATOM     38  O47 3UN d   1      19.026   1.838  29.028  0.00  0.00    -0.321 OA
BRANCH  38  39
ATOM     39  C50 3UN d   1      18.014   1.670  28.020  0.00  0.00     0.025 C 
ATOM     40  H21 3UN d   1      18.323   2.178  27.095  0.00  0.00     0.074 H 
ATOM     41  H22 3UN d   1      17.064   2.098  28.373  0.00  0.00     0.074 H 
BRANCH  39  42
ATOM     42  C60 3UN d   1      17.843   0.195  27.759  0.00  0.00    -0.056 C 
ATOM     43  H23 3UN d   1      17.072   0.046  26.989  0.00  0.00     0.030 H 
ATOM     44  H24 3UN d   1      17.537  -0.309  28.688  0.00  0.00     0.030 H 
ATOM     45  H25 3UN d   1      18.796  -0.229  27.410  0.00  0.00     0.030 H 
ENDBRANCH  39  42
ENDBRANCH  38  39
ENDBRANCH  36  38
ENDBRANCH   1  36
BRANCH   1  46
ATOM     46  C35 3UN d   1      21.849   2.630  29.548  0.00  0.00    -0.016 C 
ATOM     47  H26 3UN d   1      21.658   1.547  29.527  0.00  0.00     0.042 H 
ATOM     48  H27 3UN d   1      22.766   2.830  30.121  0.00  0.00     0.042 H 
BRANCH  46  49
ATOM     49  C2  3UN d   1      22.022   3.140  28.124  0.00  0.00    -0.056 A 
ATOM     50  C5  3UN d   1      21.508   2.432  27.028  0.00  0.00    -0.075 A 
ATOM     51  C4  3UN d   1      21.670   2.915  25.718  0.00  0.00    -0.056 A 
ATOM     52  H28 3UN d   1      20.979   1.500  27.193  0.00  0.00     0.084 H 
ATOM     53  C1  3UN d   1      22.335   4.130  25.495  0.00  0.00     0.044 A 
ATOM     54  H29 3UN d   1      21.281   2.349  24.880  0.00  0.00     0.087 H 
ATOM     55  C3  3UN d   1      22.851   4.838  26.594  0.00  0.00    -0.056 A 
ATOM     56  C6  3UN d   1      22.703   4.343  27.898  0.00  0.00    -0.075 A 
ATOM     57  H31 3UN d   1      23.369   5.777  26.432  0.00  0.00     0.087 H 
ATOM     58  H30 3UN d   1      23.117   4.894  28.735  0.00  0.00     0.084 H 
BRANCH  53  59
ATOM     59  N   3UN d   1      22.476   4.629  24.229  0.00  0.00    -0.266 N 
ATOM     60  H1  3UN d   1      21.830   5.317  23.898  0.00  0.00     0.181 HD
BRANCH  59  61
ATOM     61  S12 3UN d   1      23.676   4.123  23.251  0.00  0.00     0.209 S 
ATOM     62  O17 3UN d   1      24.850   4.734  23.897  0.00  0.00    -0.578 OA
ATOM     63  O18 3UN d   1      23.303   4.716  21.952  0.00  0.00    -0.578 OA
ATOM     64  O34 3UN d   1      23.746   2.660  23.372  0.00  0.00    -0.578 OA
ENDBRANCH  59  61
ENDBRANCH  53  59
ENDBRANCH  46  49
ENDBRANCH   1  46
TORSDOF 20
