REMARK  24 active torsions:
REMARK  status: ('A' for Active; 'I' for Inactive)
REMARK    1  A    between atoms: CA_2  and  N_1 
REMARK    2  A    between atoms: CA_2  and  CB_5 
REMARK    3  A    between atoms: C_3  and  CA_2 
REMARK       I    between atoms: N_6  and  C_3 
REMARK    4  A    between atoms: CA_7  and  N_6 
REMARK    5  A    between atoms: CA_7  and  CB_10 
REMARK    6  A    between atoms: C_8  and  CA_7 
REMARK       I    between atoms: N_17  and  C_8 
REMARK    7  A    between atoms: CB_10  and  CG_11 
REMARK    8  A    between atoms: CG_11  and  CD_12 
REMARK    9  A    between atoms: CD_12  and  NE_13 
REMARK       I    between atoms: NE_13  and  CZ_14 
REMARK       I    between atoms: CZ_14  and  NH1_15 
REMARK   10  A    between atoms: CA_18  and  N_17 
REMARK   11  A    between atoms: CA_18  and  CB_21 
REMARK   12  A    between atoms: C_19  and  CA_18 
REMARK       I    between atoms: N_24  and  C_19 
REMARK   13  A    between atoms: CB_21  and  CG2_23 
REMARK   14  A    between atoms: CB_21  and  OG1_22 
REMARK   15  A    between atoms: CA_25  and  N_24 
REMARK   16  A    between atoms: CA_25  and  CB_26 
REMARK   17  A    between atoms: C_28  and  CA_25 
REMARK   18  A    between atoms: CB_26  and  CG_27 
REMARK       I    between atoms: C_28  and  N_30 
REMARK   19  A    between atoms: N_30  and  CA_31 
REMARK   20  A    between atoms: CA_31  and  CB_34 
REMARK   21  A    between atoms: CA_31  and  C_32 
REMARK   22  A    between atoms: C_32  and  O1_39 
REMARK   23  A    between atoms: CB_34  and  CG_35 
REMARK   24  A    between atoms: CG_35  and  CD_36 
REMARK       I    between atoms: CD_36  and  NE2_38 
ROOT
ATOM      1  CA  THR d   1     -16.317 -28.116 -10.454  0.00  0.00     0.113 C 
ATOM      2  H22 THR d   1     -17.310 -27.643 -10.445  0.00  0.00     0.091 H 
ENDROOT
BRANCH   1   3
ATOM      3  N   THR d   1     -15.529 -27.542  -9.351  0.00  0.00    -0.344 N 
ATOM      4  C   ARG d   1     -16.081 -27.291  -8.175  0.00  0.00     0.241 C 
ATOM      5  O   ARG d   1     -17.271 -27.515  -7.939  0.00  0.00    -0.271 OA
ATOM      6  H21 THR d   1     -14.560 -27.338  -9.493  0.00  0.00     0.163 HD
BRANCH   4   7
ATOM      7  CA  ARG d   1     -15.175 -26.582  -7.178  0.00  0.00     0.089 C 
ATOM      8  H9  ARG d   1     -15.446 -26.898  -6.160  0.00  0.00     0.087 H 
BRANCH   7   9
ATOM      9  N   ARG d   1     -13.761 -26.845  -7.397  0.00  0.00    -0.346 N 
ATOM     10  C   ALA d   1     -13.239 -28.062  -7.547  0.00  0.00     0.248 C 
ATOM     11  O   ALA d   1     -13.907 -29.097  -7.600  0.00  0.00    -0.271 OA
ATOM     12  H8  ARG d   1     -13.140 -26.062  -7.438  0.00  0.00     0.163 HD
BRANCH  10  13
ATOM     13  CA  ALA d   1     -11.712 -28.130  -7.695  0.00  0.00     0.172 C 
ATOM     14  H4  ALA d   1     -11.256 -27.548  -6.880  0.00  0.00     0.098 H 
BRANCH  13  15
ATOM     15  N   ALA d   1     -11.208 -29.538  -7.605  0.00  0.00    -0.067 N 
ATOM     16  H1  ALA d   1     -10.205 -29.543  -7.706  0.00  0.00     0.275 HD
ATOM     17  H2  ALA d   1     -11.623 -30.091  -8.339  0.00  0.00     0.275 HD
ATOM     18  H3  ALA d   1     -11.457 -29.927  -6.709  0.00  0.00     0.275 HD
ENDBRANCH  13  15
BRANCH  13  19
ATOM     19  CB  ALA d   1     -11.315 -27.511  -9.016  0.00  0.00    -0.042 C 
ATOM     20  H5  ALA d   1     -11.692 -26.479  -9.065  0.00  0.00     0.030 H 
ATOM     21  H6  ALA d   1     -11.745 -28.099  -9.840  0.00  0.00     0.030 H 
ATOM     22  H7  ALA d   1     -10.219 -27.505  -9.103  0.00  0.00     0.030 H 
ENDBRANCH  13  19
ENDBRANCH  10  13
ENDBRANCH   7   9
BRANCH   7  23
ATOM     23  CB  ARG d   1     -15.393 -25.050  -7.342  0.00  0.00    -0.036 C 
ATOM     24  H10 ARG d   1     -15.124 -24.785  -8.375  0.00  0.00     0.036 H 
ATOM     25  H11 ARG d   1     -14.712 -24.541  -6.644  0.00  0.00     0.036 H 
BRANCH  23  26
ATOM     26  CG  ARG d   1     -16.782 -24.527  -7.085  0.00  0.00    -0.048 C 
ATOM     27  H12 ARG d   1     -17.069 -24.755  -6.048  0.00  0.00     0.035 H 
ATOM     28  H13 ARG d   1     -17.486 -25.014  -7.776  0.00  0.00     0.035 H 
BRANCH  26  29
ATOM     29  CD  ARG d   1     -16.829 -23.025  -7.299  0.00  0.00     0.009 C 
ATOM     30  H14 ARG d   1     -17.855 -22.672  -7.120  0.00  0.00     0.064 H 
ATOM     31  H15 ARG d   1     -16.541 -22.804  -8.337  0.00  0.00     0.064 H 
BRANCH  29  32
ATOM     32  NE  ARG d   1     -15.916 -22.316  -6.390  0.00  0.00    -0.227 N 
ATOM     33  CZ  ARG d   1     -16.303 -21.769  -5.231  0.00  0.00     0.665 C 
ATOM     34  NH2 ARG d   1     -15.430 -21.122  -4.451  0.00  0.00    -0.235 N 
ATOM     35  NH1 ARG d   1     -17.601 -21.879  -4.827  0.00  0.00    -0.235 N 
ATOM     36  H19 ARG d   1     -14.447 -21.031  -4.744  0.00  0.00     0.174 HD
ATOM     37  H20 ARG d   1     -15.741 -20.714  -3.558  0.00  0.00     0.174 HD
ATOM     38  H17 ARG d   1     -17.900 -21.459  -3.936  0.00  0.00     0.174 HD
ATOM     39  H18 ARG d   1     -18.282 -22.382  -5.413  0.00  0.00     0.174 HD
ATOM     40  H16 ARG d   1     -14.925 -22.236  -6.660  0.00  0.00     0.177 HD
ENDBRANCH  29  32
ENDBRANCH  26  29
ENDBRANCH  23  26
ENDBRANCH   7  23
ENDBRANCH   4   7
ENDBRANCH   1   3
BRANCH   1  41
ATOM     41  CB  THR d   1     -15.625 -27.755 -11.756  0.00  0.00     0.060 C 
ATOM     42  H23 THR d   1     -16.130 -28.248 -12.600  0.00  0.00     0.086 H 
BRANCH  41  43
ATOM     43  CG2 THR d   1     -15.648 -26.256 -11.956  0.00  0.00    -0.050 C 
ATOM     44  H25 THR d   1     -15.145 -26.005 -12.901  0.00  0.00     0.031 H 
ATOM     45  H26 THR d   1     -15.126 -25.767 -11.121  0.00  0.00     0.031 H 
ATOM     46  H27 THR d   1     -16.691 -25.907 -11.992  0.00  0.00     0.031 H 
ENDBRANCH  41  43
BRANCH  41  47
ATOM     47  OG1 THR d   1     -14.282 -28.201 -11.665  0.00  0.00    -0.393 OA
ATOM     48  H24 THR d   1     -14.270 -29.143 -11.539  0.00  0.00     0.210 HD
ENDBRANCH  41  47
ENDBRANCH   1  41
BRANCH   1  49
ATOM     49  C   THR d   1     -16.529 -29.619 -10.335  0.00  0.00     0.243 C 
ATOM     50  O   THR d   1     -17.211 -30.212 -11.192  0.00  0.00    -0.271 OA
ATOM     51  N   MLY d   1     -16.007 -30.195  -9.242  0.00  0.00    -0.346 N 
ATOM     52  H28 MLY d   1     -15.408 -29.644  -8.661  0.00  0.00     0.163 HD
BRANCH  51  53
ATOM     53  CA  MLY d   1     -16.264 -31.595  -8.844  0.00  0.00     0.089 C 
ATOM     54  H29 MLY d   1     -16.961 -32.039  -9.570  0.00  0.00     0.087 H 
BRANCH  53  55
ATOM     55  CB  MLY d   1     -14.945 -32.386  -8.862  0.00  0.00    -0.041 C 
ATOM     56  H30 MLY d   1     -15.121 -33.372  -8.406  0.00  0.00     0.036 H 
ATOM     57  H31 MLY d   1     -14.199 -31.836  -8.270  0.00  0.00     0.036 H 
BRANCH  55  58
ATOM     58  CG  MLY d   1     -14.405 -32.588 -10.237  0.00  0.00    -0.074 C 
ATOM     59  H32 MLY d   1     -13.466 -33.157 -10.182  0.00  0.00     0.027 H 
ATOM     60  H33 MLY d   1     -14.214 -31.610 -10.703  0.00  0.00     0.027 H 
ATOM     61  H34 MLY d   1     -15.137 -33.145 -10.840  0.00  0.00     0.027 H 
ENDBRANCH  55  58
ENDBRANCH  53  55
BRANCH  53  62
ATOM     62  C   MLY d   1     -16.885 -31.707  -7.433  0.00  0.00     0.241 C 
ATOM     63  O   MLY d   1     -16.915 -30.722  -6.676  0.00  0.00    -0.271 OA
ATOM     64  N   GLN d   1     -17.367 -32.921  -7.156  0.00  0.00    -0.345 N 
ATOM     65  H35 GLN d   1     -17.562 -33.491  -7.954  0.00  0.00     0.163 HD
BRANCH  64  66
ATOM     66  CA  GLN d   1     -17.659 -33.558  -5.841  0.00  0.00     0.093 C 
ATOM     67  H36 GLN d   1     -17.444 -34.622  -6.020  0.00  0.00     0.089 H 
BRANCH  66  68
ATOM     68  CB  GLN d   1     -16.682 -33.193  -4.686  0.00  0.00    -0.029 C 
ATOM     69  H37 GLN d   1     -15.770 -32.776  -5.137  0.00  0.00     0.037 H 
ATOM     70  H38 GLN d   1     -16.435 -34.121  -4.149  0.00  0.00     0.037 H 
BRANCH  68  71
ATOM     71  CG  GLN d   1     -17.199 -32.182  -3.658  0.00  0.00     0.011 C 
ATOM     72  H39 GLN d   1     -18.253 -31.967  -3.886  0.00  0.00     0.047 H 
ATOM     73  H40 GLN d   1     -16.608 -31.259  -3.754  0.00  0.00     0.047 H 
BRANCH  71  74
ATOM     74  CD  GLN d   1     -17.109 -32.662  -2.200  0.00  0.00     0.215 C 
ATOM     75  NE2 GLN d   1     -16.670 -31.763  -1.325  0.00  0.00    -0.370 N 
ATOM     76  H41 GLN d   1     -16.586 -32.006  -0.358  0.00  0.00     0.159 HD
ATOM     77  H42 GLN d   1     -16.424 -30.844  -1.633  0.00  0.00     0.159 HD
ATOM     78  OE1 GLN d   1     -17.461 -33.802  -1.858  0.00  0.00    -0.274 OA
ENDBRANCH  71  74
ENDBRANCH  68  71
ENDBRANCH  66  68
BRANCH  66  79
ATOM     79  C   GLN d   1     -19.151 -33.553  -5.473  0.00  0.00     0.163 C 
ATOM     80  O   GLN d   1     -19.989 -33.790  -6.365  0.00  0.00    -0.648 OA
BRANCH  79  81
ATOM     81  O1  GLN d   1     -19.541 -33.301  -4.227  0.00  0.00    -0.775 OA
ATOM     82  H43 GLN d   1     -20.023 -34.047  -3.890  0.00  0.00     0.167 HD
ENDBRANCH  79  81
ENDBRANCH  66  79
ENDBRANCH  64  66
ENDBRANCH  53  62
ENDBRANCH  51  53
ENDBRANCH   1  49
TORSDOF 24
