REMARK  16 active torsions:
REMARK  status: ('A' for Active; 'I' for Inactive)
REMARK    1  A    between atoms: C1D_32  and  N9_1 
REMARK    2  A    between atoms: PA_11  and  O3A_14 
REMARK    3  A    between atoms: O5D_40  and  PA_11 
REMARK    4  A    between atoms: O3A_14  and  PB_15 
REMARK    5  A    between atoms: PB_15  and  O3B_18 
REMARK    6  A    between atoms: O3B_18  and  C1'_19 
REMARK    7  A    between atoms: C3'_21  and  O3'_27 
REMARK    8  A    between atoms: C4'_22  and  O4'_28 
REMARK    9  A    between atoms: C5'_23  and  C6'_24 
REMARK   10  A    between atoms: C6'_24  and  C7'_25 
REMARK   11  A    between atoms: C6'_24  and  O6'_30 
REMARK   12  A    between atoms: C7'_25  and  O7'_31 
REMARK   13  A    between atoms: C2D_33  and  O2'_34 
REMARK   14  A    between atoms: C3D_35  and  O3D_38 
REMARK   15  A    between atoms: C5D_39  and  C4D_36 
REMARK   16  A    between atoms: C5D_39  and  O5D_40 
ROOT
ATOM      1  PA  AFH d   1      42.592   9.373   1.484  0.00  0.00     0.417 P 
ATOM      2  O1A AFH d   1      41.925   9.591   0.259  0.00  0.00    -0.624 OA
ATOM      3  O2A AFH d   1      41.583   9.363   2.545  0.00  0.00    -0.624 OA
ENDROOT
BRANCH   1   4
ATOM      4  O3A AFH d   1      43.421   8.102   1.309  0.00  0.00    -0.180 OA
BRANCH   4   5
ATOM      5  PB  AFH d   1      43.177   6.634   1.242  0.00  0.00     0.420 P 
ATOM      6  O1B AFH d   1      43.747   6.041  -0.011  0.00  0.00    -0.624 OA
ATOM      7  O2B AFH d   1      43.814   6.076   2.399  0.00  0.00    -0.624 OA
BRANCH   5   8
ATOM      8  O3B AFH d   1      41.571   6.529   1.425  0.00  0.00    -0.255 OA
BRANCH   8   9
ATOM      9  C1' AFH d   1      40.951   5.508   0.964  0.00  0.00     0.175 C 
ATOM     10  C2' AFH d   1      40.003   4.861   1.984  0.00  0.00     0.153 C 
ATOM     11  C3' AFH d   1      39.308   3.655   1.298  0.00  0.00     0.097 C 
ATOM     12  F   AFH d   1      40.740   4.432   3.110  0.00  0.00    -0.241 F 
ATOM     13  H6  AFH d   1      39.245   5.591   2.303  0.00  0.00     0.103 H 
ATOM     14  C4' AFH d   1      38.518   4.221   0.097  0.00  0.00     0.090 C 
ATOM     15  H7  AFH d   1      40.059   2.930   0.950  0.00  0.00     0.091 H 
ATOM     16  C5' AFH d   1      39.479   4.900  -0.918  0.00  0.00     0.095 C 
ATOM     17  H8  AFH d   1      37.790   4.958   0.468  0.00  0.00     0.091 H 
ATOM     18  O5' AFH d   1      40.256   5.976  -0.239  0.00  0.00    -0.347 OA
ATOM     19  H9  AFH d   1      40.178   4.129  -1.275  0.00  0.00     0.091 H 
ATOM     20  H5  AFH d   1      41.690   4.747   0.674  0.00  0.00     0.134 H 
BRANCH  11  21
ATOM     21  O3' AFH d   1      38.424   3.020   2.218  0.00  0.00    -0.390 OA
ATOM     22  H13 AFH d   1      37.790   3.653   2.534  0.00  0.00     0.210 HD
ENDBRANCH  11  21
BRANCH  14  23
ATOM     23  O4' AFH d   1      37.837   3.197  -0.605  0.00  0.00    -0.390 OA
ATOM     24  H14 AFH d   1      37.237   2.756  -0.015  0.00  0.00     0.210 HD
ENDBRANCH  14  23
BRANCH  16  25
ATOM     25  C6' AFH d   1      38.782   5.532  -2.171  0.00  0.00     0.083 C 
ATOM     26  H10 AFH d   1      38.247   4.723  -2.690  0.00  0.00     0.090 H 
BRANCH  25  27
ATOM     27  C7' AFH d   1      39.725   6.201  -3.211  0.00  0.00     0.043 C 
ATOM     28  H11 AFH d   1      39.428   7.256  -3.301  0.00  0.00     0.078 H 
ATOM     29  H12 AFH d   1      39.572   5.694  -4.175  0.00  0.00     0.078 H 
BRANCH  27  30
ATOM     30  O7' AFH d   1      41.123   6.168  -2.921  0.00  0.00    -0.398 OA
ATOM     31  H16 AFH d   1      41.285   6.615  -2.099  0.00  0.00     0.209 HD
ENDBRANCH  27  30
ENDBRANCH  25  27
BRANCH  25  32
ATOM     32  O6' AFH d   1      37.826   6.498  -1.719  0.00  0.00    -0.391 OA
ATOM     33  H15 AFH d   1      38.281   7.228  -1.316  0.00  0.00     0.210 HD
ENDBRANCH  25  32
ENDBRANCH  16  25
ENDBRANCH   8   9
ENDBRANCH   5   8
ENDBRANCH   4   5
ENDBRANCH   1   4
BRANCH   1  34
ATOM     34  O5D AFH d   1      43.707  10.448   1.697  0.00  0.00    -0.287 OA
BRANCH  34  35
ATOM     35  C5D AFH d   1      44.891  10.349   2.571  0.00  0.00     0.058 C 
ATOM     36  H23 AFH d   1      44.961   9.331   2.982  0.00  0.00     0.079 H 
ATOM     37  H24 AFH d   1      45.798  10.573   1.990  0.00  0.00     0.079 H 
BRANCH  35  38
ATOM     38  C4D AFH d   1      44.755  11.349   3.708  0.00  0.00     0.089 C 
ATOM     39  C3D AFH d   1      45.121  12.662   3.148  0.00  0.00     0.091 C 
ATOM     40  C2D AFH d   1      46.513  12.858   3.686  0.00  0.00     0.105 C 
ATOM     41  H20 AFH d   1      45.130  12.643   2.048  0.00  0.00     0.091 H 
ATOM     42  C1D AFH d   1      46.434  12.187   5.059  0.00  0.00     0.139 C 
ATOM     43  H18 AFH d   1      47.214  12.289   3.058  0.00  0.00     0.093 H 
ATOM     44  O4D AFH d   1      45.568  11.081   4.867  0.00  0.00    -0.353 OA
ATOM     45  H17 AFH d   1      45.991  12.882   5.787  0.00  0.00     0.122 H 
ATOM     46  H21 AFH d   1      43.704  11.366   4.032  0.00  0.00     0.090 H 
BRANCH  39  47
ATOM     47  O3D AFH d   1      44.180  13.653   3.596  0.00  0.00    -0.390 OA
ATOM     48  H22 AFH d   1      44.417  14.499   3.235  0.00  0.00     0.210 HD
ENDBRANCH  39  47
BRANCH  40  49
ATOM     49  O2' AFH d   1      46.987  14.205   3.685  0.00  0.00    -0.388 OA
ATOM     50  H19 AFH d   1      46.410  14.743   4.213  0.00  0.00     0.210 HD
ENDBRANCH  40  49
BRANCH  42  51
ATOM     51  N9  AFH d   1      47.797  11.774   5.569  0.00  0.00    -0.294 N 
ATOM     52  C8  AFH d   1      48.721  10.976   4.961  0.00  0.00     0.071 A 
ATOM     53  N7  AFH d   1      49.790  10.855   5.727  0.00  0.00    -0.236 NA
ATOM     54  H1  AFH d   1      48.596  10.507   3.986  0.00  0.00     0.144 H 
ATOM     55  C5  AFH d   1      49.598  11.549   6.830  0.00  0.00     0.149 A 
ATOM     56  C6  AFH d   1      50.342  11.831   8.027  0.00  0.00     0.155 A 
ATOM     57  C4  AFH d   1      48.289  12.156   6.733  0.00  0.00     0.167 A 
ATOM     58  N6  AFH d   1      51.557  11.296   8.156  0.00  0.00    -0.382 N 
ATOM     59  N1  AFH d   1      49.801  12.654   9.052  0.00  0.00    -0.222 NA
ATOM     60  H2  AFH d   1      52.114  11.480   9.003  0.00  0.00     0.157 HD
ATOM     61  H3  AFH d   1      51.939  10.698   7.409  0.00  0.00     0.157 HD
ATOM     62  C2  AFH d   1      48.545  13.219   8.938  0.00  0.00     0.091 A 
ATOM     63  N3  AFH d   1      47.821  12.957   7.783  0.00  0.00    -0.222 NA
ATOM     64  H4  AFH d   1      48.139  13.845   9.724  0.00  0.00     0.146 H 
ENDBRANCH  42  51
ENDBRANCH  35  38
ENDBRANCH  34  35
ENDBRANCH   1  34
TORSDOF 16
