REMARK  11 active torsions:
REMARK  status: ('A' for Active; 'I' for Inactive)
REMARK    1  A    between atoms: N_1  and  CA_2 
REMARK    2  A    between atoms: CA_2  and  CB_3 
REMARK    3  A    between atoms: CA_2  and  C_6 
REMARK    4  A    between atoms: CB_3  and  CG_4 
REMARK    5  A    between atoms: CG_4  and  SD_5 
REMARK    6  A    between atoms: SD_5  and  C5_9 
REMARK    7  A    between atoms: C5_9  and  C4_10 
REMARK    8  A    between atoms: C3_12  and  O3_13 
REMARK    9  A    between atoms: C2_14  and  O2_15 
REMARK   10  A    between atoms: C1_16  and  N9_17 
REMARK   11  A    between atoms: C6_21  and  N6_22 
ROOT
ATOM      1  C4  SAH d   1      70.564 130.493  54.769  0.00  0.00     0.076 C 
ATOM      2  O4  SAH d   1      71.403 130.956  53.668  0.00  0.00    -0.355 OA
ATOM      3  C3  SAH d   1      71.438 129.475  55.501  0.00  0.00     0.090 C 
ATOM      4  C2  SAH d   1      72.318 128.921  54.400  0.00  0.00     0.105 C 
ATOM      5  C1  SAH d   1      72.610 130.210  53.633  0.00  0.00     0.139 C 
ATOM      6  H11 SAH d   1      69.662 129.994  54.386  0.00  0.00     0.088 H 
ATOM      7  H12 SAH d   1      72.062 129.997  56.241  0.00  0.00     0.091 H 
ATOM      8  H14 SAH d   1      73.251 128.548  54.847  0.00  0.00     0.093 H 
ATOM      9  H16 SAH d   1      72.860 129.961  52.591  0.00  0.00     0.122 H 
ENDROOT
BRANCH   1  10
ATOM     10  C5  SAH d   1      70.136 131.686  55.610  0.00  0.00     0.003 C 
ATOM     11  H9  SAH d   1      69.834 131.316  56.601  0.00  0.00     0.052 H 
ATOM     12  H10 SAH d   1      71.001 132.357  55.717  0.00  0.00     0.052 H 
BRANCH  10  13
ATOM     13  SD  SAH d   1      68.779 132.631  54.932  0.00  0.00    -0.166 SA
BRANCH  13  14
ATOM     14  CG  SAH d   1      69.735 133.738  53.829  0.00  0.00    -0.021 C 
ATOM     15  H7  SAH d   1      69.699 134.750  54.260  0.00  0.00     0.049 H 
ATOM     16  H8  SAH d   1      70.775 133.381  53.819  0.00  0.00     0.049 H 
BRANCH  14  17
ATOM     17  CB  SAH d   1      69.272 133.834  52.402  0.00  0.00    -0.021 C 
ATOM     18  H5  SAH d   1      68.172 133.842  52.401  0.00  0.00     0.037 H 
ATOM     19  H6  SAH d   1      69.646 134.781  51.987  0.00  0.00     0.037 H 
BRANCH  17  20
ATOM     20  CA  SAH d   1      69.746 132.679  51.469  0.00  0.00     0.183 C 
ATOM     21  H4  SAH d   1      69.798 131.756  52.066  0.00  0.00     0.101 H 
BRANCH  20  22
ATOM     22  N   SAH d   1      71.085 132.967  50.943  0.00  0.00    -0.065 N 
ATOM     23  H1  SAH d   1      71.722 133.118  51.710  0.00  0.00     0.275 HD
ATOM     24  H2  SAH d   1      71.049 133.794  50.368  0.00  0.00     0.275 HD
ATOM     25  H3  SAH d   1      71.404 132.187  50.390  0.00  0.00     0.275 HD
ENDBRANCH  20  22
BRANCH  20  26
ATOM     26  C   SAH d   1      68.744 132.442  50.291  0.00  0.00     0.204 C 
ATOM     27  O   SAH d   1      67.524 132.344  50.538  0.00  0.00    -0.646 OA
ATOM     28  OXT SAH d   1      69.172 132.346  49.112  0.00  0.00    -0.646 OA
ENDBRANCH  20  26
ENDBRANCH  17  20
ENDBRANCH  14  17
ENDBRANCH  13  14
ENDBRANCH  10  13
ENDBRANCH   1  10
BRANCH   3  29
ATOM     29  O3  SAH d   1      70.703 128.475  56.196  0.00  0.00    -0.390 OA
ATOM     30  H13 SAH d   1      70.166 127.992  55.579  0.00  0.00     0.210 HD
ENDBRANCH   3  29
BRANCH   5  31
ATOM     31  N9  SAH d   1      73.744 130.996  54.206  0.00  0.00    -0.294 N 
ATOM     32  C8  SAH d   1      73.743 132.172  54.952  0.00  0.00     0.071 A 
ATOM     33  N7  SAH d   1      74.928 132.594  55.305  0.00  0.00    -0.236 NA
ATOM     34  H17 SAH d   1      72.828 132.698  55.220  0.00  0.00     0.144 H 
ATOM     35  C5  SAH d   1      75.788 131.639  54.761  0.00  0.00     0.149 A 
ATOM     36  C6  SAH d   1      77.214 131.486  54.772  0.00  0.00     0.155 A 
ATOM     37  C4  SAH d   1      75.068 130.649  54.073  0.00  0.00     0.167 A 
ATOM     38  N1  SAH d   1      77.762 130.406  54.124  0.00  0.00    -0.222 NA
ATOM     39  C2  SAH d   1      76.944 129.524  53.493  0.00  0.00     0.091 A 
ATOM     40  N3  SAH d   1      75.587 129.558  53.411  0.00  0.00    -0.222 NA
ATOM     41  H20 SAH d   1      77.431 128.694  52.995  0.00  0.00     0.146 H 
BRANCH  36  42
ATOM     42  N6  SAH d   1      78.034 132.337  55.385  0.00  0.00    -0.382 N 
ATOM     43  H18 SAH d   1      79.052 132.179  55.361  0.00  0.00     0.157 HD
ATOM     44  H19 SAH d   1      77.651 133.153  55.883  0.00  0.00     0.157 HD
ENDBRANCH  36  42
ENDBRANCH   5  31
BRANCH   4  45
ATOM     45  O2  SAH d   1      71.806 127.848  53.629  0.00  0.00    -0.388 OA
ATOM     46  H15 SAH d   1      71.006 128.124  53.197  0.00  0.00     0.210 HD
ENDBRANCH   4  45
TORSDOF 11
