REMARK  12 active torsions:
REMARK  status: ('A' for Active; 'I' for Inactive)
REMARK    1  A    between atoms: N_1  and  CA_2 
REMARK    2  A    between atoms: CA_2  and  C_3 
REMARK    3  A    between atoms: CA_2  and  CB_6 
REMARK    4  A    between atoms: CB_6  and  CG_7 
REMARK    5  A    between atoms: CG_7  and  ND_8 
REMARK    6  A    between atoms: ND_8  and  CE_9 
REMARK    7  A    between atoms: ND_8  and  C5_10 
REMARK    8  A    between atoms: C5_10  and  C4_11 
REMARK    9  A    between atoms: C3_13  and  O3_14 
REMARK   10  A    between atoms: C2_15  and  O2_16 
REMARK   11  A    between atoms: C1_17  and  N9_18 
REMARK   12  A    between atoms: C6_22  and  N6_23 
ROOT
ATOM      1  C4  SA8 d   1      71.295 132.497  53.608  0.00  0.00     0.091 C 
ATOM      2  O4  SA8 d   1      72.484 133.322  53.741  0.00  0.00    -0.354 OA
ATOM      3  C3  SA8 d   1      71.731 131.040  53.624  0.00  0.00     0.091 C 
ATOM      4  C2  SA8 d   1      73.245 131.096  53.726  0.00  0.00     0.105 C 
ATOM      5  C1  SA8 d   1      73.602 132.527  53.323  0.00  0.00     0.139 C 
ATOM      6  H15 SA8 d   1      70.859 132.708  52.620  0.00  0.00     0.090 H 
ATOM      7  H16 SA8 d   1      71.321 130.522  54.504  0.00  0.00     0.091 H 
ATOM      8  H18 SA8 d   1      73.565 130.909  54.761  0.00  0.00     0.093 H 
ATOM      9  H20 SA8 d   1      73.717 132.582  52.230  0.00  0.00     0.122 H 
ENDROOT
BRANCH   1  10
ATOM     10  C5  SA8 d   1      70.212 132.773  54.624  0.00  0.00     0.109 C 
ATOM     11  H13 SA8 d   1      69.365 132.118  54.371  0.00  0.00     0.080 H 
ATOM     12  H14 SA8 d   1      70.617 132.486  55.605  0.00  0.00     0.080 H 
BRANCH  10  13
ATOM     13  ND  SA8 d   1      69.630 134.224  54.782  0.00  0.00    -0.072 N 
ATOM     14  H9  SA8 d   1      68.624 134.165  54.811  0.00  0.00     0.279 HD
BRANCH  13  15
ATOM     15  CG  SA8 d   1      70.021 135.187  53.613  0.00  0.00     0.086 C 
ATOM     16  H7  SA8 d   1      69.614 136.183  53.842  0.00  0.00     0.076 H 
ATOM     17  H8  SA8 d   1      71.119 135.241  53.569  0.00  0.00     0.076 H 
BRANCH  15  18
ATOM     18  CB  SA8 d   1      69.508 134.770  52.225  0.00  0.00    -0.006 C 
ATOM     19  H5  SA8 d   1      69.215 133.711  52.284  0.00  0.00     0.039 H 
ATOM     20  H6  SA8 d   1      68.623 135.383  52.001  0.00  0.00     0.039 H 
BRANCH  18  21
ATOM     21  CA  SA8 d   1      70.482 134.916  51.049  0.00  0.00     0.184 C 
ATOM     22  H4  SA8 d   1      71.364 134.286  51.235  0.00  0.00     0.101 H 
BRANCH  21  23
ATOM     23  N   SA8 d   1      70.910 136.293  50.919  0.00  0.00    -0.065 N 
ATOM     24  H1  SA8 d   1      71.356 136.588  51.773  0.00  0.00     0.275 HD
ATOM     25  H2  SA8 d   1      70.109 136.878  50.739  0.00  0.00     0.275 HD
ATOM     26  H3  SA8 d   1      71.562 136.371  50.155  0.00  0.00     0.275 HD
ENDBRANCH  21  23
BRANCH  21  27
ATOM     27  C   SA8 d   1      69.797 134.449  49.750  0.00  0.00     0.204 C 
ATOM     28  O   SA8 d   1      68.698 134.955  49.423  0.00  0.00    -0.646 OA
ATOM     29  OXT SA8 d   1      70.370 133.583  49.076  0.00  0.00    -0.646 OA
ENDBRANCH  21  27
ENDBRANCH  18  21
ENDBRANCH  15  18
ENDBRANCH  13  15
BRANCH  13  30
ATOM     30  CE  SA8 d   1      70.122 134.746  56.067  0.00  0.00     0.066 C 
ATOM     31  H10 SA8 d   1      69.838 134.057  56.876  0.00  0.00     0.068 H 
ATOM     32  H11 SA8 d   1      69.678 135.735  56.255  0.00  0.00     0.068 H 
ATOM     33  H12 SA8 d   1      71.218 134.837  56.031  0.00  0.00     0.068 H 
ENDBRANCH  13  30
ENDBRANCH  10  13
ENDBRANCH   1  10
BRANCH   3  34
ATOM     34  O3  SA8 d   1      71.246 130.389  52.438  0.00  0.00    -0.390 OA
ATOM     35  H17 SA8 d   1      71.517 129.478  52.445  0.00  0.00     0.210 HD
ENDBRANCH   3  34
BRANCH   5  36
ATOM     36  N9  SA8 d   1      74.875 133.030  53.964  0.00  0.00    -0.294 N 
ATOM     37  C8  SA8 d   1      75.047 133.978  54.940  0.00  0.00     0.071 A 
ATOM     38  N7  SA8 d   1      76.265 134.229  55.316  0.00  0.00    -0.236 NA
ATOM     39  H21 SA8 d   1      74.198 134.499  55.381  0.00  0.00     0.144 H 
ATOM     40  C5  SA8 d   1      77.028 133.360  54.511  0.00  0.00     0.149 A 
ATOM     41  C6  SA8 d   1      78.438 133.090  54.386  0.00  0.00     0.155 A 
ATOM     42  C4  SA8 d   1      76.192 132.613  53.674  0.00  0.00     0.167 A 
ATOM     43  N1  SA8 d   1      78.854 132.141  53.470  0.00  0.00    -0.222 NA
ATOM     44  C2  SA8 d   1      77.930 131.492  52.718  0.00  0.00     0.091 A 
ATOM     45  N3  SA8 d   1      76.585 131.648  52.735  0.00  0.00    -0.222 NA
ATOM     46  H24 SA8 d   1      78.315 130.759  52.018  0.00  0.00     0.146 H 
BRANCH  41  47
ATOM     47  N6  SA8 d   1      79.364 133.722  55.120  0.00  0.00    -0.382 N 
ATOM     48  H22 SA8 d   1      80.361 133.496  54.996  0.00  0.00     0.157 HD
ATOM     49  H23 SA8 d   1      79.078 134.434  55.808  0.00  0.00     0.157 HD
ENDBRANCH  41  47
ENDBRANCH   5  36
BRANCH   4  50
ATOM     50  O2  SA8 d   1      73.852 130.099  52.865  0.00  0.00    -0.388 OA
ATOM     51  H19 SA8 d   1      73.557 129.234  53.127  0.00  0.00     0.210 HD
ENDBRANCH   4  50
TORSDOF 12
