REMARK  12 active torsions:
REMARK  status: ('A' for Active; 'I' for Inactive)
REMARK    1  A    between atoms: N_1  and  CA_2 
REMARK    2  A    between atoms: CA_2  and  C_3 
REMARK    3  A    between atoms: CA_2  and  CB_6 
REMARK    4  A    between atoms: CB_6  and  CG_7 
REMARK    5  A    between atoms: CG_7  and  CD_8 
REMARK    6  A    between atoms: CD_8  and  NE_9 
REMARK    7  A    between atoms: CD_8  and  C5_10 
REMARK    8  A    between atoms: C5_10  and  C4_11 
REMARK    9  A    between atoms: C3_13  and  O3_14 
REMARK   10  A    between atoms: C2_15  and  O2_16 
REMARK   11  A    between atoms: C1_17  and  N9_18 
REMARK   12  A    between atoms: C6_22  and  N6_23 
ROOT
ATOM      1  C4  SFG d   1      70.699 129.716  53.637  0.00  0.00     0.070 C 
ATOM      2  O4  SFG d   1      71.822 130.471  53.152  0.00  0.00    -0.355 OA
ATOM      3  C3  SFG d   1      71.207 128.341  54.085  0.00  0.00     0.089 C 
ATOM      4  C2  SFG d   1      72.654 128.314  53.773  0.00  0.00     0.105 C 
ATOM      5  C1  SFG d   1      72.983 129.628  53.072  0.00  0.00     0.139 C 
ATOM      6  H15 SFG d   1      70.019 129.561  52.786  0.00  0.00     0.087 H 
ATOM      7  H16 SFG d   1      71.051 128.217  55.167  0.00  0.00     0.091 H 
ATOM      8  H18 SFG d   1      73.255 128.208  54.688  0.00  0.00     0.093 H 
ATOM      9  H20 SFG d   1      73.213 129.424  52.016  0.00  0.00     0.122 H 
ENDROOT
BRANCH   1  10
ATOM     10  C5  SFG d   1      69.886 130.409  54.716  0.00  0.00    -0.012 C 
ATOM     11  H13 SFG d   1      69.044 129.737  54.938  0.00  0.00     0.040 H 
ATOM     12  H14 SFG d   1      70.545 130.474  55.595  0.00  0.00     0.040 H 
BRANCH  10  13
ATOM     13  CD  SFG d   1      69.263 131.832  54.542  0.00  0.00     0.102 C 
ATOM     14  H9  SFG d   1      68.166 131.772  54.590  0.00  0.00     0.084 H 
BRANCH  13  15
ATOM     15  CG  SFG d   1      69.681 132.607  53.263  0.00  0.00    -0.036 C 
ATOM     16  H7  SFG d   1      69.364 133.652  53.394  0.00  0.00     0.036 H 
ATOM     17  H8  SFG d   1      70.778 132.562  53.196  0.00  0.00     0.036 H 
BRANCH  15  18
ATOM     18  CB  SFG d   1      69.119 132.123  51.917  0.00  0.00    -0.027 C 
ATOM     19  H5  SFG d   1      68.528 131.219  52.125  0.00  0.00     0.036 H 
ATOM     20  H6  SFG d   1      68.456 132.917  51.544  0.00  0.00     0.036 H 
BRANCH  18  21
ATOM     21  CA  SFG d   1      70.090 131.769  50.761  0.00  0.00     0.182 C 
ATOM     22  H4  SFG d   1      70.686 130.896  51.066  0.00  0.00     0.101 H 
BRANCH  21  23
ATOM     23  N   SFG d   1      71.010 132.858  50.489  0.00  0.00    -0.065 N 
ATOM     24  H1  SFG d   1      71.524 133.081  51.327  0.00  0.00     0.275 HD
ATOM     25  H2  SFG d   1      70.492 133.668  50.187  0.00  0.00     0.275 HD
ATOM     26  H3  SFG d   1      71.653 132.581  49.764  0.00  0.00     0.275 HD
ENDBRANCH  21  23
BRANCH  21  27
ATOM     27  C   SFG d   1      69.270 131.378  49.514  0.00  0.00     0.204 C 
ATOM     28  O   SFG d   1      68.123 130.913  49.663  0.00  0.00    -0.646 OA
ATOM     29  OXT SFG d   1      69.778 131.560  48.399  0.00  0.00    -0.646 OA
ENDBRANCH  21  27
ENDBRANCH  18  21
ENDBRANCH  15  18
ENDBRANCH  13  15
BRANCH  13  30
ATOM     30  NE  SFG d   1      69.830 132.576  55.689  0.00  0.00    -0.075 N 
ATOM     31  H10 SFG d   1      69.584 132.108  56.547  0.00  0.00     0.274 HD
ATOM     32  H11 SFG d   1      69.459 133.513  55.698  0.00  0.00     0.274 HD
ATOM     33  H12 SFG d   1      70.834 132.613  55.602  0.00  0.00     0.274 HD
ENDBRANCH  13  30
ENDBRANCH  10  13
ENDBRANCH   1  10
BRANCH   3  34
ATOM     34  O3  SFG d   1      70.526 127.284  53.386  0.00  0.00    -0.390 OA
ATOM     35  H17 SFG d   1      70.677 127.375  52.453  0.00  0.00     0.210 HD
ENDBRANCH   3  34
BRANCH   5  36
ATOM     36  N9  SFG d   1      74.160 130.303  53.693  0.00  0.00    -0.294 N 
ATOM     37  C8  SFG d   1      74.213 131.393  54.527  0.00  0.00     0.071 A 
ATOM     38  N7  SFG d   1      75.385 131.782  54.936  0.00  0.00    -0.236 NA
ATOM     39  H21 SFG d   1      73.307 131.913  54.835  0.00  0.00     0.144 H 
ATOM     40  C5  SFG d   1      76.237 130.848  54.304  0.00  0.00     0.149 A 
ATOM     41  C6  SFG d   1      77.657 130.654  54.304  0.00  0.00     0.155 A 
ATOM     42  C4  SFG d   1      75.490 129.934  53.545  0.00  0.00     0.167 A 
ATOM     43  N1  SFG d   1      78.169 129.615  53.562  0.00  0.00    -0.222 NA
ATOM     44  C2  SFG d   1      77.325 128.812  52.871  0.00  0.00     0.091 A 
ATOM     45  N3  SFG d   1      75.978 128.888  52.793  0.00  0.00    -0.222 NA
ATOM     46  H24 SFG d   1      77.788 128.008  52.310  0.00  0.00     0.146 H 
BRANCH  41  47
ATOM     47  N6  SFG d   1      78.488 131.440  54.982  0.00  0.00    -0.382 N 
ATOM     48  H22 SFG d   1      79.502 131.263  54.953  0.00  0.00     0.157 HD
ATOM     49  H23 SFG d   1      78.117 132.225  55.536  0.00  0.00     0.157 HD
ENDBRANCH  41  47
ENDBRANCH   5  36
BRANCH   4  50
ATOM     50  O2  SFG d   1      72.876 127.199  52.899  0.00  0.00    -0.388 OA
ATOM     51  H19 SFG d   1      72.612 126.398  53.336  0.00  0.00     0.210 HD
ENDBRANCH   4  50
TORSDOF 12
