REMARK  11 active torsions:
REMARK  status: ('A' for Active; 'I' for Inactive)
REMARK    1  A    between atoms: C34_1  and  C33_2 
REMARK    2  A    between atoms: C33_2  and  C32_3 
REMARK    3  A    between atoms: C32_3  and  C30_4 
REMARK    4  A    between atoms: N28_6  and  C31_7 
REMARK    5  A    between atoms: C21_12  and  C9_15 
REMARK    6  A    between atoms: C7_17  and  S10_24 
REMARK    7  A    between atoms: C4_20  and  O3_21 
REMARK    8  A    between atoms: O3_21  and  C2_22 
REMARK    9  A    between atoms: C2_22  and  C1_23 
REMARK   10  A    between atoms: S10_24  and  N14_27 
REMARK   11  A    between atoms: N17_30  and  C20_31 
ROOT
ATOM      1  C9  VIA d   1      32.998 119.702  10.820  0.00  0.00     0.045 A 
ATOM      2  C8  VIA d   1      33.067 120.587   9.751  0.00  0.00    -0.044 A 
ATOM      3  C7  VIA d   1      33.911 120.322   8.677  0.00  0.00     0.080 A 
ATOM      4  C6  VIA d   1      34.686 119.167   8.681  0.00  0.00    -0.058 A 
ATOM      5  C5  VIA d   1      34.614 118.282   9.751  0.00  0.00    -0.048 A 
ATOM      6  C4  VIA d   1      33.766 118.544  10.823  0.00  0.00     0.082 A 
ATOM      7  H12 VIA d   1      32.462 121.486   9.754  0.00  0.00     0.087 H 
ATOM      8  H13 VIA d   1      35.347 118.956   7.848  0.00  0.00     0.086 H 
ATOM      9  H14 VIA d   1      35.221 117.384   9.750  0.00  0.00     0.087 H 
ENDROOT
BRANCH   1  10
ATOM     10  C21 VIA d   1      32.176 119.982  11.905  0.00  0.00     0.144 A 
ATOM     11  N22 VIA d   1      32.712 119.943  13.198  0.00  0.00    -0.305 N 
ATOM     12  C23 VIA d   1      31.913 120.310  14.286  0.00  0.00     0.278 A 
ATOM     13  H11 VIA d   1      33.659 119.655  13.342  0.00  0.00     0.170 HD
ATOM     14  C24 VIA d   1      30.602 120.702  14.043  0.00  0.00     0.151 A 
ATOM     15  O27 VIA d   1      32.362 120.267  15.430  0.00  0.00    -0.265 OA
ATOM     16  N28 VIA d   1      29.593 121.119  14.804  0.00  0.00    -0.266 N 
ATOM     17  C25 VIA d   1      30.126 120.707  12.740  0.00  0.00     0.119 A 
ATOM     18  N29 VIA d   1      28.581 121.361  14.146  0.00  0.00    -0.174 NA
ATOM     19  C30 VIA d   1      28.809 121.132  12.855  0.00  0.00     0.086 A 
ATOM     20  N26 VIA d   1      30.903 120.355  11.706  0.00  0.00    -0.226 NA
BRANCH  16  21
ATOM     21  C31 VIA d   1      29.685 121.304  16.270  0.00  0.00     0.003 C 
ATOM     22  H8  VIA d   1      30.690 121.018  16.613  0.00  0.00     0.059 H 
ATOM     23  H9  VIA d   1      28.934 120.672  16.767  0.00  0.00     0.059 H 
ATOM     24  H10 VIA d   1      29.499 122.359  16.519  0.00  0.00     0.059 H 
ENDBRANCH  16  21
BRANCH  19  25
ATOM     25  C32 VIA d   1      27.799 121.243  11.712  0.00  0.00    -0.021 C 
ATOM     26  H6  VIA d   1      26.920 121.808  12.056  0.00  0.00     0.042 H 
ATOM     27  H7  VIA d   1      28.264 121.768  10.864  0.00  0.00     0.042 H 
BRANCH  25  28
ATOM     28  C33 VIA d   1      27.361 119.847  11.265  0.00  0.00    -0.063 C 
ATOM     29  H4  VIA d   1      28.252 119.261  10.995  0.00  0.00     0.033 H 
ATOM     30  H5  VIA d   1      26.834 119.353  12.095  0.00  0.00     0.033 H 
BRANCH  28  31
ATOM     31  C34 VIA d   1      26.428 119.922  10.056  0.00  0.00    -0.076 C 
ATOM     32  H1  VIA d   1      26.131 118.906   9.759  0.00  0.00     0.027 H 
ATOM     33  H2  VIA d   1      26.950 120.411   9.220  0.00  0.00     0.027 H 
ATOM     34  H3  VIA d   1      25.532 120.504  10.320  0.00  0.00     0.027 H 
ENDBRANCH  28  31
ENDBRANCH  25  28
ENDBRANCH  19  25
ENDBRANCH   1  10
BRANCH   6  35
ATOM     35  O3  VIA d   1      33.631 117.662  11.851  0.00  0.00    -0.351 OA
BRANCH  35  36
ATOM     36  C2  VIA d   1      34.844 116.925  12.064  0.00  0.00     0.023 C 
ATOM     37  H15 VIA d   1      35.637 117.609  12.402  0.00  0.00     0.074 H 
ATOM     38  H16 VIA d   1      35.152 116.442  11.125  0.00  0.00     0.074 H 
BRANCH  36  39
ATOM     39  C1  VIA d   1      34.595 115.859  13.133  0.00  0.00    -0.056 C 
ATOM     40  H17 VIA d   1      35.520 115.288  13.304  0.00  0.00     0.030 H 
ATOM     41  H18 VIA d   1      33.801 115.178  12.794  0.00  0.00     0.030 H 
ATOM     42  H19 VIA d   1      34.286 116.345  14.070  0.00  0.00     0.030 H 
ENDBRANCH  36  39
ENDBRANCH  35  36
ENDBRANCH   6  35
BRANCH   3  43
ATOM     43  S10 VIA d   1      34.025 121.458   7.351  0.00  0.00     0.261 S 
ATOM     44  O11 VIA d   1      35.151 121.043   6.451  0.00  0.00    -0.200 OA
ATOM     45  O12 VIA d   1      34.310 122.824   7.900  0.00  0.00    -0.200 OA
BRANCH  43  46
ATOM     46  N14 VIA d   1      32.650 121.517   6.474  0.00  0.00    -0.304 N 
ATOM     47  C19 VIA d   1      32.319 120.248   5.806  0.00  0.00     0.028 C 
ATOM     48  C18 VIA d   1      31.187 119.477   6.488  0.00  0.00     0.098 C 
ATOM     49  H20 VIA d   1      33.218 119.614   5.799  0.00  0.00     0.067 H 
ATOM     50  H21 VIA d   1      32.017 120.468   4.771  0.00  0.00     0.067 H 
ATOM     51  N17 VIA d   1      30.039 120.368   6.696  0.00  0.00    -0.072 N 
ATOM     52  H22 VIA d   1      31.536 119.097   7.460  0.00  0.00     0.078 H 
ATOM     53  H23 VIA d   1      30.884 118.632   5.852  0.00  0.00     0.078 H 
ATOM     54  C16 VIA d   1      30.467 121.349   7.703  0.00  0.00     0.098 C 
ATOM     55  H24 VIA d   1      29.780 120.826   5.836  0.00  0.00     0.279 HD
ATOM     56  C15 VIA d   1      31.549 122.255   7.113  0.00  0.00     0.028 C 
ATOM     57  H28 VIA d   1      30.870 120.821   8.580  0.00  0.00     0.078 H 
ATOM     58  H29 VIA d   1      29.605 121.960   8.008  0.00  0.00     0.078 H 
ATOM     59  H30 VIA d   1      31.084 122.907   6.359  0.00  0.00     0.067 H 
ATOM     60  H31 VIA d   1      31.967 122.871   7.923  0.00  0.00     0.067 H 
BRANCH  51  61
ATOM     61  C20 VIA d   1      28.904 119.593   7.217  0.00  0.00     0.066 C 
ATOM     62  H25 VIA d   1      28.044 120.261   7.373  0.00  0.00     0.068 H 
ATOM     63  H26 VIA d   1      29.185 119.129   8.174  0.00  0.00     0.068 H 
ATOM     64  H27 VIA d   1      28.633 118.809   6.495  0.00  0.00     0.068 H 
ENDBRANCH  51  61
ENDBRANCH  43  46
ENDBRANCH   3  43
TORSDOF 11
