REMARK  15 active torsions:
REMARK  status: ('A' for Active; 'I' for Inactive)
REMARK    1  A    between atoms: C1_1  and  O1_2 
REMARK    2  A    between atoms: O1_2  and  C2_3 
REMARK    3  A    between atoms: C7_8  and  C8_9 
REMARK    4  A    between atoms: C9_11  and  O5_27 
REMARK    5  A    between atoms: C13_16  and  O4_20 
REMARK    6  A    between atoms: C15_18  and  O10_21 
REMARK    7  A    between atoms: C16_19  and  C17_22 
REMARK    8  A    between atoms: C17_22  and  C18_23 
REMARK    9  A    between atoms: C19_24  and  C20_25 
REMARK   10  A    between atoms: C19_24  and  C21_26 
REMARK   11  A    between atoms: O5_27  and  C22_28 
REMARK   12  A    between atoms: C23_30  and  O7_31 
REMARK   13  A    between atoms: C24_32  and  O8_33 
REMARK   14  A    between atoms: C25_34  and  O9_35 
REMARK   15  A    between atoms: C26_36  and  C27_37 
ROOT
ATOM      1  C8  7CA d   1      70.553  26.980  27.392  0.00  0.00     0.123 A 
ATOM      2  O2  7CA d   1      70.121  28.031  28.186  0.00  0.00    -0.305 OA
ATOM      3  C9  7CA d   1      69.584  26.129  26.774  0.00  0.00     0.157 A 
ATOM      4  C10 7CA d   1      68.211  26.378  27.009  0.00  0.00     0.223 A 
ATOM      5  C11 7CA d   1      67.818  27.434  27.843  0.00  0.00     0.085 A 
ATOM      6  C12 7CA d   1      68.787  28.256  28.428  0.00  0.00     0.102 A 
ATOM      7  O3  7CA d   1      67.364  25.665  26.484  0.00  0.00    -0.284 OA
ATOM      8  C13 7CA d   1      66.468  27.683  28.095  0.00  0.00     0.085 A 
ATOM      9  C14 7CA d   1      66.099  28.753  28.919  0.00  0.00    -0.017 A 
ATOM     10  C15 7CA d   1      67.077  29.566  29.492  0.00  0.00     0.077 A 
ATOM     11  C16 7CA d   1      68.418  29.307  29.253  0.00  0.00     0.013 A 
ATOM     12  H8  7CA d   1      65.051  28.950  29.112  0.00  0.00     0.092 H 
ENDROOT
BRANCH   3  13
ATOM     13  O5  7CA d   1      69.941  25.029  25.989  0.00  0.00    -0.311 OA
BRANCH  13  14
ATOM     14  C22 7CA d   1      70.397  25.377  24.676  0.00  0.00     0.165 C 
ATOM     15  O6  7CA d   1      69.292  25.794  23.850  0.00  0.00    -0.351 OA
ATOM     16  C26 7CA d   1      68.258  24.789  23.712  0.00  0.00     0.065 C 
ATOM     17  C25 7CA d   1      68.830  23.526  23.060  0.00  0.00     0.087 C 
ATOM     18  H27 7CA d   1      67.856  24.538  24.705  0.00  0.00     0.086 H 
ATOM     19  C24 7CA d   1      70.015  23.013  23.875  0.00  0.00     0.092 C 
ATOM     20  H25 7CA d   1      69.169  23.768  22.042  0.00  0.00     0.091 H 
ATOM     21  C23 7CA d   1      71.063  24.122  24.068  0.00  0.00     0.110 C 
ATOM     22  H23 7CA d   1      69.652  22.699  24.865  0.00  0.00     0.091 H 
ATOM     23  H21 7CA d   1      71.835  23.762  24.764  0.00  0.00     0.094 H 
ATOM     24  H20 7CA d   1      71.130  26.195  24.742  0.00  0.00     0.134 H 
BRANCH  16  25
ATOM     25  C27 7CA d   1      67.130  25.350  22.822  0.00  0.00    -0.050 C 
ATOM     26  H28 7CA d   1      66.340  24.593  22.711  0.00  0.00     0.031 H 
ATOM     27  H29 7CA d   1      67.536  25.604  21.832  0.00  0.00     0.031 H 
ATOM     28  H30 7CA d   1      66.710  26.253  23.288  0.00  0.00     0.031 H 
ENDBRANCH  16  25
BRANCH  17  29
ATOM     29  O9  7CA d   1      67.826  22.521  22.992  0.00  0.00    -0.390 OA
ATOM     30  H26 7CA d   1      68.183  21.745  22.576  0.00  0.00     0.210 HD
ENDBRANCH  17  29
BRANCH  19  31
ATOM     31  O8  7CA d   1      70.596  21.892  23.226  0.00  0.00    -0.390 OA
ATOM     32  H24 7CA d   1      70.928  22.157  22.376  0.00  0.00     0.210 HD
ENDBRANCH  19  31
BRANCH  21  33
ATOM     33  O7  7CA d   1      71.682  24.434  22.826  0.00  0.00    -0.388 OA
ATOM     34  H22 7CA d   1      71.027  24.759  22.220  0.00  0.00     0.210 HD
ENDBRANCH  21  33
ENDBRANCH  13  14
ENDBRANCH   3  13
BRANCH   1  35
ATOM     35  C7  7CA d   1      71.929  26.745  27.356  0.00  0.00     0.001 A 
ATOM     36  C4  7CA d   1      72.799  27.805  27.634  0.00  0.00    -0.068 A 
ATOM     37  C3  7CA d   1      74.179  27.636  27.651  0.00  0.00    -0.050 A 
ATOM     38  H5  7CA d   1      72.386  28.785  27.842  0.00  0.00     0.085 H 
ATOM     39  C2  7CA d   1      74.722  26.382  27.390  0.00  0.00     0.068 A 
ATOM     40  H4  7CA d   1      74.828  28.477  27.866  0.00  0.00     0.087 H 
ATOM     41  C5  7CA d   1      73.875  25.305  27.094  0.00  0.00    -0.050 A 
ATOM     42  C6  7CA d   1      72.482  25.490  27.081  0.00  0.00    -0.068 A 
ATOM     43  H6  7CA d   1      74.294  24.330  26.875  0.00  0.00     0.087 H 
ATOM     44  H7  7CA d   1      71.831  24.653  26.856  0.00  0.00     0.085 H 
BRANCH  39  45
ATOM     45  O1  7CA d   1      76.099  26.174  27.410  0.00  0.00    -0.356 OA
BRANCH  45  46
ATOM     46  C1  7CA d   1      76.795  27.432  27.347  0.00  0.00     0.010 C 
ATOM     47  H1  7CA d   1      77.880  27.252  27.364  0.00  0.00     0.066 H 
ATOM     48  H2  7CA d   1      76.513  28.051  28.212  0.00  0.00     0.066 H 
ATOM     49  H3  7CA d   1      76.524  27.955  26.418  0.00  0.00     0.066 H 
ENDBRANCH  45  46
ENDBRANCH  39  45
ENDBRANCH   1  35
BRANCH   8  50
ATOM     50  O4  7CA d   1      65.502  26.881  27.543  0.00  0.00    -0.360 OA
ATOM     51  H9  7CA d   1      65.915  26.208  27.015  0.00  0.00     0.217 HD
ENDBRANCH   8  50
BRANCH  11  52
ATOM     52  C17 7CA d   1      69.487  30.177  29.885  0.00  0.00    -0.020 C 
ATOM     53  H11 7CA d   1      70.470  29.782  29.589  0.00  0.00     0.046 H 
ATOM     54  H12 7CA d   1      69.380  30.113  30.978  0.00  0.00     0.046 H 
BRANCH  52  55
ATOM     55  C18 7CA d   1      69.425  31.652  29.485  0.00  0.00    -0.097 C 
ATOM     56  C19 7CA d   1      70.075  32.099  28.345  0.00  0.00    -0.091 C 
ATOM     57  H13 7CA d   1      68.866  32.356  30.100  0.00  0.00     0.077 H 
BRANCH  56  58
ATOM     58  C20 7CA d   1      70.006  33.576  27.962  0.00  0.00    -0.055 C 
ATOM     59  H14 7CA d   1      70.577  33.742  27.036  0.00  0.00     0.033 H 
ATOM     60  H15 7CA d   1      70.435  34.185  28.771  0.00  0.00     0.033 H 
ATOM     61  H16 7CA d   1      68.957  33.865  27.803  0.00  0.00     0.033 H 
ENDBRANCH  56  58
BRANCH  56  62
ATOM     62  C21 7CA d   1      70.866  31.121  27.471  0.00  0.00    -0.055 C 
ATOM     63  H17 7CA d   1      70.802  30.111  27.901  0.00  0.00     0.033 H 
ATOM     64  H18 7CA d   1      71.919  31.436  27.429  0.00  0.00     0.033 H 
ATOM     65  H19 7CA d   1      70.445  31.114  26.455  0.00  0.00     0.033 H 
ENDBRANCH  56  62
ENDBRANCH  52  55
ENDBRANCH  11  52
BRANCH  10  66
ATOM     66  O10 7CA d   1      66.723  30.590  30.337  0.00  0.00    -0.360 OA
ATOM     67  H10 7CA d   1      65.776  30.638  30.395  0.00  0.00     0.217 HD
ENDBRANCH  10  66
TORSDOF 15
