REMARK  5 active torsions:
REMARK  status: ('A' for Active; 'I' for Inactive)
REMARK    1  A    between atoms: C1_1  and  O1_2 
REMARK    2  A    between atoms: O1_2  and  P_3 
REMARK    3  A    between atoms: C2_7  and  O2_8 
REMARK    4  A    between atoms: C3_9  and  O3_10 
REMARK    5  A    between atoms: C4_11  and  O4_12 
ROOT
ATOM      1  C1  X1P d   1     -48.246 -14.020  16.359  0.00  0.00     0.170 C 
ATOM      2  C2  X1P d   1     -48.059 -15.544  16.273  0.00  0.00     0.110 C 
ATOM      3  C3  X1P d   1     -47.297 -15.924  14.999  0.00  0.00     0.091 C 
ATOM      4  C4  X1P d   1     -48.103 -15.414  13.798  0.00  0.00     0.083 C 
ATOM      5  C5  X1P d   1     -48.344 -13.909  13.961  0.00  0.00     0.049 C 
ATOM      6  O5  X1P d   1     -48.985 -13.580  15.208  0.00  0.00    -0.355 OA
ATOM      7  H1  X1P d   1     -48.817 -13.785  17.269  0.00  0.00     0.134 H 
ATOM      8  H2  X1P d   1     -49.056 -16.006  16.226  0.00  0.00     0.094 H 
ATOM      9  H4  X1P d   1     -46.318 -15.423  15.001  0.00  0.00     0.091 H 
ATOM     10  H6  X1P d   1     -49.067 -15.943  13.768  0.00  0.00     0.090 H 
ATOM     11  H8  X1P d   1     -48.983 -13.564  13.135  0.00  0.00     0.078 H 
ATOM     12  H9  X1P d   1     -47.375 -13.391  13.916  0.00  0.00     0.078 H 
ENDROOT
BRANCH   1  13
ATOM     13  O1  X1P d   1     -46.995 -13.326  16.411  0.00  0.00    -0.249 OA
BRANCH  13  14
ATOM     14  P   X1P d   1     -46.392 -12.773  17.801  0.00  0.00     0.424 P 
ATOM     15  O1P X1P d   1     -46.091 -13.964  18.681  0.00  0.00    -0.617 OA
ATOM     16  O2P X1P d   1     -47.399 -11.850  18.464  0.00  0.00    -0.617 OA
ATOM     17  O3P X1P d   1     -45.144 -12.007  17.450  0.00  0.00    -0.617 OA
ENDBRANCH  13  14
ENDBRANCH   1  13
BRANCH   2  18
ATOM     18  O2  X1P d   1     -47.392 -16.055  17.425  0.00  0.00    -0.388 OA
ATOM     19  H3  X1P d   1     -47.905 -15.858  18.200  0.00  0.00     0.210 HD
ENDBRANCH   2  18
BRANCH   3  20
ATOM     20  O3  X1P d   1     -47.074 -17.333  14.966  0.00  0.00    -0.390 OA
ATOM     21  H5  X1P d   1     -46.602 -17.559  14.174  0.00  0.00     0.210 HD
ENDBRANCH   3  20
BRANCH   4  22
ATOM     22  O4  X1P d   1     -47.424 -15.617  12.563  0.00  0.00    -0.391 OA
ATOM     23  H7  X1P d   1     -47.267 -16.546  12.438  0.00  0.00     0.210 HD
ENDBRANCH   4  22
TORSDOF 5
