REMARK  21 active torsions:
REMARK  status: ('A' for Active; 'I' for Inactive)
REMARK    1  A    between atoms: C_1  and  CH3_3 
REMARK       I    between atoms: C_1  and  N_4 
REMARK    2  A    between atoms: N_4  and  CA_5 
REMARK    3  A    between atoms: CA_5  and  C_6 
REMARK    4  A    between atoms: CA_5  and  CB_8 
REMARK       I    between atoms: C_6  and  N_12 
REMARK    5  A    between atoms: CB_8  and  CG_9 
REMARK    6  A    between atoms: N_12  and  CA_13 
REMARK    7  A    between atoms: CA_13  and  C_14 
REMARK    8  A    between atoms: CA_13  and  CB_16 
REMARK       I    between atoms: C_14  and  N_20 
REMARK    9  A    between atoms: CB_16  and  CG_17 
REMARK   10  A    between atoms: CG_17  and  SD_18 
REMARK   11  A    between atoms: SD_18  and  CE_19 
REMARK   12  A    between atoms: N_20  and  CA_21 
REMARK   13  A    between atoms: CA_21  and  C_22 
REMARK   14  A    between atoms: CA_21  and  CB_24 
REMARK       I    between atoms: C_22  and  N_29 
REMARK   15  A    between atoms: CB_24  and  CG_25 
REMARK   16  A    between atoms: CG_25  and  CD_26 
REMARK       I    between atoms: CD_26  and  NE2_28 
REMARK   17  A    between atoms: N_29  and  CA_30 
REMARK   18  A    between atoms: CA_30  and  C_31 
REMARK   19  A    between atoms: CA_30  and  CB_33 
REMARK   20  A    between atoms: C_31  and  O_32 
REMARK   21  A    between atoms: CB_33  and  CG_34 
ROOT
ATOM      1  C   MET d   1      23.992  12.633  39.974  0.00  0.00     0.241 C 
ATOM      2  O   MET d   1      22.783  12.618  39.735  0.00  0.00    -0.271 OA
ATOM      3  N   GLN d   1      24.934  12.307  39.118  0.00  0.00    -0.346 N 
ATOM      4  H17 GLN d   1      25.883  12.283  39.432  0.00  0.00     0.163 HD
ENDROOT
BRANCH   1   5
ATOM      5  CA  MET d   1      24.402  13.024  41.392  0.00  0.00     0.090 C 
ATOM      6  H9  MET d   1      25.099  13.873  41.347  0.00  0.00     0.087 H 
BRANCH   5   7
ATOM      7  N   MET d   1      23.207  13.422  42.135  0.00  0.00    -0.346 N 
ATOM      8  C   ASP d   1      23.189  14.577  42.797  0.00  0.00     0.241 C 
ATOM      9  O   ASP d   1      24.186  15.303  42.784  0.00  0.00    -0.271 OA
ATOM     10  H8  MET d   1      22.404  12.827  42.146  0.00  0.00     0.163 HD
BRANCH   8  11
ATOM     11  CA  ASP d   1      21.931  14.955  43.561  0.00  0.00     0.098 C 
ATOM     12  H5  ASP d   1      21.215  14.123  43.486  0.00  0.00     0.088 H 
BRANCH  11  13
ATOM     13  N   ASP d   1      22.236  15.171  44.972  0.00  0.00    -0.348 N 
ATOM     14  C   ACE d   1      22.402  14.203  45.860  0.00  0.00     0.214 C 
ATOM     15  O   ACE d   1      22.393  13.001  45.576  0.00  0.00    -0.274 OA
ATOM     16  H4  ASP d   1      22.326  16.115  45.290  0.00  0.00     0.163 HD
BRANCH  14  17
ATOM     17  CH3 ACE d   1      22.615  14.646  47.293  0.00  0.00    -0.003 C 
ATOM     18  H1  ACE d   1      22.590  15.745  47.345  0.00  0.00     0.040 H 
ATOM     19  H2  ACE d   1      23.591  14.284  47.647  0.00  0.00     0.040 H 
ATOM     20  H3  ACE d   1      21.818  14.231  47.927  0.00  0.00     0.040 H 
ENDBRANCH  14  17
ENDBRANCH  11  13
BRANCH  11  21
ATOM     21  CB  ASP d   1      21.291  16.197  42.943  0.00  0.00     0.043 C 
ATOM     22  H6  ASP d   1      21.276  16.057  41.852  0.00  0.00     0.052 H 
ATOM     23  H7  ASP d   1      21.926  17.059  43.193  0.00  0.00     0.052 H 
BRANCH  21  24
ATOM     24  CG  ASP d   1      19.882  16.522  43.383  0.00  0.00     0.175 C 
ATOM     25  OD1 ASP d   1      19.093  15.626  43.770  0.00  0.00    -0.648 OA
ATOM     26  OD2 ASP d   1      19.512  17.722  43.341  0.00  0.00    -0.648 OA
ENDBRANCH  21  24
ENDBRANCH  11  21
ENDBRANCH   8  11
ENDBRANCH   5   7
BRANCH   5  27
ATOM     27  CB  MET d   1      25.094  11.851  42.079  0.00  0.00    -0.030 C 
ATOM     28  H10 MET d   1      26.065  11.680  41.591  0.00  0.00     0.037 H 
ATOM     29  H11 MET d   1      24.465  10.956  41.967  0.00  0.00     0.037 H 
BRANCH  27  30
ATOM     30  CG  MET d   1      25.331  12.098  43.567  0.00  0.00    -0.021 C 
ATOM     31  H12 MET d   1      24.373  12.373  44.033  0.00  0.00     0.049 H 
ATOM     32  H13 MET d   1      26.043  12.929  43.675  0.00  0.00     0.049 H 
BRANCH  30  33
ATOM     33  SD  MET d   1      25.994  10.660  44.426  0.00  0.00    -0.173 SA
BRANCH  33  34
ATOM     34  CE  MET d   1      27.755  10.932  44.201  0.00  0.00    -0.035 C 
ATOM     35  H14 MET d   1      28.316  10.117  44.682  0.00  0.00     0.041 H 
ATOM     36  H15 MET d   1      28.039  11.892  44.657  0.00  0.00     0.041 H 
ATOM     37  H16 MET d   1      27.988  10.954  43.126  0.00  0.00     0.041 H 
ENDBRANCH  33  34
ENDBRANCH  30  33
ENDBRANCH  27  30
ENDBRANCH   5  27
ENDBRANCH   1   5
BRANCH   3  38
ATOM     38  CA  GLN d   1      24.648  11.979  37.729  0.00  0.00     0.090 C 
ATOM     39  H18 GLN d   1      23.582  12.177  37.542  0.00  0.00     0.087 H 
BRANCH  38  40
ATOM     40  C   GLN d   1      24.935  10.509  37.433  0.00  0.00     0.240 C 
ATOM     41  O   GLN d   1      25.929   9.963  37.922  0.00  0.00    -0.271 OA
ATOM     42  N   ASJ d   1      24.072   9.911  36.626  0.00  0.00    -0.352 N 
ATOM     43  H25 ASJ d   1      23.265  10.429  36.343  0.00  0.00     0.163 HD
BRANCH  42  44
ATOM     44  CA  ASJ d   1      24.215   8.553  36.121  0.00  0.00     0.041 C 
ATOM     45  H26 ASJ d   1      24.990   8.041  36.710  0.00  0.00     0.076 H 
BRANCH  44  46
ATOM     46  C   ASJ d   1      24.595   8.514  34.673  0.00  0.00     0.036 C 
ATOM     47  H27 ASJ d   1      25.215   9.406  34.501  0.00  0.00     0.077 H 
ATOM     48  H28 ASJ d   1      23.653   8.608  34.112  0.00  0.00     0.077 H 
BRANCH  46  49
ATOM     49  O   ASJ d   1      25.281   7.456  34.089  0.00  0.00    -0.399 OA
ATOM     50  H29 ASJ d   1      26.121   7.349  34.519  0.00  0.00     0.209 HD
ENDBRANCH  46  49
ENDBRANCH  44  46
BRANCH  44  51
ATOM     51  CB  ASJ d   1      22.882   7.803  36.259  0.00  0.00     0.036 C 
ATOM     52  H30 ASJ d   1      22.814   7.066  35.445  0.00  0.00     0.052 H 
ATOM     53  H31 ASJ d   1      22.064   8.532  36.163  0.00  0.00     0.052 H 
BRANCH  51  54
ATOM     54  CG  ASJ d   1      22.716   7.077  37.568  0.00  0.00     0.174 C 
ATOM     55  OD1 ASJ d   1      23.743   6.827  38.235  0.00  0.00    -0.648 OA
ATOM     56  OD2 ASJ d   1      21.559   6.769  37.915  0.00  0.00    -0.648 OA
ENDBRANCH  51  54
ENDBRANCH  44  51
ENDBRANCH  42  44
ENDBRANCH  38  40
BRANCH  38  57
ATOM     57  CB  GLN d   1      25.485  12.832  36.769  0.00  0.00    -0.030 C 
ATOM     58  H19 GLN d   1      25.220  12.548  35.740  0.00  0.00     0.037 H 
ATOM     59  H20 GLN d   1      26.547  12.607  36.949  0.00  0.00     0.037 H 
BRANCH  57  60
ATOM     60  CG  GLN d   1      25.292  14.328  36.908  0.00  0.00     0.011 C 
ATOM     61  H21 GLN d   1      24.256  14.518  37.227  0.00  0.00     0.047 H 
ATOM     62  H22 GLN d   1      25.465  14.794  35.927  0.00  0.00     0.047 H 
BRANCH  60  63
ATOM     63  CD  GLN d   1      26.231  14.967  37.917  0.00  0.00     0.215 C 
ATOM     64  OE1 GLN d   1      27.424  14.683  37.970  0.00  0.00    -0.274 OA
ATOM     65  NE2 GLN d   1      25.689  15.856  38.739  0.00  0.00    -0.370 N 
ATOM     66  H23 GLN d   1      26.255  16.312  39.426  0.00  0.00     0.159 HD
ATOM     67  H24 GLN d   1      24.715  16.070  38.672  0.00  0.00     0.159 HD
ENDBRANCH  60  63
ENDBRANCH  57  60
ENDBRANCH  38  57
ENDBRANCH   3  38
TORSDOF 21
