REMARK WARNING: 32 MAX_TORS EXCEEDED!!!
REMARK  48 active torsions:
REMARK  status: ('A' for Active; 'I' for Inactive)
REMARK    1  A    between atoms: N_1  and  CA_2 
REMARK    2  A    between atoms: CA_2  and  C_3 
REMARK    3  A    between atoms: CA_2  and  CB_5 
REMARK       I    between atoms: C_3  and  N_6 
REMARK    4  A    between atoms: N_6  and  CA_7 
REMARK    5  A    between atoms: CA_7  and  C_8 
REMARK    6  A    between atoms: CA_7  and  CB_10 
REMARK       I    between atoms: C_8  and  N_17 
REMARK    7  A    between atoms: CB_10  and  CG_11 
REMARK    8  A    between atoms: CG_11  and  CD_12 
REMARK    9  A    between atoms: CD_12  and  NE_13 
REMARK       I    between atoms: NE_13  and  CZ_14 
REMARK       I    between atoms: CZ_14  and  NH1_15 
REMARK       I    between atoms: CZ_14  and  NH2_16 
REMARK   10  A    between atoms: N_17  and  CA_18 
REMARK   11  A    between atoms: CA_18  and  C_19 
REMARK   12  A    between atoms: CA_18  and  CB_21 
REMARK       I    between atoms: C_19  and  N_24 
REMARK   13  A    between atoms: CB_21  and  OG1_22 
REMARK   14  A    between atoms: CB_21  and  CG2_23 
REMARK   15  A    between atoms: N_24  and  CA_25 
REMARK   16  A    between atoms: CA_25  and  CB_26 
REMARK   17  A    between atoms: CA_25  and  C_32 
REMARK   18  A    between atoms: CB_26  and  CG_27 
REMARK   19  A    between atoms: CG_27  and  CD_28 
REMARK   20  A    between atoms: CD_28  and  CE_29 
REMARK   21  A    between atoms: CE_29  and  NZ_30 
REMARK   22  A    between atoms: NZ_30  and  CM_31 
REMARK       I    between atoms: C_32  and  N_34 
REMARK   23  A    between atoms: N_34  and  CA_35 
REMARK   24  A    between atoms: CA_35  and  C_36 
REMARK   25  A    between atoms: CA_35  and  CB_38 
REMARK       I    between atoms: C_36  and  N_43 
REMARK   26  A    between atoms: CB_38  and  CG_39 
REMARK   27  A    between atoms: CG_39  and  CD_40 
REMARK       I    between atoms: CD_40  and  NE2_42 
REMARK   28  A    between atoms: N_43  and  CA_44 
REMARK   29  A    between atoms: CA_44  and  C_45 
REMARK   30  A    between atoms: CA_44  and  CB_47 
REMARK       I    between atoms: C_45  and  N_50 
REMARK   31  A    between atoms: CB_47  and  OG1_48 
REMARK   32  A    between atoms: CB_47  and  CG2_49 
REMARK   33  A    between atoms: N_50  and  CA_51 
REMARK   34  A    between atoms: CA_51  and  C_52 
REMARK   35  A    between atoms: CA_51  and  CB_54 
REMARK       I    between atoms: C_52  and  N_55 
REMARK   36  A    between atoms: N_55  and  CA_56 
REMARK   37  A    between atoms: CA_56  and  C_57 
REMARK   38  A    between atoms: CA_56  and  CB_59 
REMARK       I    between atoms: C_57  and  N_66 
REMARK   39  A    between atoms: CB_59  and  CG_60 
REMARK   40  A    between atoms: CG_60  and  CD_61 
REMARK   41  A    between atoms: CD_61  and  NE_62 
REMARK       I    between atoms: NE_62  and  CZ_63 
REMARK       I    between atoms: CZ_63  and  NH1_64 
REMARK   42  A    between atoms: N_66  and  CA_67 
REMARK   43  A    between atoms: CA_67  and  C_68 
REMARK   44  A    between atoms: CA_67  and  CB_70 
REMARK   45  A    between atoms: CB_70  and  CG_71 
REMARK   46  A    between atoms: CG_71  and  CD_72 
REMARK   47  A    between atoms: CD_72  and  CE_73 
REMARK   48  A    between atoms: CE_73  and  NZ_74 
ROOT
ATOM      1  CA  GLN d   1      13.360   6.490  44.091  0.00  0.00     0.090 C 
ATOM      2  H44 GLN d   1      13.015   5.965  43.188  0.00  0.00     0.087 H 
ENDROOT
BRANCH   1   3
ATOM      3  N   GLN d   1      12.441   7.594  44.385  0.00  0.00    -0.346 N 
ATOM      4  C   MLZ d   1      11.130   7.452  44.212  0.00  0.00     0.241 C 
ATOM      5  O   MLZ d   1      10.638   6.428  43.757  0.00  0.00    -0.271 OA
ATOM      6  H43 GLN d   1      12.804   8.464  44.719  0.00  0.00     0.163 HD
BRANCH   4   7
ATOM      7  CA  MLZ d   1      10.240   8.609  44.585  0.00  0.00     0.089 C 
ATOM      8  H29 MLZ d   1      10.762   9.554  44.372  0.00  0.00     0.087 H 
BRANCH   7   9
ATOM      9  N   MLZ d   1       9.003   8.544  43.793  0.00  0.00    -0.346 N 
ATOM     10  C   THR d   1       8.629   9.503  42.942  0.00  0.00     0.243 C 
ATOM     11  O   THR d   1       9.283  10.546  42.762  0.00  0.00    -0.271 OA
ATOM     12  H28 MLZ d   1       8.413   7.743  43.897  0.00  0.00     0.163 HD
BRANCH  10  13
ATOM     13  CA  THR d   1       7.340   9.249  42.150  0.00  0.00     0.113 C 
ATOM     14  H22 THR d   1       7.613   9.221  41.085  0.00  0.00     0.091 H 
BRANCH  13  15
ATOM     15  N   THR d   1       6.723   7.958  42.468  0.00  0.00    -0.344 N 
ATOM     16  C   ARG d   1       7.168   6.831  41.932  0.00  0.00     0.241 C 
ATOM     17  O   ARG d   1       8.175   6.784  41.212  0.00  0.00    -0.271 OA
ATOM     18  H21 THR d   1       5.951   7.927  43.102  0.00  0.00     0.163 HD
BRANCH  16  19
ATOM     19  CA  ARG d   1       6.391   5.569  42.291  0.00  0.00     0.089 C 
ATOM     20  H9  ARG d   1       7.102   4.731  42.335  0.00  0.00     0.087 H 
BRANCH  19  21
ATOM     21  N   ARG d   1       5.749   5.687  43.624  0.00  0.00    -0.346 N 
ATOM     22  C   ALA d   1       6.494   5.925  44.713  0.00  0.00     0.248 C 
ATOM     23  O   ALA d   1       7.681   6.209  44.646  0.00  0.00    -0.271 OA
ATOM     24  H8  ARG d   1       4.758   5.589  43.710  0.00  0.00     0.163 HD
BRANCH  22  25
ATOM     25  CA  ALA d   1       5.844   5.826  46.084  0.00  0.00     0.172 C 
ATOM     26  H4  ALA d   1       6.412   6.465  46.776  0.00  0.00     0.098 H 
BRANCH  25  27
ATOM     27  N   ALA d   1       4.444   6.319  46.061  0.00  0.00    -0.067 N 
ATOM     28  H1  ALA d   1       4.045   6.239  46.983  0.00  0.00     0.275 HD
ATOM     29  H2  ALA d   1       3.904   5.768  45.412  0.00  0.00     0.275 HD
ATOM     30  H3  ALA d   1       4.433   7.285  45.772  0.00  0.00     0.275 HD
ENDBRANCH  25  27
BRANCH  25  31
ATOM     31  CB  ALA d   1       5.921   4.364  46.606  0.00  0.00    -0.042 C 
ATOM     32  H5  ALA d   1       6.969   4.031  46.610  0.00  0.00     0.030 H 
ATOM     33  H6  ALA d   1       5.331   3.708  45.949  0.00  0.00     0.030 H 
ATOM     34  H7  ALA d   1       5.518   4.318  47.628  0.00  0.00     0.030 H 
ENDBRANCH  25  31
ENDBRANCH  22  25
ENDBRANCH  19  21
BRANCH  19  35
ATOM     35  CB  ARG d   1       5.359   5.263  41.190  0.00  0.00    -0.036 C 
ATOM     36  H10 ARG d   1       4.624   6.081  41.169  0.00  0.00     0.036 H 
ATOM     37  H11 ARG d   1       4.851   4.321  41.446  0.00  0.00     0.036 H 
BRANCH  35  38
ATOM     38  CG  ARG d   1       5.954   5.121  39.796  0.00  0.00    -0.048 C 
ATOM     39  H12 ARG d   1       6.674   4.289  39.803  0.00  0.00     0.035 H 
ATOM     40  H13 ARG d   1       6.475   6.055  39.539  0.00  0.00     0.035 H 
BRANCH  38  41
ATOM     41  CD  ARG d   1       4.883   4.839  38.718  0.00  0.00     0.009 C 
ATOM     42  H14 ARG d   1       5.393   4.715  37.751  0.00  0.00     0.064 H 
ATOM     43  H15 ARG d   1       4.209   5.707  38.668  0.00  0.00     0.064 H 
BRANCH  41  44
ATOM     44  NE  ARG d   1       4.068   3.637  38.966  0.00  0.00    -0.227 N 
ATOM     45  CZ  ARG d   1       4.329   2.422  38.483  0.00  0.00     0.665 C 
ATOM     46  NH1 ARG d   1       5.409   2.205  37.735  0.00  0.00    -0.235 N 
ATOM     47  NH2 ARG d   1       3.498   1.419  38.739  0.00  0.00    -0.235 N 
ATOM     48  H17 ARG d   1       5.600   1.262  37.367  0.00  0.00     0.174 HD
ATOM     49  H18 ARG d   1       6.053   2.980  37.524  0.00  0.00     0.174 HD
ATOM     50  H19 ARG d   1       2.660   1.579  39.317  0.00  0.00     0.174 HD
ATOM     51  H20 ARG d   1       3.691   0.481  38.360  0.00  0.00     0.174 HD
ATOM     52  H16 ARG d   1       3.232   3.744  39.558  0.00  0.00     0.177 HD
ENDBRANCH  41  44
ENDBRANCH  38  41
ENDBRANCH  35  38
ENDBRANCH  19  35
ENDBRANCH  16  19
ENDBRANCH  13  15
BRANCH  13  53
ATOM     53  CB  THR d   1       6.346  10.420  42.343  0.00  0.00     0.060 C 
ATOM     54  H23 THR d   1       6.838  11.354  42.035  0.00  0.00     0.086 H 
BRANCH  53  55
ATOM     55  OG1 THR d   1       5.982  10.517  43.719  0.00  0.00    -0.393 OA
ATOM     56  H24 THR d   1       5.372  11.236  43.834  0.00  0.00     0.210 HD
ENDBRANCH  53  55
BRANCH  53  57
ATOM     57  CG2 THR d   1       5.087  10.228  41.500  0.00  0.00    -0.050 C 
ATOM     58  H25 THR d   1       4.405  11.076  41.661  0.00  0.00     0.031 H 
ATOM     59  H26 THR d   1       4.587   9.294  41.795  0.00  0.00     0.031 H 
ATOM     60  H27 THR d   1       5.362  10.176  40.436  0.00  0.00     0.031 H 
ENDBRANCH  53  57
ENDBRANCH  13  53
ENDBRANCH  10  13
ENDBRANCH   7   9
BRANCH   7  61
ATOM     61  CB  MLZ d   1       9.900   8.546  46.067  0.00  0.00    -0.038 C 
ATOM     62  H30 MLZ d   1      10.822   8.374  46.642  0.00  0.00     0.036 H 
ATOM     63  H31 MLZ d   1       9.198   7.717  46.242  0.00  0.00     0.036 H 
BRANCH  61  64
ATOM     64  CG  MLZ d   1       9.257   9.854  46.528  0.00  0.00    -0.061 C 
ATOM     65  H32 MLZ d   1       8.350  10.046  45.936  0.00  0.00     0.033 H 
ATOM     66  H33 MLZ d   1       9.968  10.682  46.388  0.00  0.00     0.033 H 
BRANCH  64  67
ATOM     67  CD  MLZ d   1       8.888   9.746  48.001  0.00  0.00    -0.043 C 
ATOM     68  H34 MLZ d   1       9.808   9.761  48.603  0.00  0.00     0.035 H 
ATOM     69  H35 MLZ d   1       8.356   8.798  48.169  0.00  0.00     0.035 H 
BRANCH  67  70
ATOM     70  CE  MLZ d   1       7.992  10.902  48.433  0.00  0.00     0.081 C 
ATOM     71  H36 MLZ d   1       7.168  11.002  47.711  0.00  0.00     0.075 H 
ATOM     72  H37 MLZ d   1       8.586  11.828  48.442  0.00  0.00     0.075 H 
BRANCH  70  73
ATOM     73  NZ  MLZ d   1       7.431  10.691  49.759  0.00  0.00    -0.079 N 
ATOM     74  H38 MLZ d   1       7.173  11.598  50.117  0.00  0.00     0.276 HD
ATOM     75  H39 MLZ d   1       8.165  10.301  50.330  0.00  0.00     0.276 HD
BRANCH  73  76
ATOM     76  CM  MLZ d   1       6.266   9.826  49.914  0.00  0.00     0.065 C 
ATOM     77  H40 MLZ d   1       5.981   9.782  50.975  0.00  0.00     0.067 H 
ATOM     78  H41 MLZ d   1       6.511   8.814  49.558  0.00  0.00     0.067 H 
ATOM     79  H42 MLZ d   1       5.429  10.229  49.326  0.00  0.00     0.067 H 
ENDBRANCH  73  76
ENDBRANCH  70  73
ENDBRANCH  67  70
ENDBRANCH  64  67
ENDBRANCH  61  64
ENDBRANCH   7  61
ENDBRANCH   4   7
ENDBRANCH   1   3
BRANCH   1  80
ATOM     80  C   GLN d   1      13.399   5.516  45.268  0.00  0.00     0.241 C 
ATOM     81  O   GLN d   1      13.678   5.926  46.392  0.00  0.00    -0.271 OA
ATOM     82  N   THR d   1      13.128   4.236  45.008  0.00  0.00    -0.344 N 
ATOM     83  H51 THR d   1      12.977   3.953  44.061  0.00  0.00     0.163 HD
BRANCH  82  84
ATOM     84  CA  THR d   1      13.046   3.230  46.080  0.00  0.00     0.113 C 
ATOM     85  H52 THR d   1      13.471   3.685  46.987  0.00  0.00     0.091 H 
BRANCH  84  86
ATOM     86  C   THR d   1      13.829   1.949  45.778  0.00  0.00     0.243 C 
ATOM     87  O   THR d   1      13.701   0.953  46.494  0.00  0.00    -0.271 OA
ATOM     88  N   ALA d   1      14.638   1.957  44.724  0.00  0.00    -0.346 N 
ATOM     89  H58 ALA d   1      14.774   2.797  44.199  0.00  0.00     0.163 HD
BRANCH  88  90
ATOM     90  CA  ALA d   1      15.329   0.726  44.337  0.00  0.00     0.086 C 
ATOM     91  H59 ALA d   1      14.921  -0.084  44.960  0.00  0.00     0.086 H 
BRANCH  90  92
ATOM     92  C   ALA d   1      16.832   0.754  44.569  0.00  0.00     0.240 C 
ATOM     93  O   ALA d   1      17.463   1.810  44.495  0.00  0.00    -0.271 OA
ATOM     94  N   ARG d   1      17.403  -0.422  44.827  0.00  0.00    -0.346 N 
ATOM     95  H63 ARG d   1      16.829  -1.203  45.072  0.00  0.00     0.163 HD
BRANCH  94  96
ATOM     96  CA  ARG d   1      18.856  -0.591  44.759  0.00  0.00     0.089 C 
ATOM     97  H64 ARG d   1      19.332   0.102  45.469  0.00  0.00     0.087 H 
BRANCH  96  98
ATOM     98  C   ARG d   1      19.331  -0.265  43.336  0.00  0.00     0.241 C 
ATOM     99  O   ARG d   1      18.516  -0.171  42.396  0.00  0.00    -0.271 OA
ATOM    100  N   LYS d   1      20.643  -0.104  43.183  0.00  0.00    -0.345 N 
ATOM    101  H76 LYS d   1      21.236  -0.189  43.984  0.00  0.00     0.163 HD
BRANCH 100 102
ATOM    102  CA  LYS d   1      21.248   0.192  41.889  0.00  0.00     0.096 C 
ATOM    103  H77 LYS d   1      20.803   1.121  41.504  0.00  0.00     0.089 H 
BRANCH 102 104
ATOM    104  C   LYS d   1      20.961  -0.926  40.883  0.00  0.00     0.196 C 
ATOM    105  O   LYS d   1      21.159  -2.116  41.170  0.00  0.00    -0.646 OA
ATOM    106  OXT LYS d   1      20.514  -0.654  39.764  0.00  0.00    -0.646 OA
ENDBRANCH 102 104
BRANCH 102 107
ATOM    107  CB  LYS d   1      22.757   0.413  42.050  0.00  0.00    -0.037 C 
ATOM    108  H78 LYS d   1      23.250  -0.570  42.075  0.00  0.00     0.036 H 
ATOM    109  H79 LYS d   1      22.930   0.934  43.003  0.00  0.00     0.036 H 
BRANCH 107 110
ATOM    110  CG  LYS d   1      23.386   1.235  40.935  0.00  0.00    -0.061 C 
ATOM    111  H80 LYS d   1      22.622   1.907  40.516  0.00  0.00     0.033 H 
ATOM    112  H81 LYS d   1      23.744   0.552  40.150  0.00  0.00     0.033 H 
BRANCH 110 113
ATOM    113  CD  LYS d   1      24.572   2.082  41.434  0.00  0.00    -0.043 C 
ATOM    114  H82 LYS d   1      24.220   2.745  42.238  0.00  0.00     0.035 H 
ATOM    115  H83 LYS d   1      24.950   2.689  40.598  0.00  0.00     0.035 H 
BRANCH 113 116
ATOM    116  CE  LYS d   1      25.710   1.226  41.970  0.00  0.00     0.080 C 
ATOM    117  H84 LYS d   1      25.953   0.448  41.231  0.00  0.00     0.075 H 
ATOM    118  H85 LYS d   1      25.391   0.752  42.910  0.00  0.00     0.075 H 
BRANCH 116 119
ATOM    119  NZ  LYS d   1      26.927   2.048  42.229  0.00  0.00    -0.079 N 
ATOM    120  H86 LYS d   1      27.663   1.457  42.582  0.00  0.00     0.274 HD
ATOM    121  H87 LYS d   1      26.713   2.760  42.909  0.00  0.00     0.274 HD
ATOM    122  H88 LYS d   1      27.228   2.482  41.371  0.00  0.00     0.274 HD
ENDBRANCH 116 119
ENDBRANCH 113 116
ENDBRANCH 110 113
ENDBRANCH 107 110
ENDBRANCH 102 107
ENDBRANCH 100 102
ENDBRANCH  96  98
BRANCH  96 123
ATOM    123  CB  ARG d   1      19.257  -2.024  45.119  0.00  0.00    -0.036 C 
ATOM    124  H65 ARG d   1      18.954  -2.222  46.158  0.00  0.00     0.036 H 
ATOM    125  H66 ARG d   1      20.350  -2.113  45.033  0.00  0.00     0.036 H 
BRANCH 123 126
ATOM    126  CG  ARG d   1      18.621  -3.058  44.230  0.00  0.00    -0.048 C 
ATOM    127  H67 ARG d   1      18.874  -2.828  43.184  0.00  0.00     0.035 H 
ATOM    128  H68 ARG d   1      17.530  -3.014  44.362  0.00  0.00     0.035 H 
BRANCH 126 129
ATOM    129  CD  ARG d   1      19.091  -4.455  44.546  0.00  0.00     0.009 C 
ATOM    130  H69 ARG d   1      18.911  -4.663  45.611  0.00  0.00     0.064 H 
ATOM    131  H70 ARG d   1      20.168  -4.529  44.335  0.00  0.00     0.064 H 
BRANCH 129 132
ATOM    132  NE  ARG d   1      18.375  -5.445  43.737  0.00  0.00    -0.227 N 
ATOM    133  CZ  ARG d   1      18.855  -6.012  42.632  0.00  0.00     0.665 C 
ATOM    134  NH1 ARG d   1      20.073  -5.697  42.191  0.00  0.00    -0.235 N 
ATOM    135  NH2 ARG d   1      18.120  -6.903  41.972  0.00  0.00    -0.235 N 
ATOM    136  H72 ARG d   1      20.441  -6.138  41.336  0.00  0.00     0.174 HD
ATOM    137  H73 ARG d   1      20.646  -5.013  42.705  0.00  0.00     0.174 HD
ATOM    138  H74 ARG d   1      17.179  -7.147  42.312  0.00  0.00     0.174 HD
ATOM    139  H75 ARG d   1      18.492  -7.349  41.121  0.00  0.00     0.174 HD
ATOM    140  H71 ARG d   1      17.432  -5.722  44.045  0.00  0.00     0.177 HD
ENDBRANCH 129 132
ENDBRANCH 126 129
ENDBRANCH 123 126
ENDBRANCH  96 123
ENDBRANCH  94  96
ENDBRANCH  90  92
BRANCH  90 141
ATOM    141  CB  ALA d   1      15.031   0.396  42.890  0.00  0.00    -0.049 C 
ATOM    142  H60 ALA d   1      15.555  -0.530  42.610  0.00  0.00     0.030 H 
ATOM    143  H61 ALA d   1      15.374   1.220  42.248  0.00  0.00     0.030 H 
ATOM    144  H62 ALA d   1      13.947   0.258  42.761  0.00  0.00     0.030 H 
ENDBRANCH  90 141
ENDBRANCH  88  90
ENDBRANCH  84  86
BRANCH  84 145
ATOM    145  CB  THR d   1      11.580   2.821  46.378  0.00  0.00     0.060 C 
ATOM    146  H53 THR d   1      11.593   1.962  47.065  0.00  0.00     0.086 H 
BRANCH 145 147
ATOM    147  OG1 THR d   1      10.929   2.424  45.161  0.00  0.00    -0.393 OA
ATOM    148  H54 THR d   1      10.935   3.150  44.549  0.00  0.00     0.210 HD
ENDBRANCH 145 147
BRANCH 145 149
ATOM    149  CG2 THR d   1      10.792   3.973  47.056  0.00  0.00    -0.050 C 
ATOM    150  H55 THR d   1       9.760   3.646  47.251  0.00  0.00     0.031 H 
ATOM    151  H56 THR d   1      10.780   4.849  46.392  0.00  0.00     0.031 H 
ATOM    152  H57 THR d   1      11.278   4.240  48.006  0.00  0.00     0.031 H 
ENDBRANCH 145 149
ENDBRANCH  84 145
ENDBRANCH  82  84
ENDBRANCH   1  80
BRANCH   1 153
ATOM    153  CB  GLN d   1      14.773   7.014  43.867  0.00  0.00    -0.030 C 
ATOM    154  H45 GLN d   1      15.384   6.193  43.463  0.00  0.00     0.037 H 
ATOM    155  H46 GLN d   1      15.180   7.330  44.839  0.00  0.00     0.037 H 
BRANCH 153 156
ATOM    156  CG  GLN d   1      14.863   8.169  42.926  0.00  0.00     0.011 C 
ATOM    157  H47 GLN d   1      14.201   8.972  43.283  0.00  0.00     0.047 H 
ATOM    158  H48 GLN d   1      14.537   7.841  41.928  0.00  0.00     0.047 H 
BRANCH 156 159
ATOM    159  CD  GLN d   1      16.257   8.699  42.830  0.00  0.00     0.215 C 
ATOM    160  OE1 GLN d   1      17.227   7.975  43.084  0.00  0.00    -0.274 OA
ATOM    161  NE2 GLN d   1      16.382   9.967  42.445  0.00  0.00    -0.370 N 
ATOM    162  H49 GLN d   1      17.290  10.377  42.362  0.00  0.00     0.159 HD
ATOM    163  H50 GLN d   1      15.568  10.509  42.238  0.00  0.00     0.159 HD
ENDBRANCH 156 159
ENDBRANCH 153 156
ENDBRANCH   1 153
TORSDOF 48
