REMARK WARNING: 32 MAX_TORS EXCEEDED!!!
REMARK  37 active torsions:
REMARK  status: ('A' for Active; 'I' for Inactive)
REMARK    1  A    between atoms: N_1  and  CA_2 
REMARK    2  A    between atoms: CA_2  and  C_3 
REMARK    3  A    between atoms: CA_2  and  CB_5 
REMARK       I    between atoms: C_3  and  N_6 
REMARK    4  A    between atoms: N_6  and  CA_7 
REMARK    5  A    between atoms: CA_7  and  C_8 
REMARK    6  A    between atoms: CA_7  and  CB_10 
REMARK       I    between atoms: C_8  and  N_17 
REMARK    7  A    between atoms: CB_10  and  CG_11 
REMARK    8  A    between atoms: CG_11  and  CD_12 
REMARK    9  A    between atoms: CD_12  and  NE_13 
REMARK       I    between atoms: NE_13  and  CZ_14 
REMARK       I    between atoms: CZ_14  and  NH1_15 
REMARK   10  A    between atoms: N_17  and  CA_18 
REMARK   11  A    between atoms: CA_18  and  C_19 
REMARK   12  A    between atoms: CA_18  and  CB_21 
REMARK       I    between atoms: C_19  and  N_24 
REMARK   13  A    between atoms: CB_21  and  OG1_22 
REMARK   14  A    between atoms: CB_21  and  CG2_23 
REMARK   15  A    between atoms: N_24  and  CA_25 
REMARK   16  A    between atoms: CA_25  and  CB_26 
REMARK   17  A    between atoms: CA_25  and  C_31 
REMARK   18  A    between atoms: CB_26  and  CG_27 
REMARK   19  A    between atoms: CG_27  and  CD_28 
REMARK   20  A    between atoms: CD_28  and  CE_29 
REMARK   21  A    between atoms: CE_29  and  NZ_30 
REMARK   22  A    between atoms: NZ_30  and  CM1_33 
REMARK   23  A    between atoms: NZ_30  and  CM2_34 
REMARK   24  A    between atoms: NZ_30  and  CM3_35 
REMARK       I    between atoms: C_31  and  N_36 
REMARK   25  A    between atoms: N_36  and  CA_37 
REMARK   26  A    between atoms: CA_37  and  C_38 
REMARK   27  A    between atoms: CA_37  and  CB_40 
REMARK       I    between atoms: C_38  and  N_45 
REMARK   28  A    between atoms: CB_40  and  CG_41 
REMARK   29  A    between atoms: CG_41  and  CD_42 
REMARK       I    between atoms: CD_42  and  NE2_44 
REMARK   30  A    between atoms: N_45  and  CA_46 
REMARK   31  A    between atoms: CA_46  and  C_47 
REMARK   32  A    between atoms: CA_46  and  CB_49 
REMARK       I    between atoms: C_47  and  N_52 
REMARK   33  A    between atoms: CB_49  and  OG1_50 
REMARK   34  A    between atoms: CB_49  and  CG2_51 
REMARK   35  A    between atoms: N_52  and  CA_53 
REMARK   36  A    between atoms: CA_53  and  C_54 
REMARK   37  A    between atoms: CA_53  and  CB_56 
ROOT
ATOM      1  CA  M3L d   1      10.523   8.833  44.256  0.00  0.00     0.089 C 
ATOM      2  H29 M3L d   1      10.995   9.767  43.917  0.00  0.00     0.087 H 
ENDROOT
BRANCH   1   3
ATOM      3  N   M3L d   1       9.181   8.717  43.652  0.00  0.00    -0.346 N 
ATOM      4  C   THR d   1       8.718   9.617  42.790  0.00  0.00     0.243 C 
ATOM      5  O   THR d   1       9.307  10.688  42.557  0.00  0.00    -0.271 OA
ATOM      6  H28 M3L d   1       8.603   7.939  43.898  0.00  0.00     0.163 HD
BRANCH   4   7
ATOM      7  CA  THR d   1       7.401   9.270  42.074  0.00  0.00     0.113 C 
ATOM      8  H22 THR d   1       7.630   9.200  41.000  0.00  0.00     0.091 H 
BRANCH   7   9
ATOM      9  N   THR d   1       6.832   7.967  42.471  0.00  0.00    -0.344 N 
ATOM     10  C   ARG d   1       7.203   6.857  41.853  0.00  0.00     0.241 C 
ATOM     11  O   ARG d   1       8.114   6.836  41.035  0.00  0.00    -0.271 OA
ATOM     12  H21 THR d   1       6.162   7.923  43.212  0.00  0.00     0.163 HD
BRANCH  10  13
ATOM     13  CA  ARG d   1       6.447   5.570  42.208  0.00  0.00     0.089 C 
ATOM     14  H9  ARG d   1       7.165   4.739  42.148  0.00  0.00     0.087 H 
BRANCH  13  15
ATOM     15  N   ARG d   1       5.915   5.583  43.571  0.00  0.00    -0.346 N 
ATOM     16  C   ALA d   1       6.739   5.721  44.613  0.00  0.00     0.248 C 
ATOM     17  O   ALA d   1       7.944   5.928  44.479  0.00  0.00    -0.271 OA
ATOM     18  H8  ARG d   1       4.931   5.488  43.723  0.00  0.00     0.163 HD
BRANCH  16  19
ATOM     19  CA  ALA d   1       6.131   5.624  46.013  0.00  0.00     0.172 C 
ATOM     20  H4  ALA d   1       6.752   6.221  46.697  0.00  0.00     0.098 H 
BRANCH  19  21
ATOM     21  N   ALA d   1       4.745   6.173  46.052  0.00  0.00    -0.067 N 
ATOM     22  H1  ALA d   1       4.378   6.092  46.987  0.00  0.00     0.275 HD
ATOM     23  H2  ALA d   1       4.160   5.654  45.416  0.00  0.00     0.275 HD
ATOM     24  H3  ALA d   1       4.760   7.143  45.779  0.00  0.00     0.275 HD
ENDBRANCH  19  21
BRANCH  19  25
ATOM     25  CB  ALA d   1       6.145   4.169  46.495  0.00  0.00    -0.042 C 
ATOM     26  H5  ALA d   1       7.174   3.781  46.460  0.00  0.00     0.030 H 
ATOM     27  H6  ALA d   1       5.501   3.561  45.843  0.00  0.00     0.030 H 
ATOM     28  H7  ALA d   1       5.771   4.121  47.528  0.00  0.00     0.030 H 
ENDBRANCH  19  25
ENDBRANCH  16  19
ENDBRANCH  13  15
BRANCH  13  29
ATOM     29  CB  ARG d   1       5.343   5.307  41.175  0.00  0.00    -0.036 C 
ATOM     30  H10 ARG d   1       4.666   6.174  41.150  0.00  0.00     0.036 H 
ATOM     31  H11 ARG d   1       4.780   4.411  41.477  0.00  0.00     0.036 H 
BRANCH  29  32
ATOM     32  CG  ARG d   1       5.915   5.082  39.763  0.00  0.00    -0.048 C 
ATOM     33  H12 ARG d   1       6.604   4.225  39.796  0.00  0.00     0.035 H 
ATOM     34  H13 ARG d   1       6.466   5.984  39.459  0.00  0.00     0.035 H 
BRANCH  32  35
ATOM     35  CD  ARG d   1       4.832   4.798  38.722  0.00  0.00     0.009 C 
ATOM     36  H14 ARG d   1       5.317   4.640  37.747  0.00  0.00     0.064 H 
ATOM     37  H15 ARG d   1       4.166   5.671  38.663  0.00  0.00     0.064 H 
BRANCH  35  38
ATOM     38  NE  ARG d   1       4.024   3.616  39.038  0.00  0.00    -0.227 N 
ATOM     39  CZ  ARG d   1       4.243   2.386  38.552  0.00  0.00     0.665 C 
ATOM     40  NH1 ARG d   1       5.271   2.136  37.718  0.00  0.00    -0.235 N 
ATOM     41  NH2 ARG d   1       3.425   1.395  38.895  0.00  0.00    -0.235 N 
ATOM     42  H17 ARG d   1       5.421   1.183  37.356  0.00  0.00     0.174 HD
ATOM     43  H18 ARG d   1       5.907   2.898  37.442  0.00  0.00     0.174 HD
ATOM     44  H19 ARG d   1       2.636   1.576  39.532  0.00  0.00     0.174 HD
ATOM     45  H20 ARG d   1       3.580   0.447  38.524  0.00  0.00     0.174 HD
ATOM     46  H16 ARG d   1       3.229   3.740  39.681  0.00  0.00     0.177 HD
ENDBRANCH  35  38
ENDBRANCH  32  35
ENDBRANCH  29  32
ENDBRANCH  13  29
ENDBRANCH  10  13
ENDBRANCH   7   9
BRANCH   7  47
ATOM     47  CB  THR d   1       6.373  10.418  42.253  0.00  0.00     0.060 C 
ATOM     48  H23 THR d   1       6.819  11.353  41.883  0.00  0.00     0.086 H 
BRANCH  47  49
ATOM     49  OG1 THR d   1       6.079  10.551  43.636  0.00  0.00    -0.393 OA
ATOM     50  H24 THR d   1       5.715   9.736  43.961  0.00  0.00     0.210 HD
ENDBRANCH  47  49
BRANCH  47  51
ATOM     51  CG2 THR d   1       5.059  10.155  41.475  0.00  0.00    -0.050 C 
ATOM     52  H25 THR d   1       4.365  10.994  41.633  0.00  0.00     0.031 H 
ATOM     53  H26 THR d   1       4.598   9.225  41.838  0.00  0.00     0.031 H 
ATOM     54  H27 THR d   1       5.281  10.060  40.402  0.00  0.00     0.031 H 
ENDBRANCH  47  51
ENDBRANCH   7  47
ENDBRANCH   4   7
ENDBRANCH   1   3
BRANCH   1  55
ATOM     55  CB  M3L d   1      10.356   8.871  45.766  0.00  0.00    -0.038 C 
ATOM     56  H30 M3L d   1      11.347   8.945  46.238  0.00  0.00     0.036 H 
ATOM     57  H31 M3L d   1       9.859   7.948  46.099  0.00  0.00     0.036 H 
BRANCH  55  58
ATOM     58  CG  M3L d   1       9.510  10.075  46.180  0.00  0.00    -0.061 C 
ATOM     59  H32 M3L d   1       9.364  10.048  47.270  0.00  0.00     0.033 H 
ATOM     60  H33 M3L d   1       8.534  10.012  45.677  0.00  0.00     0.033 H 
BRANCH  58  61
ATOM     61  CD  M3L d   1      10.175  11.404  45.804  0.00  0.00    -0.042 C 
ATOM     62  H34 M3L d   1      10.281  11.458  44.711  0.00  0.00     0.035 H 
ATOM     63  H35 M3L d   1      11.169  11.455  46.272  0.00  0.00     0.035 H 
BRANCH  61  64
ATOM     64  CE  M3L d   1       9.328  12.592  46.288  0.00  0.00     0.084 C 
ATOM     65  H36 M3L d   1       9.465  12.695  47.375  0.00  0.00     0.076 H 
ATOM     66  H37 M3L d   1       8.272  12.376  46.070  0.00  0.00     0.076 H 
BRANCH  64  67
ATOM     67  NZ  M3L d   1       9.680  13.880  45.651  0.00  0.00    -0.079 N 
BRANCH  67  68
ATOM     68  CM1 M3L d   1      11.138  14.148  45.686  0.00  0.00     0.067 C 
ATOM     69  H38 M3L d   1      11.345  15.114  45.202  0.00  0.00     0.068 H 
ATOM     70  H39 M3L d   1      11.671  13.348  45.151  0.00  0.00     0.068 H 
ATOM     71  H40 M3L d   1      11.480  14.181  46.731  0.00  0.00     0.068 H 
ENDBRANCH  67  68
BRANCH  67  72
ATOM     72  CM2 M3L d   1       9.018  14.992  46.365  0.00  0.00     0.067 C 
ATOM     73  H41 M3L d   1       7.930  14.833  46.363  0.00  0.00     0.068 H 
ATOM     74  H42 M3L d   1       9.251  15.942  45.861  0.00  0.00     0.068 H 
ATOM     75  H43 M3L d   1       9.381  15.029  47.403  0.00  0.00     0.068 H 
ENDBRANCH  67  72
BRANCH  67  76
ATOM     76  CM3 M3L d   1       9.210  13.832  44.250  0.00  0.00     0.067 C 
ATOM     77  H44 M3L d   1       9.707  13.003  43.725  0.00  0.00     0.068 H 
ATOM     78  H45 M3L d   1       9.453  14.781  43.749  0.00  0.00     0.068 H 
ATOM     79  H46 M3L d   1       8.121  13.677  44.234  0.00  0.00     0.068 H 
ENDBRANCH  67  76
ENDBRANCH  64  67
ENDBRANCH  61  64
ENDBRANCH  58  61
ENDBRANCH  55  58
ENDBRANCH   1  55
BRANCH   1  80
ATOM     80  C   M3L d   1      11.399   7.670  43.853  0.00  0.00     0.241 C 
ATOM     81  O   M3L d   1      10.903   6.680  43.313  0.00  0.00    -0.271 OA
ATOM     82  N   GLN d   1      12.701   7.749  44.108  0.00  0.00    -0.346 N 
ATOM     83  H47 GLN d   1      13.073   8.563  44.553  0.00  0.00     0.163 HD
BRANCH  82  84
ATOM     84  CA  GLN d   1      13.588   6.651  43.741  0.00  0.00     0.090 C 
ATOM     85  H48 GLN d   1      13.159   6.105  42.888  0.00  0.00     0.087 H 
BRANCH  84  86
ATOM     86  C   GLN d   1      13.695   5.730  44.934  0.00  0.00     0.241 C 
ATOM     87  O   GLN d   1      14.065   6.174  46.027  0.00  0.00    -0.271 OA
ATOM     88  N   THR d   1      13.341   4.464  44.732  0.00  0.00    -0.344 N 
ATOM     89  H55 THR d   1      13.097   4.174  43.807  0.00  0.00     0.163 HD
BRANCH  88  90
ATOM     90  CA  THR d   1      13.296   3.477  45.819  0.00  0.00     0.113 C 
ATOM     91  H56 THR d   1      13.693   3.959  46.724  0.00  0.00     0.091 H 
BRANCH  90  92
ATOM     92  C   THR d   1      14.143   2.234  45.534  0.00  0.00     0.243 C 
ATOM     93  O   THR d   1      14.172   1.284  46.332  0.00  0.00    -0.271 OA
ATOM     94  N   ALA d   1      14.834   2.235  44.403  0.00  0.00    -0.345 N 
ATOM     95  H62 ALA d   1      14.849   3.056  43.832  0.00  0.00     0.163 HD
BRANCH  94  96
ATOM     96  CA  ALA d   1      15.570   1.053  43.986  0.00  0.00     0.093 C 
ATOM     97  H63 ALA d   1      15.127   0.172  44.473  0.00  0.00     0.089 H 
BRANCH  96  98
ATOM     98  C   ALA d   1      17.020   1.168  44.420  0.00  0.00     0.196 C 
ATOM     99  O   ALA d   1      17.442   2.270  44.782  0.00  0.00    -0.646 OA
ATOM    100  O1  ALA d   1      17.776   0.160  44.411  0.00  0.00    -0.646 OA
ENDBRANCH  96  98
BRANCH  96 101
ATOM    101  CB  ALA d   1      15.470   0.875  42.498  0.00  0.00    -0.048 C 
ATOM    102  H64 ALA d   1      16.031  -0.022  42.198  0.00  0.00     0.030 H 
ATOM    103  H65 ALA d   1      15.892   1.757  41.994  0.00  0.00     0.030 H 
ATOM    104  H66 ALA d   1      14.414   0.760  42.213  0.00  0.00     0.030 H 
ENDBRANCH  96 101
ENDBRANCH  94  96
ENDBRANCH  90  92
BRANCH  90 105
ATOM    105  CB  THR d   1      11.840   3.039  46.096  0.00  0.00     0.060 C 
ATOM    106  H57 THR d   1      11.845   2.209  46.817  0.00  0.00     0.086 H 
BRANCH 105 107
ATOM    107  OG1 THR d   1      11.240   2.601  44.867  0.00  0.00    -0.393 OA
ATOM    108  H58 THR d   1      11.246   3.315  44.241  0.00  0.00     0.210 HD
ENDBRANCH 105 107
BRANCH 105 109
ATOM    109  CG2 THR d   1      11.016   4.207  46.677  0.00  0.00    -0.050 C 
ATOM    110  H59 THR d   1       9.986   3.871  46.865  0.00  0.00     0.031 H 
ATOM    111  H60 THR d   1      11.004   5.040  45.959  0.00  0.00     0.031 H 
ATOM    112  H61 THR d   1      11.470   4.542  47.621  0.00  0.00     0.031 H 
ENDBRANCH 105 109
ENDBRANCH  90 105
ENDBRANCH  88  90
ENDBRANCH  84  86
BRANCH  84 113
ATOM    113  CB  GLN d   1      14.975   7.157  43.360  0.00  0.00    -0.030 C 
ATOM    114  H49 GLN d   1      15.546   6.312  42.948  0.00  0.00     0.037 H 
ATOM    115  H50 GLN d   1      15.468   7.523  44.273  0.00  0.00     0.037 H 
BRANCH 113 116
ATOM    116  CG  GLN d   1      14.985   8.254  42.357  0.00  0.00     0.011 C 
ATOM    117  H51 GLN d   1      14.281   9.035  42.680  0.00  0.00     0.047 H 
ATOM    118  H52 GLN d   1      14.662   7.849  41.387  0.00  0.00     0.047 H 
BRANCH 116 119
ATOM    119  CD  GLN d   1      16.352   8.871  42.194  0.00  0.00     0.215 C 
ATOM    120  OE1 GLN d   1      17.377   8.209  42.385  0.00  0.00    -0.274 OA
ATOM    121  NE2 GLN d   1      16.380  10.154  41.839  0.00  0.00    -0.370 N 
ATOM    122  H53 GLN d   1      17.256  10.620  41.715  0.00  0.00     0.159 HD
ATOM    123  H54 GLN d   1      15.525  10.652  41.696  0.00  0.00     0.159 HD
ENDBRANCH 116 119
ENDBRANCH 113 116
ENDBRANCH  84 113
ENDBRANCH  82  84
ENDBRANCH   1  80
TORSDOF 37
