REMARK  9 active torsions:
REMARK  status: ('A' for Active; 'I' for Inactive)
REMARK    1  A    between atoms: C1_1  and  N2_2 
REMARK    2  A    between atoms: N5_5  and  C6_6 
REMARK    3  A    between atoms: C6_6  and  C7_7 
REMARK    4  A    between atoms: C7_7  and  O8_8 
REMARK    5  A    between atoms: O8_8  and  C9_9 
REMARK    6  A    between atoms: C11_11  and  O12_12 
REMARK    7  A    between atoms: O12_12  and  C13_13 
REMARK    8  A    between atoms: C20_20  and  N21_21 
REMARK    9  A    between atoms: N21_21  and  C22_22 
ROOT
ATOM      1  C9  H8H d   1      22.516  20.886  58.749  0.00  0.00     0.073 A 
ATOM      2  C10 H8H d   1      21.305  20.187  58.736  0.00  0.00    -0.018 A 
ATOM      3  C11 H8H d   1      20.126  20.825  58.389  0.00  0.00     0.088 A 
ATOM      4  C19 H8H d   1      20.148  22.202  58.076  0.00  0.00     0.072 A 
ATOM      5  C20 H8H d   1      18.968  22.945  57.735  0.00  0.00     0.144 A 
ATOM      6  N32 H8H d   1      19.101  24.256  57.494  0.00  0.00    -0.223 NA
ATOM      7  C33 H8H d   1      20.260  24.847  57.528  0.00  0.00     0.089 A 
ATOM      8  N34 H8H d   1      21.381  24.210  57.821  0.00  0.00    -0.241 NA
ATOM      9  C35 H8H d   1      21.385  22.906  58.107  0.00  0.00     0.077 A 
ATOM     10  C36 H8H d   1      22.564  22.241  58.441  0.00  0.00    -0.022 A 
ATOM     11  H14 H8H d   1      21.289  19.136  59.000  0.00  0.00     0.092 H 
ATOM     12  H29 H8H d   1      20.308  25.907  57.307  0.00  0.00     0.146 H 
ATOM     13  H30 H8H d   1      23.508  22.774  58.460  0.00  0.00     0.091 H 
ENDROOT
BRANCH   1  14
ATOM     14  O8  H8H d   1      23.639  20.203  59.086  0.00  0.00    -0.349 OA
BRANCH  14  15
ATOM     15  C7  H8H d   1      24.755  21.044  58.887  0.00  0.00     0.049 C 
ATOM     16  H12 H8H d   1      24.747  21.432  57.858  0.00  0.00     0.077 H 
ATOM     17  H13 H8H d   1      24.716  21.884  59.596  0.00  0.00     0.077 H 
BRANCH  15  18
ATOM     18  C6  H8H d   1      26.019  20.240  59.119  0.00  0.00     0.103 C 
ATOM     19  H10 H8H d   1      26.657  20.308  58.226  0.00  0.00     0.079 H 
ATOM     20  H11 H8H d   1      26.555  20.655  59.986  0.00  0.00     0.079 H 
BRANCH  18  21
ATOM     21  N5  H8H d   1      25.709  18.843  59.376  0.00  0.00    -0.066 N 
ATOM     22  C4  H8H d   1      26.374  18.110  58.272  0.00  0.00     0.106 C 
ATOM     23  C3  H8H d   1      26.423  16.591  58.548  0.00  0.00     0.105 C 
ATOM     24  H7  H8H d   1      25.817  18.286  57.340  0.00  0.00     0.078 H 
ATOM     25  H8  H8H d   1      27.402  18.486  58.161  0.00  0.00     0.078 H 
ATOM     26  N2  H8H d   1      27.123  16.370  59.841  0.00  0.00    -0.072 N 
ATOM     27  H5  H8H d   1      25.400  16.191  58.607  0.00  0.00     0.078 H 
ATOM     28  H6  H8H d   1      26.969  16.084  57.739  0.00  0.00     0.078 H 
ATOM     29  C38 H8H d   1      26.387  17.028  60.957  0.00  0.00     0.105 C 
ATOM     30  H4  H8H d   1      28.060  16.738  59.786  0.00  0.00     0.279 HD
ATOM     31  C37 H8H d   1      26.344  18.543  60.684  0.00  0.00     0.106 C 
ATOM     32  H33 H8H d   1      26.905  16.837  61.908  0.00  0.00     0.078 H 
ATOM     33  H34 H8H d   1      25.363  16.631  61.011  0.00  0.00     0.078 H 
ATOM     34  H31 H8H d   1      25.767  19.034  61.482  0.00  0.00     0.078 H 
ATOM     35  H32 H8H d   1      27.372  18.935  60.680  0.00  0.00     0.078 H 
ATOM     36  H9  H8H d   1      24.718  18.660  59.398  0.00  0.00     0.280 HD
BRANCH  26  37
ATOM     37  C1  H8H d   1      27.161  14.919  60.117  0.00  0.00     0.066 C 
ATOM     38  H1  H8H d   1      27.700  14.406  59.307  0.00  0.00     0.068 H 
ATOM     39  H2  H8H d   1      26.134  14.530  60.178  0.00  0.00     0.068 H 
ATOM     40  H3  H8H d   1      27.677  14.741  61.072  0.00  0.00     0.068 H 
ENDBRANCH  26  37
ENDBRANCH  18  21
ENDBRANCH  15  18
ENDBRANCH  14  15
ENDBRANCH   1  14
BRANCH   3  41
ATOM     41  O12 H8H d   1      18.923  20.176  58.346  0.00  0.00    -0.345 OA
BRANCH  41  42
ATOM     42  C13 H8H d   1      18.893  18.997  59.145  0.00  0.00     0.049 C 
ATOM     43  C14 H8H d   1      17.671  19.153  60.050  0.00  0.00    -0.021 C 
ATOM     44  C15 H8H d   1      17.215  17.825  60.671  0.00  0.00     0.022 C 
ATOM     45  H16 H8H d   1      16.843  19.565  59.454  0.00  0.00     0.040 H 
ATOM     46  H17 H8H d   1      17.922  19.852  60.861  0.00  0.00     0.040 H 
ATOM     47  O16 H8H d   1      17.182  16.762  59.711  0.00  0.00    -0.391 OA
ATOM     48  H18 H8H d   1      16.206  17.957  61.088  0.00  0.00     0.074 H 
ATOM     49  H19 H8H d   1      17.912  17.553  61.477  0.00  0.00     0.074 H 
ATOM     50  C17 H8H d   1      18.372  16.551  58.955  0.00  0.00     0.022 C 
ATOM     51  C18 H8H d   1      18.704  17.837  58.173  0.00  0.00    -0.021 C 
ATOM     52  H20 H8H d   1      18.219  15.720  58.251  0.00  0.00     0.074 H 
ATOM     53  H21 H8H d   1      19.202  16.308  59.634  0.00  0.00     0.074 H 
ATOM     54  H22 H8H d   1      19.630  17.687  57.599  0.00  0.00     0.040 H 
ATOM     55  H23 H8H d   1      17.879  18.069  57.484  0.00  0.00     0.040 H 
ATOM     56  H15 H8H d   1      19.812  18.872  59.736  0.00  0.00     0.084 H 
ENDBRANCH  41  42
ENDBRANCH   3  41
BRANCH   5  57
ATOM     57  N21 H8H d   1      17.711  22.330  57.689  0.00  0.00    -0.336 N 
ATOM     58  H24 H8H d   1      17.641  21.338  57.959  0.00  0.00     0.168 HD
BRANCH  57  59
ATOM     59  C22 H8H d   1      16.527  23.007  57.288  0.00  0.00     0.092 A 
ATOM     60  C23 H8H d   1      16.474  23.709  56.074  0.00  0.00     0.133 A 
ATOM     61  O24 H8H d   1      17.397  23.943  55.071  0.00  0.00    -0.321 OA
ATOM     62  C27 H8H d   1      15.296  24.347  55.685  0.00  0.00     0.107 A 
ATOM     63  C25 H8H d   1      16.972  25.147  54.424  0.00  0.00     0.115 C 
ATOM     64  O26 H8H d   1      15.554  24.965  54.483  0.00  0.00    -0.323 OA
ATOM     65  H25 H8H d   1      17.335  25.205  53.387  0.00  0.00     0.118 H 
ATOM     66  H26 H8H d   1      17.293  26.043  54.975  0.00  0.00     0.118 H 
ATOM     67  C28 H8H d   1      14.176  24.308  56.499  0.00  0.00    -0.046 A 
ATOM     68  C29 H8H d   1      14.207  23.604  57.694  0.00  0.00    -0.057 A 
ATOM     69  H27 H8H d   1      13.273  24.829  56.202  0.00  0.00     0.087 H 
ATOM     70  C30 H8H d   1      15.364  22.949  58.083  0.00  0.00     0.063 A 
ATOM     71  H28 H8H d   1      13.325  23.566  58.324  0.00  0.00     0.086 H 
ATOM     72 CL3  H8H d   1      15.356  22.094  59.607  0.00  0.00    -0.082 Cl
ENDBRANCH  57  59
ENDBRANCH   5  57
TORSDOF 9
