REMARK  10 active torsions:
REMARK  status: ('A' for Active; 'I' for Inactive)
REMARK    1  A    between atoms: C2_2  and  O27_18 
REMARK    2  A    between atoms: C3_3  and  C9_7 
REMARK    3  A    between atoms: C5_5  and  O22_16 
REMARK    4  A    between atoms: C9_7  and  N1_8 
REMARK       I    between atoms: N1_8  and  C8_9 
REMARK    5  A    between atoms: C8_9  and  C14_10 
REMARK    6  A    between atoms: C17_12  and  O36_22 
REMARK    7  A    between atoms: O22_16  and  C23_17 
REMARK    8  A    between atoms: O27_18  and  C28_19 
REMARK    9  A    between atoms: O36_22  and  C37_23 
REMARK   10  A    between atoms: C37_23  and  C7_24 
ROOT
ATOM      1  C14 893 d   1      17.715 106.170  50.461  0.00  0.00     0.127 A 
ATOM      2  N16 893 d   1      19.079 106.051  50.456  0.00  0.00    -0.218 NA
ATOM      3  C17 893 d   1      19.728 105.735  49.291  0.00  0.00     0.186 A 
ATOM      4  C18 893 d   1      19.012 105.530  48.095  0.00  0.00     0.097 A 
ATOM      5  C19 893 d   1      17.607 105.654  48.101  0.00  0.00    -0.056 A 
ATOM      6  C20 893 d   1      16.942 105.977  49.294  0.00  0.00    -0.048 A 
ATOM      7  C34 893 d   1      19.681 105.199  46.879  0.00  0.00     0.104 C 
ATOM      8  N35 893 d   1      20.190 104.943  45.875  0.00  0.00    -0.191 NA
ATOM      9  H7  893 d   1      17.043 105.501  47.188  0.00  0.00     0.086 H 
ATOM     10  H8  893 d   1      15.863 106.076  49.319  0.00  0.00     0.087 H 
ENDROOT
BRANCH   3  11
ATOM     11  O36 893 d   1      21.128 105.614  49.301  0.00  0.00    -0.334 OA
BRANCH  11  12
ATOM     12  C37 893 d   1      21.777 105.914  50.527  0.00  0.00     0.024 C 
ATOM     13  H15 893 d   1      21.140 106.575  51.133  0.00  0.00     0.074 H 
ATOM     14  H16 893 d   1      22.737 106.412  50.327  0.00  0.00     0.074 H 
BRANCH  12  15
ATOM     15  C7  893 d   1      22.022 104.600  51.278  0.00  0.00    -0.056 C 
ATOM     16  H17 893 d   1      22.525 104.812  52.233  0.00  0.00     0.030 H 
ATOM     17  H18 893 d   1      22.657 103.941  50.667  0.00  0.00     0.030 H 
ATOM     18  H19 893 d   1      21.060 104.104  51.473  0.00  0.00     0.030 H 
ENDBRANCH  12  15
ENDBRANCH  11  12
ENDBRANCH   3  11
BRANCH   1  19
ATOM     19  C8  893 d   1      17.008 106.505  51.715  0.00  0.00     0.270 C 
ATOM     20  N1  893 d   1      17.821 106.671  52.782  0.00  0.00    -0.351 N 
ATOM     21  H6  893 d   1      18.808 106.562  52.659  0.00  0.00     0.163 HD
ATOM     22  O1  893 d   1      15.781 106.624  51.795  0.00  0.00    -0.266 OA
BRANCH  20  23
ATOM     23  C9  893 d   1      17.307 107.004  54.109  0.00  0.00     0.022 C 
ATOM     24  H4  893 d   1      16.244 107.272  54.023  0.00  0.00     0.071 H 
ATOM     25  H5  893 d   1      17.412 106.126  54.763  0.00  0.00     0.071 H 
BRANCH  23  26
ATOM     26  C3  893 d   1      18.047 108.148  54.712  0.00  0.00    -0.004 A 
ATOM     27  C2  893 d   1      19.482 107.987  55.250  0.00  0.00     0.076 A 
ATOM     28  C1  893 d   1      20.093 109.277  55.836  0.00  0.00    -0.048 A 
ATOM     29  C6  893 d   1      19.351 110.474  55.853  0.00  0.00    -0.048 A 
ATOM     30  H1  893 d   1      21.100 109.262  56.237  0.00  0.00     0.087 H 
ATOM     31  C5  893 d   1      18.026 110.535  55.334  0.00  0.00     0.069 A 
ATOM     32  H3  893 d   1      19.798 111.369  56.270  0.00  0.00     0.087 H 
ATOM     33  C4  893 d   1      17.407 109.392  54.783  0.00  0.00    -0.040 A 
ATOM     34  H2  893 d   1      16.397 109.481  54.400  0.00  0.00     0.088 H 
BRANCH  27  35
ATOM     35  O27 893 d   1      20.127 106.749  55.185  0.00  0.00    -0.355 OA
BRANCH  35  36
ATOM     36  C28 893 d   1      21.178 106.643  54.253  0.00  0.00     0.010 C 
ATOM     37  H12 893 d   1      21.604 105.630  54.295  0.00  0.00     0.066 H 
ATOM     38  H13 893 d   1      21.959 107.379  54.495  0.00  0.00     0.066 H 
ATOM     39  H14 893 d   1      20.792 106.837  53.241  0.00  0.00     0.066 H 
ENDBRANCH  35  36
ENDBRANCH  27  35
BRANCH  31  40
ATOM     40  O22 893 d   1      17.269 111.706  55.340  0.00  0.00    -0.356 OA
BRANCH  40  41
ATOM     41  C23 893 d   1      17.538 112.601  54.262  0.00  0.00     0.010 C 
ATOM     42  H9  893 d   1      16.895 113.489  54.354  0.00  0.00     0.066 H 
ATOM     43  H10 893 d   1      17.332 112.097  53.306  0.00  0.00     0.066 H 
ATOM     44  H11 893 d   1      18.594 112.907  54.295  0.00  0.00     0.066 H 
ENDBRANCH  40  41
ENDBRANCH  31  40
ENDBRANCH  23  26
ENDBRANCH  20  23
ENDBRANCH   1  19
TORSDOF 10
