REMARK  29 active torsions:
REMARK  status: ('A' for Active; 'I' for Inactive)
REMARK    1  A    between atoms: CA_2  and  N_1 
REMARK    2  A    between atoms: CA_2  and  CB_5 
REMARK    3  A    between atoms: C_3  and  CA_2 
REMARK       I    between atoms: N_6  and  C_3 
REMARK    4  A    between atoms: CA_7  and  N_6 
REMARK    5  A    between atoms: CA_7  and  CB_10 
REMARK    6  A    between atoms: C_8  and  CA_7 
REMARK       I    between atoms: N_17  and  C_8 
REMARK    7  A    between atoms: CB_10  and  CG_11 
REMARK    8  A    between atoms: CG_11  and  CD_12 
REMARK    9  A    between atoms: CD_12  and  NE_13 
REMARK       I    between atoms: NE_13  and  CZ_14 
REMARK       I    between atoms: CZ_14  and  NH1_15 
REMARK   10  A    between atoms: CA_18  and  N_17 
REMARK   11  A    between atoms: CA_18  and  CB_21 
REMARK   12  A    between atoms: C_19  and  CA_18 
REMARK       I    between atoms: N_24  and  C_19 
REMARK   13  A    between atoms: CB_21  and  CG2_23 
REMARK   14  A    between atoms: CB_21  and  OG1_22 
REMARK   15  A    between atoms: CA_25  and  N_24 
REMARK   16  A    between atoms: CA_25  and  CB_28 
REMARK   17  A    between atoms: C_26  and  CA_25 
REMARK       I    between atoms: N_33  and  C_26 
REMARK   18  A    between atoms: CB_28  and  CG_29 
REMARK   19  A    between atoms: CG_29  and  CD_30 
REMARK   20  A    between atoms: CD_30  and  CE_31 
REMARK   21  A    between atoms: CE_31  and  NZ_32 
REMARK   22  A    between atoms: CA_34  and  N_33 
REMARK   23  A    between atoms: CA_34  and  CB_37 
REMARK   24  A    between atoms: C_35  and  CA_34 
REMARK       I    between atoms: C_35  and  N_42 
REMARK   25  A    between atoms: CB_37  and  CG_38 
REMARK   26  A    between atoms: CG_38  and  CD_39 
REMARK       I    between atoms: CD_39  and  NE2_41 
REMARK   27  A    between atoms: N_42  and  CA_43 
REMARK   28  A    between atoms: CA_43  and  C_44 
REMARK   29  A    between atoms: C_44  and  O1_46 
ROOT
ATOM      1  C   THR d   1      -7.666  -5.257  10.695  0.00  0.00     0.243 C 
ATOM      2  O   THR d   1      -8.695  -4.791  11.207  0.00  0.00    -0.271 OA
ATOM      3  N   LYS d   1      -6.735  -5.910  11.392  0.00  0.00    -0.346 N 
ATOM      4  H28 LYS d   1      -5.959  -6.306  10.901  0.00  0.00     0.163 HD
ENDROOT
BRANCH   1   5
ATOM      5  CA  THR d   1      -7.409  -5.110   9.183  0.00  0.00     0.113 C 
ATOM      6  H22 THR d   1      -7.457  -4.037   8.943  0.00  0.00     0.091 H 
BRANCH   5   7
ATOM      7  N   THR d   1      -6.094  -5.598   8.737  0.00  0.00    -0.344 N 
ATOM      8  C   ARG d   1      -4.956  -4.938   8.942  0.00  0.00     0.241 C 
ATOM      9  O   ARG d   1      -4.879  -3.910   9.611  0.00  0.00    -0.271 OA
ATOM     10  H21 THR d   1      -6.053  -6.473   8.254  0.00  0.00     0.163 HD
BRANCH   8  11
ATOM     11  CA  ARG d   1      -3.703  -5.554   8.315  0.00  0.00     0.089 C 
ATOM     12  H9  ARG d   1      -2.846  -5.322   8.964  0.00  0.00     0.087 H 
BRANCH  11  13
ATOM     13  N   ARG d   1      -3.803  -7.004   8.178  0.00  0.00    -0.346 N 
ATOM     14  C   ALA d   1      -4.160  -7.830   9.160  0.00  0.00     0.248 C 
ATOM     15  O   ALA d   1      -4.428  -7.456  10.306  0.00  0.00    -0.271 OA
ATOM     16  H8  ARG d   1      -3.589  -7.404   7.287  0.00  0.00     0.163 HD
BRANCH  14  17
ATOM     17  CA  ALA d   1      -4.193  -9.312   8.783  0.00  0.00     0.172 C 
ATOM     18  H4  ALA d   1      -3.204  -9.571   8.376  0.00  0.00     0.098 H 
BRANCH  17  19
ATOM     19  N   ALA d   1      -4.437 -10.186   9.961  0.00  0.00    -0.067 N 
ATOM     20  H1  ALA d   1      -4.451 -11.150   9.667  0.00  0.00     0.275 HD
ATOM     21  H2  ALA d   1      -5.324  -9.949  10.377  0.00  0.00     0.275 HD
ATOM     22  H3  ALA d   1      -3.702 -10.051  10.637  0.00  0.00     0.275 HD
ENDBRANCH  17  19
BRANCH  17  23
ATOM     23  CB  ALA d   1      -5.236  -9.581   7.688  0.00  0.00    -0.042 C 
ATOM     24  H5  ALA d   1      -5.040  -8.926   6.826  0.00  0.00     0.030 H 
ATOM     25  H6  ALA d   1      -6.242  -9.377   8.082  0.00  0.00     0.030 H 
ATOM     26  H7  ALA d   1      -5.173 -10.633   7.372  0.00  0.00     0.030 H 
ENDBRANCH  17  23
ENDBRANCH  14  17
ENDBRANCH  11  13
BRANCH  11  27
ATOM     27  CB  ARG d   1      -3.452  -4.955   6.926  0.00  0.00    -0.036 C 
ATOM     28  H10 ARG d   1      -4.311  -5.213   6.290  0.00  0.00     0.036 H 
ATOM     29  H11 ARG d   1      -2.542  -5.420   6.520  0.00  0.00     0.036 H 
BRANCH  27  30
ATOM     30  CG  ARG d   1      -3.268  -3.452   6.865  0.00  0.00    -0.048 C 
ATOM     31  H12 ARG d   1      -2.379  -3.171   7.448  0.00  0.00     0.035 H 
ATOM     32  H13 ARG d   1      -4.155  -2.960   7.289  0.00  0.00     0.035 H 
BRANCH  30  33
ATOM     33  CD  ARG d   1      -3.084  -2.999   5.408  0.00  0.00     0.009 C 
ATOM     34  H14 ARG d   1      -2.944  -1.908   5.393  0.00  0.00     0.064 H 
ATOM     35  H15 ARG d   1      -3.989  -3.261   4.840  0.00  0.00     0.064 H 
BRANCH  33  36
ATOM     36  NE  ARG d   1      -1.927  -3.630   4.765  0.00  0.00    -0.227 N 
ATOM     37  CZ  ARG d   1      -0.705  -3.098   4.713  0.00  0.00     0.665 C 
ATOM     38  NH2 ARG d   1      -0.456  -1.910   5.256  0.00  0.00    -0.235 N 
ATOM     39  NH1 ARG d   1       0.278  -3.753   4.100  0.00  0.00    -0.235 N 
ATOM     40  H19 ARG d   1      -1.209  -1.394   5.733  0.00  0.00     0.174 HD
ATOM     41  H20 ARG d   1       0.490  -1.506   5.200  0.00  0.00     0.174 HD
ATOM     42  H17 ARG d   1       1.222  -3.344   4.059  0.00  0.00     0.174 HD
ATOM     43  H18 ARG d   1       0.095  -4.669   3.667  0.00  0.00     0.174 HD
ATOM     44  H16 ARG d   1      -2.068  -4.549   4.322  0.00  0.00     0.177 HD
ENDBRANCH  33  36
ENDBRANCH  30  33
ENDBRANCH  27  30
ENDBRANCH  11  27
ENDBRANCH   8  11
ENDBRANCH   5   7
BRANCH   5  45
ATOM     45  CB  THR d   1      -8.529  -5.827   8.413  0.00  0.00     0.060 C 
ATOM     46  H23 THR d   1      -9.505  -5.492   8.794  0.00  0.00     0.086 H 
BRANCH  45  47
ATOM     47  CG2 THR d   1      -8.432  -5.513   6.929  0.00  0.00    -0.050 C 
ATOM     48  H25 THR d   1      -9.239  -6.032   6.391  0.00  0.00     0.031 H 
ATOM     49  H26 THR d   1      -7.458  -5.852   6.545  0.00  0.00     0.031 H 
ATOM     50  H27 THR d   1      -8.529  -4.428   6.777  0.00  0.00     0.031 H 
ENDBRANCH  45  47
BRANCH  45  51
ATOM     51  OG1 THR d   1      -8.399  -7.242   8.602  0.00  0.00    -0.393 OA
ATOM     52  H24 THR d   1      -8.459  -7.443   9.528  0.00  0.00     0.210 HD
ENDBRANCH  45  51
ENDBRANCH   5  45
ENDBRANCH   1   5
BRANCH   3  53
ATOM     53  CA  LYS d   1      -6.801  -6.072  12.848  0.00  0.00     0.089 C 
ATOM     54  H29 LYS d   1      -7.696  -5.553  13.223  0.00  0.00     0.087 H 
BRANCH  53  55
ATOM     55  CB  LYS d   1      -6.876  -7.544  13.238  0.00  0.00    -0.038 C 
ATOM     56  H30 LYS d   1      -6.714  -7.614  14.324  0.00  0.00     0.036 H 
ATOM     57  H31 LYS d   1      -6.068  -8.074  12.712  0.00  0.00     0.036 H 
BRANCH  55  58
ATOM     58  CG  LYS d   1      -8.173  -8.245  12.918  0.00  0.00    -0.061 C 
ATOM     59  H32 LYS d   1      -8.302  -8.304  11.827  0.00  0.00     0.033 H 
ATOM     60  H33 LYS d   1      -9.013  -7.687  13.357  0.00  0.00     0.033 H 
BRANCH  58  61
ATOM     61  CD  LYS d   1      -8.128  -9.649  13.505  0.00  0.00    -0.043 C 
ATOM     62  H34 LYS d   1      -8.467  -9.608  14.551  0.00  0.00     0.035 H 
ATOM     63  H35 LYS d   1      -7.091 -10.016  13.470  0.00  0.00     0.035 H 
BRANCH  61  64
ATOM     64  CE  LYS d   1      -9.009 -10.607  12.745  0.00  0.00     0.080 C 
ATOM     65  H36 LYS d   1      -8.757 -10.552  11.676  0.00  0.00     0.075 H 
ATOM     66  H37 LYS d   1     -10.060 -10.316  12.889  0.00  0.00     0.075 H 
BRANCH  64  67
ATOM     67  NZ  LYS d   1      -8.829 -12.008  13.211  0.00  0.00    -0.079 N 
ATOM     68  H38 LYS d   1      -9.432 -12.618  12.682  0.00  0.00     0.274 HD
ATOM     69  H39 LYS d   1      -9.064 -12.069  14.189  0.00  0.00     0.274 HD
ATOM     70  H40 LYS d   1      -7.869 -12.286  13.078  0.00  0.00     0.274 HD
ENDBRANCH  64  67
ENDBRANCH  61  64
ENDBRANCH  58  61
ENDBRANCH  55  58
ENDBRANCH  53  55
BRANCH  53  71
ATOM     71  C   LYS d   1      -5.564  -5.474  13.492  0.00  0.00     0.241 C 
ATOM     72  O   LYS d   1      -4.442  -5.654  12.996  0.00  0.00    -0.271 OA
ATOM     73  N   GLN d   1      -5.766  -4.795  14.616  0.00  0.00    -0.346 N 
ATOM     74  H41 GLN d   1      -6.692  -4.737  14.989  0.00  0.00     0.163 HD
BRANCH  73  75
ATOM     75  CA  GLN d   1      -4.674  -4.132  15.320  0.00  0.00     0.090 C 
ATOM     76  H42 GLN d   1      -4.141  -3.494  14.600  0.00  0.00     0.087 H 
BRANCH  75  77
ATOM     77  CB  GLN d   1      -5.227  -3.242  16.426  0.00  0.00    -0.030 C 
ATOM     78  H43 GLN d   1      -5.541  -3.884  17.263  0.00  0.00     0.037 H 
ATOM     79  H44 GLN d   1      -6.100  -2.701  16.032  0.00  0.00     0.037 H 
BRANCH  77  80
ATOM     80  CG  GLN d   1      -4.232  -2.225  16.951  0.00  0.00     0.011 C 
ATOM     81  H45 GLN d   1      -4.123  -1.422  16.207  0.00  0.00     0.047 H 
ATOM     82  H46 GLN d   1      -3.263  -2.723  17.098  0.00  0.00     0.047 H 
BRANCH  80  83
ATOM     83  CD  GLN d   1      -4.666  -1.614  18.263  0.00  0.00     0.215 C 
ATOM     84  NE2 GLN d   1      -5.971  -1.401  18.421  0.00  0.00    -0.370 N 
ATOM     85  H47 GLN d   1      -6.313  -0.999  19.270  0.00  0.00     0.159 HD
ATOM     86  H48 GLN d   1      -6.609  -1.643  17.690  0.00  0.00     0.159 HD
ATOM     87  OE1 GLN d   1      -3.836  -1.331  19.127  0.00  0.00    -0.274 OA
ENDBRANCH  80  83
ENDBRANCH  77  80
ENDBRANCH  75  77
BRANCH  75  88
ATOM     88  C   GLN d   1      -3.675  -5.141  15.885  0.00  0.00     0.240 C 
ATOM     89  O   GLN d   1      -4.060  -6.204  16.377  0.00  0.00    -0.271 OA
ATOM     90  N   THR d   1      -2.393  -4.802  15.786  0.00  0.00    -0.349 N 
ATOM     91  H49 THR d   1      -2.162  -3.913  15.391  0.00  0.00     0.163 HD
BRANCH  90  92
ATOM     92  CA  THR d   1      -1.306  -5.675  16.231  0.00  0.00     0.072 C 
ATOM     93  H50 THR d   1      -1.067  -6.392  15.432  0.00  0.00     0.080 H 
ATOM     94  H51 THR d   1      -1.625  -6.221  17.131  0.00  0.00     0.080 H 
BRANCH  92  95
ATOM     95  C   THR d   1      -0.061  -4.852  16.557  0.00  0.00     0.158 C 
ATOM     96  O   THR d   1       1.067  -5.340  16.441  0.00  0.00    -0.649 OA
BRANCH  95  97
ATOM     97  O1  THR d   1      -0.194  -3.595  16.971  0.00  0.00    -0.775 OA
ATOM     98  H52 THR d   1       0.251  -3.014  16.364  0.00  0.00     0.167 HD
ENDBRANCH  95  97
ENDBRANCH  92  95
ENDBRANCH  90  92
ENDBRANCH  75  88
ENDBRANCH  73  75
ENDBRANCH  53  71
ENDBRANCH   3  53
TORSDOF 29
