REMARK  24 active torsions:
REMARK  status: ('A' for Active; 'I' for Inactive)
REMARK    1  A    between atoms: CA_2  and  N_1 
REMARK    2  A    between atoms: CA_2  and  CB_5 
REMARK    3  A    between atoms: C_3  and  CA_2 
REMARK       I    between atoms: N_6  and  C_3 
REMARK    4  A    between atoms: CA_7  and  N_6 
REMARK    5  A    between atoms: CA_7  and  CB_10 
REMARK    6  A    between atoms: C_8  and  CA_7 
REMARK       I    between atoms: N_17  and  C_8 
REMARK    7  A    between atoms: CB_10  and  CG_11 
REMARK    8  A    between atoms: CG_11  and  CD_12 
REMARK    9  A    between atoms: CD_12  and  NE_13 
REMARK       I    between atoms: NE_13  and  CZ_14 
REMARK       I    between atoms: CZ_14  and  NH1_15 
REMARK   10  A    between atoms: CA_18  and  N_17 
REMARK   11  A    between atoms: CA_18  and  CB_21 
REMARK   12  A    between atoms: C_19  and  CA_18 
REMARK       I    between atoms: N_24  and  C_19 
REMARK   13  A    between atoms: CB_21  and  CG2_23 
REMARK   14  A    between atoms: CB_21  and  OG1_22 
REMARK   15  A    between atoms: CA_25  and  N_24 
REMARK   16  A    between atoms: CA_25  and  CB_26 
REMARK   17  A    between atoms: C_28  and  CA_25 
REMARK   18  A    between atoms: CB_26  and  CG_27 
REMARK       I    between atoms: C_28  and  N_30 
REMARK   19  A    between atoms: N_30  and  CA_31 
REMARK   20  A    between atoms: CA_31  and  CB_34 
REMARK   21  A    between atoms: CA_31  and  C_32 
REMARK   22  A    between atoms: C_32  and  O1_39 
REMARK   23  A    between atoms: CB_34  and  CG_35 
REMARK   24  A    between atoms: CG_35  and  CD_36 
REMARK       I    between atoms: CD_36  and  NE2_38 
ROOT
ATOM      1  CA  THR d   1       7.810   4.253   8.951  0.00  0.00     0.113 C 
ATOM      2  H22 THR d   1       7.802   3.195   8.649  0.00  0.00     0.091 H 
ENDROOT
BRANCH   1   3
ATOM      3  N   THR d   1       6.500   4.817   8.600  0.00  0.00    -0.344 N 
ATOM      4  C   ARG d   1       5.361   4.159   8.807  0.00  0.00     0.241 C 
ATOM      5  O   ARG d   1       5.296   3.087   9.397  0.00  0.00    -0.271 OA
ATOM      6  H21 THR d   1       6.462   5.729   8.191  0.00  0.00     0.163 HD
BRANCH   4   7
ATOM      7  CA  ARG d   1       4.106   4.828   8.289  0.00  0.00     0.089 C 
ATOM      8  H9  ARG d   1       3.250   4.440   8.860  0.00  0.00     0.087 H 
BRANCH   7   9
ATOM      9  N   ARG d   1       4.151   6.291   8.486  0.00  0.00    -0.346 N 
ATOM     10  C   ALA d   1       4.367   6.848   9.685  0.00  0.00     0.248 C 
ATOM     11  O   ALA d   1       4.675   6.211  10.679  0.00  0.00    -0.271 OA
ATOM     12  H8  ARG d   1       4.015   6.888   7.695  0.00  0.00     0.163 HD
BRANCH  10  13
ATOM     13  CA  ALA d   1       4.218   8.343   9.787  0.00  0.00     0.172 C 
ATOM     14  H4  ALA d   1       4.848   8.710  10.611  0.00  0.00     0.098 H 
BRANCH  13  15
ATOM     15  N   ALA d   1       4.675   8.956   8.531  0.00  0.00    -0.067 N 
ATOM     16  H1  ALA d   1       4.578   9.957   8.591  0.00  0.00     0.275 HD
ATOM     17  H2  ALA d   1       4.117   8.610   7.766  0.00  0.00     0.275 HD
ATOM     18  H3  ALA d   1       5.643   8.721   8.375  0.00  0.00     0.275 HD
ENDBRANCH  13  15
BRANCH  13  19
ATOM     19  CB  ALA d   1       2.729   8.721  10.091  0.00  0.00    -0.042 C 
ATOM     20  H5  ALA d   1       2.416   8.249  11.034  0.00  0.00     0.030 H 
ATOM     21  H6  ALA d   1       2.086   8.366   9.272  0.00  0.00     0.030 H 
ATOM     22  H7  ALA d   1       2.639   9.814  10.180  0.00  0.00     0.030 H 
ENDBRANCH  13  19
ENDBRANCH  10  13
ENDBRANCH   7   9
BRANCH   7  23
ATOM     23  CB  ARG d   1       3.900   4.456   6.803  0.00  0.00    -0.036 C 
ATOM     24  H10 ARG d   1       4.801   4.747   6.244  0.00  0.00     0.036 H 
ATOM     25  H11 ARG d   1       3.034   5.017   6.421  0.00  0.00     0.036 H 
BRANCH  23  26
ATOM     26  CG  ARG d   1       3.648   2.960   6.574  0.00  0.00    -0.048 C 
ATOM     27  H12 ARG d   1       2.741   2.675   7.127  0.00  0.00     0.035 H 
ATOM     28  H13 ARG d   1       4.509   2.401   6.969  0.00  0.00     0.035 H 
BRANCH  26  29
ATOM     29  CD  ARG d   1       3.455   2.566   5.095  0.00  0.00     0.009 C 
ATOM     30  H14 ARG d   1       3.379   1.470   5.035  0.00  0.00     0.064 H 
ATOM     31  H15 ARG d   1       4.335   2.904   4.528  0.00  0.00     0.064 H 
BRANCH  29  32
ATOM     32  NE  ARG d   1       2.258   3.147   4.481  0.00  0.00    -0.227 N 
ATOM     33  CZ  ARG d   1       1.044   2.608   4.546  0.00  0.00     0.665 C 
ATOM     34  NH2 ARG d   1       0.859   1.464   5.183  0.00  0.00    -0.235 N 
ATOM     35  NH1 ARG d   1       0.016   3.194   3.956  0.00  0.00    -0.235 N 
ATOM     36  H19 ARG d   1       1.652   0.998   5.646  0.00  0.00     0.174 HD
ATOM     37  H20 ARG d   1      -0.079   1.039   5.216  0.00  0.00     0.174 HD
ATOM     38  H17 ARG d   1      -0.921   2.769   4.012  0.00  0.00     0.174 HD
ATOM     39  H18 ARG d   1       0.152   4.075   3.441  0.00  0.00     0.174 HD
ATOM     40  H16 ARG d   1       2.364   4.032   3.965  0.00  0.00     0.177 HD
ENDBRANCH  29  32
ENDBRANCH  26  29
ENDBRANCH  23  26
ENDBRANCH   7  23
ENDBRANCH   4   7
ENDBRANCH   1   3
BRANCH   1  41
ATOM     41  CB  THR d   1       8.923   4.972   8.188  0.00  0.00     0.060 C 
ATOM     42  H23 THR d   1       9.861   4.410   8.310  0.00  0.00     0.086 H 
BRANCH  41  43
ATOM     43  CG2 THR d   1       8.594   5.064   6.692  0.00  0.00    -0.050 C 
ATOM     44  H25 THR d   1       9.409   5.585   6.169  0.00  0.00     0.031 H 
ATOM     45  H26 THR d   1       7.656   5.622   6.556  0.00  0.00     0.031 H 
ATOM     46  H27 THR d   1       8.481   4.051   6.279  0.00  0.00     0.031 H 
ENDBRANCH  41  43
BRANCH  41  47
ATOM     47  OG1 THR d   1       9.087   6.281   8.732  0.00  0.00    -0.393 OA
ATOM     48  H24 THR d   1       9.290   6.215   9.658  0.00  0.00     0.210 HD
ENDBRANCH  41  47
ENDBRANCH   1  41
BRANCH   1  49
ATOM     49  C   THR d   1       8.154   4.311  10.441  0.00  0.00     0.243 C 
ATOM     50  O   THR d   1       9.262   3.913  10.846  0.00  0.00    -0.271 OA
ATOM     51  N   MLZ d   1       7.210   4.837  11.235  0.00  0.00    -0.346 N 
ATOM     52  H28 MLZ d   1       6.393   5.214  10.798  0.00  0.00     0.163 HD
BRANCH  51  53
ATOM     53  CA  MLZ d   1       7.290   4.899  12.694  0.00  0.00     0.089 C 
ATOM     54  H29 MLZ d   1       8.119   4.267  13.045  0.00  0.00     0.087 H 
BRANCH  53  55
ATOM     55  CB  MLZ d   1       7.538   6.339  13.131  0.00  0.00    -0.041 C 
ATOM     56  H30 MLZ d   1       7.360   6.420  14.213  0.00  0.00     0.036 H 
ATOM     57  H31 MLZ d   1       6.842   7.000  12.595  0.00  0.00     0.036 H 
BRANCH  55  58
ATOM     58  CG  MLZ d   1       8.968   6.776  12.830  0.00  0.00    -0.074 C 
ATOM     59  H32 MLZ d   1       9.110   7.816  13.158  0.00  0.00     0.027 H 
ATOM     60  H33 MLZ d   1       9.153   6.704  11.748  0.00  0.00     0.027 H 
ATOM     61  H34 MLZ d   1       9.672   6.123  13.367  0.00  0.00     0.027 H 
ENDBRANCH  55  58
ENDBRANCH  53  55
BRANCH  53  62
ATOM     62  C   MLZ d   1       5.992   4.386  13.268  0.00  0.00     0.241 C 
ATOM     63  O   MLZ d   1       4.933   4.578  12.657  0.00  0.00    -0.271 OA
ATOM     64  N   GLN d   1       6.056   3.721  14.428  0.00  0.00    -0.345 N 
ATOM     65  H35 GLN d   1       6.944   3.631  14.880  0.00  0.00     0.163 HD
BRANCH  64  66
ATOM     66  CA  GLN d   1       4.869   3.114  15.070  0.00  0.00     0.093 C 
ATOM     67  H36 GLN d   1       4.189   2.831  14.253  0.00  0.00     0.089 H 
BRANCH  66  68
ATOM     68  CB  GLN d   1       5.244   1.822  15.821  0.00  0.00    -0.029 C 
ATOM     69  H37 GLN d   1       5.881   1.218  15.159  0.00  0.00     0.037 H 
ATOM     70  H38 GLN d   1       4.315   1.274  16.037  0.00  0.00     0.037 H 
BRANCH  68  71
ATOM     71  CG  GLN d   1       5.987   2.020  17.134  0.00  0.00     0.011 C 
ATOM     72  H39 GLN d   1       5.537   2.873  17.664  0.00  0.00     0.047 H 
ATOM     73  H40 GLN d   1       7.040   2.243  16.908  0.00  0.00     0.047 H 
BRANCH  71  74
ATOM     74  CD  GLN d   1       5.937   0.797  18.053  0.00  0.00     0.215 C 
ATOM     75  NE2 GLN d   1       4.727   0.292  18.338  0.00  0.00    -0.370 N 
ATOM     76  H41 GLN d   1       4.646  -0.507  18.934  0.00  0.00     0.159 HD
ATOM     77  H42 GLN d   1       3.906   0.714  17.954  0.00  0.00     0.159 HD
ATOM     78  OE1 GLN d   1       6.978   0.321  18.510  0.00  0.00    -0.274 OA
ENDBRANCH  71  74
ENDBRANCH  68  71
ENDBRANCH  66  68
BRANCH  66  79
ATOM     79  C   GLN d   1       4.073   4.049  15.993  0.00  0.00     0.163 C 
ATOM     80  O   GLN d   1       4.295   5.270  16.034  0.00  0.00    -0.648 OA
BRANCH  79  81
ATOM     81  O1  GLN d   1       3.121   3.537  16.768  0.00  0.00    -0.775 OA
ATOM     82  H43 GLN d   1       3.329   3.711  17.679  0.00  0.00     0.167 HD
ENDBRANCH  79  81
ENDBRANCH  66  79
ENDBRANCH  64  66
ENDBRANCH  53  62
ENDBRANCH  51  53
ENDBRANCH   1  49
TORSDOF 24
