REMARK  18 active torsions:
REMARK  status: ('A' for Active; 'I' for Inactive)
REMARK    1  A    between atoms: CA_2  and  N_1 
REMARK    2  A    between atoms: CA_2  and  CB_5 
REMARK    3  A    between atoms: C_3  and  CA_2 
REMARK       I    between atoms: N_6  and  C_3 
REMARK    4  A    between atoms: CA_7  and  N_6 
REMARK    5  A    between atoms: CA_7  and  CB_10 
REMARK    6  A    between atoms: C_8  and  CA_7 
REMARK       I    between atoms: N_17  and  C_8 
REMARK    7  A    between atoms: CB_10  and  CG_11 
REMARK    8  A    between atoms: CG_11  and  CD_12 
REMARK    9  A    between atoms: CD_12  and  NE_13 
REMARK       I    between atoms: NE_13  and  CZ_14 
REMARK       I    between atoms: CZ_14  and  NH1_15 
REMARK   10  A    between atoms: CA_18  and  N_17 
REMARK   11  A    between atoms: CA_18  and  CB_21 
REMARK   12  A    between atoms: C_19  and  CA_18 
REMARK       I    between atoms: C_19  and  N_24 
REMARK   13  A    between atoms: CB_21  and  CG2_23 
REMARK   14  A    between atoms: CB_21  and  OG1_22 
REMARK   15  A    between atoms: N_24  and  CA_25 
REMARK   16  A    between atoms: CA_25  and  CB_26 
REMARK   17  A    between atoms: CA_25  and  C_27 
REMARK   18  A    between atoms: C_27  and  O1_29 
ROOT
ATOM      1  CA  ARG d   1     -24.251  22.678   7.206  0.00  0.00     0.089 C 
ATOM      2  H9  ARG d   1     -23.913  22.461   6.182  0.00  0.00     0.087 H 
ENDROOT
BRANCH   1   3
ATOM      3  N   ARG d   1     -25.654  22.232   7.338  0.00  0.00    -0.346 N 
ATOM      4  C   ALA d   1     -26.011  20.946   7.456  0.00  0.00     0.248 C 
ATOM      5  O   ALA d   1     -25.210  19.999   7.384  0.00  0.00    -0.271 OA
ATOM      6  H8  ARG d   1     -26.374  22.926   7.339  0.00  0.00     0.163 HD
BRANCH   4   7
ATOM      7  CA  ALA d   1     -27.494  20.672   7.683  0.00  0.00     0.172 C 
ATOM      8  H4  ALA d   1     -27.593  19.662   8.107  0.00  0.00     0.098 H 
BRANCH   7   9
ATOM      9  N   ALA d   1     -28.088  21.643   8.672  0.00  0.00    -0.067 N 
ATOM     10  H1  ALA d   1     -29.066  21.436   8.800  0.00  0.00     0.275 HD
ATOM     11  H2  ALA d   1     -27.986  22.583   8.322  0.00  0.00     0.275 HD
ATOM     12  H3  ALA d   1     -27.609  21.559   9.555  0.00  0.00     0.275 HD
ENDBRANCH   7   9
BRANCH   7  13
ATOM     13  CB  ALA d   1     -28.238  20.697   6.335  0.00  0.00    -0.042 C 
ATOM     14  H5  ALA d   1     -27.773  19.976   5.646  0.00  0.00     0.030 H 
ATOM     15  H6  ALA d   1     -28.180  21.707   5.903  0.00  0.00     0.030 H 
ATOM     16  H7  ALA d   1     -29.292  20.426   6.493  0.00  0.00     0.030 H 
ENDBRANCH   7  13
ENDBRANCH   4   7
ENDBRANCH   1   3
BRANCH   1  17
ATOM     17  CB  ARG d   1     -24.156  24.194   7.452  0.00  0.00    -0.036 C 
ATOM     18  H10 ARG d   1     -24.359  24.385   8.516  0.00  0.00     0.036 H 
ATOM     19  H11 ARG d   1     -24.920  24.693   6.837  0.00  0.00     0.036 H 
BRANCH  17  20
ATOM     20  CG  ARG d   1     -22.812  24.788   7.112  0.00  0.00    -0.048 C 
ATOM     21  H12 ARG d   1     -22.587  24.574   6.057  0.00  0.00     0.035 H 
ATOM     22  H13 ARG d   1     -22.047  24.324   7.752  0.00  0.00     0.035 H 
BRANCH  20  23
ATOM     23  CD  ARG d   1     -22.781  26.276   7.322  0.00  0.00     0.009 C 
ATOM     24  H14 ARG d   1     -21.741  26.618   7.218  0.00  0.00     0.064 H 
ATOM     25  H15 ARG d   1     -23.137  26.488   8.341  0.00  0.00     0.064 H 
BRANCH  23  26
ATOM     26  NE  ARG d   1     -23.615  27.036   6.373  0.00  0.00    -0.227 N 
ATOM     27  CZ  ARG d   1     -23.174  27.535   5.223  0.00  0.00     0.665 C 
ATOM     28  NH2 ARG d   1     -21.902  27.327   4.854  0.00  0.00    -0.235 N 
ATOM     29  NH1 ARG d   1     -23.997  28.235   4.430  0.00  0.00    -0.235 N 
ATOM     30  H19 ARG d   1     -21.270  26.789   5.464  0.00  0.00     0.174 HD
ATOM     31  H20 ARG d   1     -21.557  27.705   3.960  0.00  0.00     0.174 HD
ATOM     32  H17 ARG d   1     -23.651  28.620   3.540  0.00  0.00     0.174 HD
ATOM     33  H18 ARG d   1     -24.976  28.388   4.711  0.00  0.00     0.174 HD
ATOM     34  H16 ARG d   1     -24.604  27.190   6.617  0.00  0.00     0.177 HD
ENDBRANCH  23  26
ENDBRANCH  20  23
ENDBRANCH  17  20
ENDBRANCH   1  17
BRANCH   1  35
ATOM     35  C   ARG d   1     -23.327  21.953   8.187  0.00  0.00     0.241 C 
ATOM     36  O   ARG d   1     -22.184  21.589   7.875  0.00  0.00    -0.271 OA
ATOM     37  N   THR d   1     -23.856  21.739   9.381  0.00  0.00    -0.344 N 
ATOM     38  H21 THR d   1     -24.815  21.983   9.524  0.00  0.00     0.163 HD
BRANCH  37  39
ATOM     39  CA  THR d   1     -23.118  21.169  10.494  0.00  0.00     0.113 C 
ATOM     40  H22 THR d   1     -22.102  21.589  10.480  0.00  0.00     0.091 H 
BRANCH  39  41
ATOM     41  CB  THR d   1     -23.797  21.575  11.815  0.00  0.00     0.060 C 
ATOM     42  H23 THR d   1     -23.170  21.246  12.656  0.00  0.00     0.086 H 
BRANCH  41  43
ATOM     43  CG2 THR d   1     -23.964  23.120  11.887  0.00  0.00    -0.050 C 
ATOM     44  H25 THR d   1     -24.450  23.392  12.835  0.00  0.00     0.031 H 
ATOM     45  H26 THR d   1     -24.585  23.461  11.046  0.00  0.00     0.031 H 
ATOM     46  H27 THR d   1     -22.975  23.599  11.831  0.00  0.00     0.031 H 
ENDBRANCH  41  43
BRANCH  41  47
ATOM     47  OG1 THR d   1     -25.075  20.935  11.906  0.00  0.00    -0.393 OA
ATOM     48  H24 THR d   1     -24.960  19.993  11.861  0.00  0.00     0.210 HD
ENDBRANCH  41  47
ENDBRANCH  39  41
BRANCH  39  49
ATOM     49  C   THR d   1     -22.996  19.636  10.401  0.00  0.00     0.243 C 
ATOM     50  O   THR d   1     -22.457  18.986  11.319  0.00  0.00    -0.271 OA
ATOM     51  N   M3L d   1     -23.503  19.069   9.303  0.00  0.00    -0.345 N 
ATOM     52  H28 M3L d   1     -23.996  19.641   8.648  0.00  0.00     0.163 HD
BRANCH  51  53
ATOM     53  CA  M3L d   1     -23.360  17.625   9.023  0.00  0.00     0.090 C 
ATOM     54  H29 M3L d   1     -22.849  17.169   9.884  0.00  0.00     0.088 H 
BRANCH  53  55
ATOM     55  CB  M3L d   1     -24.711  16.927   8.857  0.00  0.00    -0.048 C 
ATOM     56  H30 M3L d   1     -24.549  15.859   8.651  0.00  0.00     0.030 H 
ATOM     57  H31 M3L d   1     -25.259  17.383   8.019  0.00  0.00     0.030 H 
ATOM     58  H32 M3L d   1     -25.297  17.037   9.781  0.00  0.00     0.030 H 
ENDBRANCH  53  55
BRANCH  53  59
ATOM     59  C   M3L d   1     -22.510  17.395   7.799  0.00  0.00     0.163 C 
ATOM     60  O   M3L d   1     -22.580  18.162   6.822  0.00  0.00    -0.648 OA
BRANCH  59  61
ATOM     61  O1  M3L d   1     -21.676  16.360   7.763  0.00  0.00    -0.775 OA
ATOM     62  H33 M3L d   1     -21.907  15.793   7.037  0.00  0.00     0.167 HD
ENDBRANCH  59  61
ENDBRANCH  53  59
ENDBRANCH  51  53
ENDBRANCH  39  49
ENDBRANCH  37  39
ENDBRANCH   1  35
TORSDOF 18
