REMARK  18 active torsions:
REMARK  status: ('A' for Active; 'I' for Inactive)
REMARK    1  A    between atoms: S31_2  and  C22_5 
REMARK    2  A    between atoms: C11_7  and  S17_8 
REMARK    3  A    between atoms: C15_14  and  S21_15 
REMARK    4  A    between atoms: C3_22  and  N1_23 
REMARK       I    between atoms: N1_23  and  C2_24 
REMARK    5  A    between atoms: C2_24  and  C5_26 
REMARK    6  A    between atoms: C20_30  and  C27_31 
REMARK    7  A    between atoms: C13_32  and  N19_33 
REMARK       I    between atoms: N19_33  and  C26_34 
REMARK    8  A    between atoms: C26_34  and  C33_36 
REMARK    9  A    between atoms: C39_41  and  N41_42 
REMARK       I    between atoms: N41_42  and  C43_43 
REMARK       I    between atoms: C43_43  and  N44_45 
REMARK   10  A    between atoms: N44_45  and  C46_46 
REMARK   11  A    between atoms: C49_51  and  C51_52 
REMARK       I    between atoms: C51_52  and  N53_54 
REMARK   12  A    between atoms: N53_54  and  C55_55 
REMARK   13  A    between atoms: C57_57  and  C59_58 
REMARK   14  A    between atoms: C58_61  and  C61_62 
REMARK       I    between atoms: C61_62  and  N63_64 
REMARK   15  A    between atoms: N63_64  and  C65_65 
REMARK   16  A    between atoms: C71_68  and  S75_69 
REMARK   17  A    between atoms: C69_76  and  S73_77 
REMARK   18  A    between atoms: C76_82  and  S83_83 
ROOT
ATOM      1  N41 SVR d   1       5.786  10.577  -3.768  0.00  0.00    -0.309 N 
ATOM      2  C43 SVR d   1       5.953  11.410  -4.775  0.00  0.00     0.325 C 
ATOM      3  O45 SVR d   1       5.969  11.003  -5.933  0.00  0.00    -0.247 OA
ATOM      4  N44 SVR d   1       6.114  12.700  -4.416  0.00  0.00    -0.309 N 
ATOM      5  H   SVR d   1       5.809  10.988  -2.835  0.00  0.00     0.170 HD
ATOM      6  H   SVR d   1       6.121  12.930  -3.422  0.00  0.00     0.170 HD
ENDROOT
BRANCH   1   7
ATOM      7  C39 SVR d   1       5.581   9.192  -3.829  0.00  0.00     0.037 A 
ATOM      8  C37 SVR d   1       5.427   8.508  -2.626  0.00  0.00    -0.042 A 
ATOM      9  C33 SVR d   1       5.215   7.124  -2.629  0.00  0.00     0.034 A 
ATOM     10  H   SVR d   1       5.471   9.050  -1.681  0.00  0.00     0.088 H 
ATOM     11  C38 SVR d   1       5.110   6.392  -3.817  0.00  0.00    -0.068 A 
ATOM     12  C40 SVR d   1       5.240   7.083  -5.011  0.00  0.00    -0.080 A 
ATOM     13  H   SVR d   1       4.932   5.317  -3.804  0.00  0.00     0.085 H 
ATOM     14  C42 SVR d   1       5.480   8.474  -5.016  0.00  0.00    -0.057 A 
ATOM     15  H   SVR d   1       5.156   6.547  -5.956  0.00  0.00     0.083 H 
ATOM     16  H   SVR d   1       5.588   8.995  -5.967  0.00  0.00     0.086 H 
BRANCH   9  17
ATOM     17  C26 SVR d   1       5.064   6.476  -1.294  0.00  0.00     0.256 C 
ATOM     18  N19 SVR d   1       5.897   6.930  -0.367  0.00  0.00    -0.322 N 
ATOM     19  H   SVR d   1       6.588   7.633  -0.630  0.00  0.00     0.169 HD
ATOM     20  O32 SVR d   1       4.189   5.637  -1.105  0.00  0.00    -0.267 OA
BRANCH  18  21
ATOM     21  C13 SVR d   1       5.864   6.485   0.946  0.00  0.00     0.042 A 
ATOM     22  C8  SVR d   1       6.847   5.590   1.359  0.00  0.00    -0.041 A 
ATOM     23  C5  SVR d   1       6.860   5.158   2.675  0.00  0.00     0.034 A 
ATOM     24  H   SVR d   1       7.598   5.233   0.654  0.00  0.00     0.088 H 
ATOM     25  C9  SVR d   1       5.872   5.561   3.573  0.00  0.00    -0.067 A 
ATOM     26  C14 SVR d   1       4.903   6.470   3.162  0.00  0.00    -0.074 A 
ATOM     27  H   SVR d   1       5.859   5.167   4.589  0.00  0.00     0.085 H 
ATOM     28  C20 SVR d   1       4.886   6.935   1.844  0.00  0.00    -0.035 A 
ATOM     29  H   SVR d   1       4.153   6.821   3.871  0.00  0.00     0.084 H 
BRANCH  23  30
ATOM     30  C2  SVR d   1       7.899   4.177   3.076  0.00  0.00     0.256 C 
ATOM     31  N1  SVR d   1       8.212   4.073   4.380  0.00  0.00    -0.322 N 
ATOM     32  H   SVR d   1       7.796   4.783   4.983  0.00  0.00     0.169 HD
ATOM     33  O4  SVR d   1       8.390   3.529   2.169  0.00  0.00    -0.267 OA
BRANCH  31  34
ATOM     34  C3  SVR d   1       9.032   3.127   5.042  0.00  0.00     0.047 A 
ATOM     35  C7  SVR d   1       8.830   1.798   4.602  0.00  0.00    -0.055 A 
ATOM     36  C12 SVR d   1       9.478   0.727   5.180  0.00  0.00    -0.056 A 
ATOM     37  H   SVR d   1       8.139   1.615   3.779  0.00  0.00     0.087 H 
ATOM     38  C15 SVR d   1      10.353   0.916   6.261  0.00  0.00     0.091 A 
ATOM     39  H   SVR d   1       9.309  -0.278   4.793  0.00  0.00     0.086 H 
ATOM     40  C10 SVR d   1      10.549   2.255   6.736  0.00  0.00     0.004 A 
ATOM     41  C16 SVR d   1      11.408   2.452   7.807  0.00  0.00    -0.047 A 
ATOM     42  C6  SVR d   1       9.869   3.389   6.162  0.00  0.00     0.027 A 
ATOM     43  C22 SVR d   1      11.615   3.732   8.312  0.00  0.00     0.083 A 
ATOM     44  H   SVR d   1      11.922   1.602   8.254  0.00  0.00     0.087 H 
ATOM     45  C18 SVR d   1      10.965   4.825   7.750  0.00  0.00    -0.035 A 
ATOM     46  C11 SVR d   1      10.096   4.695   6.682  0.00  0.00     0.095 A 
ATOM     47  H   SVR d   1      11.146   5.817   8.165  0.00  0.00     0.088 H 
BRANCH  38  48
ATOM     48  S21 SVR d   1      11.132  -0.417   6.848  0.00  0.00     0.138 S 
ATOM     49  O28 SVR d   1      12.489  -0.436   6.211  0.00  0.00    -0.591 OA
ATOM     50  O29 SVR d   1      11.324  -0.422   8.320  0.00  0.00    -0.591 OA
ATOM     51  O30 SVR d   1      10.467  -1.667   6.383  0.00  0.00    -0.591 OA
ENDBRANCH  38  48
BRANCH  43  52
ATOM     52  S31 SVR d   1      12.597   3.927   9.577  0.00  0.00     0.137 S 
ATOM     53  O35 SVR d   1      13.376   2.686   9.738  0.00  0.00    -0.591 OA
ATOM     54  O36 SVR d   1      11.699   4.112  10.758  0.00  0.00    -0.591 OA
ATOM     55  O34 SVR d   1      13.515   5.081   9.441  0.00  0.00    -0.591 OA
ENDBRANCH  43  52
BRANCH  46  56
ATOM     56  S17 SVR d   1       9.504   6.093   6.096  0.00  0.00     0.138 S 
ATOM     57  O23 SVR d   1      10.254   7.263   6.571  0.00  0.00    -0.591 OA
ATOM     58  O24 SVR d   1       9.851   6.160   4.684  0.00  0.00    -0.591 OA
ATOM     59  O25 SVR d   1       8.048   6.294   6.288  0.00  0.00    -0.591 OA
ENDBRANCH  46  56
ENDBRANCH  31  34
ENDBRANCH  23  30
BRANCH  28  60
ATOM     60  C27 SVR d   1       3.813   7.879   1.406  0.00  0.00    -0.049 C 
ATOM     61  H   SVR d   1       4.268   8.801   1.043  0.00  0.00     0.033 H 
ATOM     62  H   SVR d   1       3.231   7.420   0.607  0.00  0.00     0.033 H 
ATOM     63  H   SVR d   1       3.160   8.102   2.250  0.00  0.00     0.033 H 
ENDBRANCH  28  60
ENDBRANCH  18  21
ENDBRANCH   9  17
ENDBRANCH   1   7
BRANCH   4  64
ATOM     64  C46 SVR d   1       6.275  13.755  -5.355  0.00  0.00     0.037 A 
ATOM     65  C47 SVR d   1       5.217  14.043  -6.235  0.00  0.00    -0.042 A 
ATOM     66  C49 SVR d   1       5.354  15.077  -7.157  0.00  0.00     0.034 A 
ATOM     67  H   SVR d   1       4.296  13.461  -6.196  0.00  0.00     0.088 H 
ATOM     68  C52 SVR d   1       6.524  15.838  -7.226  0.00  0.00    -0.068 A 
ATOM     69  C50 SVR d   1       7.569  15.524  -6.361  0.00  0.00    -0.080 A 
ATOM     70  H   SVR d   1       6.616  16.657  -7.939  0.00  0.00     0.085 H 
ATOM     71  C48 SVR d   1       7.441  14.517  -5.422  0.00  0.00    -0.057 A 
ATOM     72  H   SVR d   1       8.504  16.081  -6.425  0.00  0.00     0.083 H 
ATOM     73  H   SVR d   1       8.258  14.317  -4.729  0.00  0.00     0.086 H 
BRANCH  66  74
ATOM     74  C51 SVR d   1       4.257  15.404  -8.092  0.00  0.00     0.256 C 
ATOM     75  O54 SVR d   1       4.558  15.585  -9.261  0.00  0.00    -0.267 OA
ATOM     76  N53 SVR d   1       3.005  15.507  -7.667  0.00  0.00    -0.322 N 
ATOM     77  H   SVR d   1       2.769  15.354  -6.686  0.00  0.00     0.169 HD
BRANCH  76  78
ATOM     78  C55 SVR d   1       1.991  15.840  -8.627  0.00  0.00     0.042 A 
ATOM     79  C56 SVR d   1       1.884  17.137  -9.143  0.00  0.00    -0.041 A 
ATOM     80  C58 SVR d   1       0.915  17.430 -10.096  0.00  0.00     0.034 A 
ATOM     81  H   SVR d   1       2.561  17.918  -8.797  0.00  0.00     0.088 H 
ATOM     82  C62 SVR d   1       0.020  16.449 -10.508  0.00  0.00    -0.067 A 
ATOM     83  C60 SVR d   1       0.104  15.149  -9.976  0.00  0.00    -0.074 A 
ATOM     84  H   SVR d   1      -0.748  16.687 -11.244  0.00  0.00     0.085 H 
ATOM     85  C57 SVR d   1       1.099  14.846  -9.051  0.00  0.00    -0.035 A 
ATOM     86  H   SVR d   1      -0.607  14.383 -10.287  0.00  0.00     0.084 H 
BRANCH  80  87
ATOM     87  C61 SVR d   1       0.772  18.806 -10.684  0.00  0.00     0.256 C 
ATOM     88  O64 SVR d   1       0.112  18.902 -11.738  0.00  0.00    -0.267 OA
ATOM     89  N63 SVR d   1       1.389  19.844 -10.085  0.00  0.00    -0.322 N 
ATOM     90  H   SVR d   1       1.994  19.688  -9.279  0.00  0.00     0.169 HD
BRANCH  89  91
ATOM     91  C65 SVR d   1       1.192  21.125 -10.576  0.00  0.00     0.047 A 
ATOM     92  C67 SVR d   1       1.344  21.361 -11.923  0.00  0.00    -0.055 A 
ATOM     93  C70 SVR d   1       1.106  22.598 -12.482  0.00  0.00    -0.056 A 
ATOM     94  H   SVR d   1       1.663  20.543 -12.569  0.00  0.00     0.087 H 
ATOM     95  C71 SVR d   1       0.710  23.642 -11.654  0.00  0.00     0.091 A 
ATOM     96  H   SVR d   1       1.226  22.755 -13.554  0.00  0.00     0.086 H 
ATOM     97  C68 SVR d   1       0.546  23.421 -10.273  0.00  0.00     0.004 A 
ATOM     98  C66 SVR d   1       0.783  22.138  -9.698  0.00  0.00     0.027 A 
ATOM     99  C72 SVR d   1       0.119  24.466  -9.474  0.00  0.00    -0.047 A 
ATOM    100  C69 SVR d   1       0.582  21.931  -8.280  0.00  0.00     0.095 A 
ATOM    101  C74 SVR d   1       0.167  23.016  -7.517  0.00  0.00    -0.035 A 
ATOM    102  C76 SVR d   1      -0.052  24.256  -8.107  0.00  0.00     0.083 A 
ATOM    103  H   SVR d   1       0.012  22.894  -6.445  0.00  0.00     0.088 H 
ATOM    104  H   SVR d   1      -0.082  25.445  -9.909  0.00  0.00     0.087 H 
BRANCH  95 105
ATOM    105  S75 SVR d   1       0.482  25.089 -12.333  0.00  0.00     0.138 S 
ATOM    106  O80 SVR d   1       1.291  25.990 -11.503  0.00  0.00    -0.591 OA
ATOM    107  O81 SVR d   1       1.029  25.047 -13.718  0.00  0.00    -0.591 OA
ATOM    108  O82 SVR d   1      -0.964  25.482 -12.328  0.00  0.00    -0.591 OA
ENDBRANCH  95 105
BRANCH 100 109
ATOM    109  S73 SVR d   1       0.896  20.567  -7.426  0.00  0.00     0.138 S 
ATOM    110  O77 SVR d   1      -0.104  19.465  -7.321  0.00  0.00    -0.591 OA
ATOM    111  O78 SVR d   1       2.156  19.967  -7.928  0.00  0.00    -0.591 OA
ATOM    112  O79 SVR d   1       1.259  21.101  -6.095  0.00  0.00    -0.591 OA
ENDBRANCH 100 109
BRANCH 102 113
ATOM    113  S83 SVR d   1      -0.585  25.524  -7.257  0.00  0.00     0.137 S 
ATOM    114  O85 SVR d   1      -1.560  26.170  -8.186  0.00  0.00    -0.591 OA
ATOM    115  O86 SVR d   1      -1.318  25.064  -6.026  0.00  0.00    -0.591 OA
ATOM    116  O84 SVR d   1       0.539  26.485  -7.031  0.00  0.00    -0.591 OA
ENDBRANCH 102 113
ENDBRANCH  89  91
ENDBRANCH  80  87
BRANCH  85 117
ATOM    117  C59 SVR d   1       1.216  13.461  -8.466  0.00  0.00    -0.049 C 
ATOM    118  H   SVR d   1       0.294  13.211  -7.941  0.00  0.00     0.033 H 
ATOM    119  H   SVR d   1       1.385  12.742  -9.268  0.00  0.00     0.033 H 
ATOM    120  H   SVR d   1       2.053  13.432  -7.768  0.00  0.00     0.033 H 
ENDBRANCH  85 117
ENDBRANCH  76  78
ENDBRANCH  66  74
ENDBRANCH   4  64
TORSDOF 18
