REMARK  8 active torsions:
REMARK  status: ('A' for Active; 'I' for Inactive)
REMARK    1  A    between atoms: N1_1  and  C2_2 
REMARK    2  A    between atoms: N1_1  and  C8_8 
REMARK    3  A    between atoms: N1_1  and  C9_9 
REMARK    4  A    between atoms: N1_1  and  C10_10 
REMARK    5  A    between atoms: C2_2  and  C3_3 
REMARK    6  A    between atoms: C3_3  and  O4_4 
REMARK    7  A    between atoms: O4_4  and  C5_5 
REMARK    8  A    between atoms: C5_5  and  C6_7 
ROOT
ATOM      1  N1  ACH d   1      36.300  24.213   9.188  0.00  0.00    -0.077 N 
ENDROOT
BRANCH   1   2
ATOM      2  C2  ACH d   1      35.652  23.387   8.165  0.00  0.00     0.104 C 
ATOM      3  H1  ACH d   1      36.421  22.994   7.484  0.00  0.00     0.079 H 
ATOM      4  H2  ACH d   1      34.944  24.010   7.598  0.00  0.00     0.079 H 
BRANCH   2   5
ATOM      5  C3  ACH d   1      34.895  22.217   8.786  0.00  0.00     0.051 C 
ATOM      6  H3  ACH d   1      35.544  21.691   9.501  0.00  0.00     0.077 H 
ATOM      7  H4  ACH d   1      34.576  21.519   7.998  0.00  0.00     0.077 H 
BRANCH   5   8
ATOM      8  O4  ACH d   1      33.750  22.739   9.464  0.00  0.00    -0.320 OA
BRANCH   8   9
ATOM      9  C5  ACH d   1      32.463  22.071   9.420  0.00  0.00     0.254 C 
ATOM     10  O7  ACH d   1      32.416  20.940   8.975  0.00  0.00    -0.266 OA
BRANCH   9  11
ATOM     11  C6  ACH d   1      31.252  22.784   9.928  0.00  0.00     0.004 C 
ATOM     12  H5  ACH d   1      30.371  22.134   9.819  0.00  0.00     0.041 H 
ATOM     13  H6  ACH d   1      31.100  23.707   9.349  0.00  0.00     0.041 H 
ATOM     14  H7  ACH d   1      31.393  23.035  10.989  0.00  0.00     0.041 H 
ENDBRANCH   9  11
ENDBRANCH   8   9
ENDBRANCH   5   8
ENDBRANCH   2   5
ENDBRANCH   1   2
BRANCH   1  15
ATOM     15  C8  ACH d   1      35.432  25.342   9.562  0.00  0.00     0.067 C 
ATOM     16  H8  ACH d   1      35.932  25.951  10.329  0.00  0.00     0.068 H 
ATOM     17  H9  ACH d   1      34.482  24.957   9.961  0.00  0.00     0.068 H 
ATOM     18  H10 ACH d   1      35.233  25.961   8.675  0.00  0.00     0.068 H 
ENDBRANCH   1  15
BRANCH   1  19
ATOM     19  C9  ACH d   1      37.571  24.694   8.630  0.00  0.00     0.067 C 
ATOM     20  H11 ACH d   1      38.201  23.834   8.359  0.00  0.00     0.068 H 
ATOM     21  H12 ACH d   1      38.092  25.308   9.380  0.00  0.00     0.068 H 
ATOM     22  H13 ACH d   1      37.372  25.300   7.734  0.00  0.00     0.068 H 
ENDBRANCH   1  19
BRANCH   1  23
ATOM     23  C10 ACH d   1      36.576  23.429  10.395  0.00  0.00     0.067 C 
ATOM     24  H14 ACH d   1      35.629  23.064  10.820  0.00  0.00     0.068 H 
ATOM     25  H15 ACH d   1      37.090  24.062  11.134  0.00  0.00     0.068 H 
ATOM     26  H16 ACH d   1      37.216  22.572  10.137  0.00  0.00     0.068 H 
ENDBRANCH   1  23
TORSDOF 8
