REMARK  9 active torsions:
REMARK  status: ('A' for Active; 'I' for Inactive)
REMARK    1  A    between atoms: C22_3  and  O24_4 
REMARK    2  A    between atoms: O24_4  and  C25_5 
REMARK    3  A    between atoms: C25_5  and  C2_6 
REMARK    4  A    between atoms: C25_5  and  C1_7 
REMARK    5  A    between atoms: C19_10  and  C12_12 
REMARK    6  A    between atoms: C12_12  and  C11_13 
REMARK    7  A    between atoms: C11_13  and  C5_14 
REMARK    8  A    between atoms: C5_14  and  C17_16 
REMARK    9  A    between atoms: C7_25  and  O9_26 
ROOT
ATOM      1  C11 PFI d   1      41.192  13.124  55.809  0.00  0.00    -0.031 C 
ATOM      2  H13 PFI d   1      40.258  12.586  56.027  0.00  0.00     0.037 H 
ATOM      3  H14 PFI d   1      41.994  12.399  55.606  0.00  0.00     0.037 H 
ENDROOT
BRANCH   1   4
ATOM      4  C12 PFI d   1      41.592  13.951  57.090  0.00  0.00    -0.038 C 
ATOM      5  H11 PFI d   1      42.607  14.356  56.962  0.00  0.00     0.040 H 
ATOM      6  H12 PFI d   1      40.882  14.779  57.228  0.00  0.00     0.040 H 
BRANCH   4   7
ATOM      7  C19 PFI d   1      41.558  13.058  58.296  0.00  0.00    -0.055 A 
ATOM      8  C20 PFI d   1      42.774  12.558  58.821  0.00  0.00    -0.074 A 
ATOM      9  C21 PFI d   1      42.710  11.724  59.948  0.00  0.00    -0.047 A 
ATOM     10  H9  PFI d   1      43.725  12.811  58.367  0.00  0.00     0.084 H 
ATOM     11  C22 PFI d   1      41.480  11.384  60.574  0.00  0.00     0.107 A 
ATOM     12  H8  PFI d   1      43.632  11.325  60.356  0.00  0.00     0.087 H 
ATOM     13  C23 PFI d   1      40.265  11.905  60.046  0.00  0.00     0.150 A 
ATOM     14  F26 PFI d   1      39.111  11.586  60.642  0.00  0.00    -0.203 F 
ATOM     15  C18 PFI d   1      40.332  12.724  58.927  0.00  0.00    -0.037 A 
ATOM     16  H10 PFI d   1      39.411  13.124  58.519  0.00  0.00     0.089 H 
BRANCH  11  17
ATOM     17  O24 PFI d   1      41.439  10.591  61.678  0.00  0.00    -0.344 OA
BRANCH  17  18
ATOM     18  C25 PFI d   1      42.030  11.053  62.899  0.00  0.00     0.038 C 
ATOM     19  H1  PFI d   1      43.075  11.339  62.711  0.00  0.00     0.082 H 
BRANCH  18  20
ATOM     20  C2  PFI d   1      41.262  12.294  63.431  0.00  0.00    -0.052 C 
ATOM     21  H2  PFI d   1      41.725  12.638  64.367  0.00  0.00     0.030 H 
ATOM     22  H3  PFI d   1      40.213  12.023  63.619  0.00  0.00     0.030 H 
ATOM     23  H4  PFI d   1      41.304  13.100  62.683  0.00  0.00     0.030 H 
ENDBRANCH  18  20
BRANCH  18  24
ATOM     24  C1  PFI d   1      42.001   9.916  63.906  0.00  0.00    -0.052 C 
ATOM     25  H5  PFI d   1      42.451  10.252  64.852  0.00  0.00     0.030 H 
ATOM     26  H6  PFI d   1      42.571   9.062  63.511  0.00  0.00     0.030 H 
ATOM     27  H7  PFI d   1      40.959   9.610  64.084  0.00  0.00     0.030 H 
ENDBRANCH  18  24
ENDBRANCH  17  18
ENDBRANCH  11  17
ENDBRANCH   4   7
ENDBRANCH   1   4
BRANCH   1  28
ATOM     28  C5  PFI d   1      40.975  13.963  54.543  0.00  0.00     0.080 C 
ATOM     29  C6  PFI d   1      42.177  14.898  54.193  0.00  0.00     0.009 C 
ATOM     30  C7  PFI d   1      43.337  14.093  53.709  0.00  0.00     0.052 C 
ATOM     31  H15 PFI d   1      42.474  15.458  55.092  0.00  0.00     0.047 H 
ATOM     32  H16 PFI d   1      41.871  15.603  53.406  0.00  0.00     0.047 H 
ATOM     33  C8  PFI d   1      43.078  12.927  53.008  0.00  0.00     0.018 C 
ATOM     34  C3  PFI d   1      41.699  12.368  52.882  0.00  0.00     0.286 C 
ATOM     35  H26 PFI d   1      43.906  12.402  52.534  0.00  0.00     0.096 H 
ATOM     36  O4  PFI d   1      40.656  13.101  53.391  0.00  0.00    -0.306 OA
ATOM     37  O10 PFI d   1      41.512  11.279  52.338  0.00  0.00    -0.260 OA
BRANCH  30  38
ATOM     38  O9  PFI d   1      44.615  14.500  53.975  0.00  0.00    -0.365 OA
ATOM     39  H27 PFI d   1      44.592  15.316  54.462  0.00  0.00     0.217 HD
ENDBRANCH  30  38
BRANCH  28  40
ATOM     40  C17 PFI d   1      39.795  14.954  54.685  0.00  0.00    -0.023 C 
ATOM     41  C13 PFI d   1      38.435  14.343  55.108  0.00  0.00    -0.059 C 
ATOM     42  C14 PFI d   1      37.491  15.488  54.795  0.00  0.00    -0.065 C 
ATOM     43  H18 PFI d   1      38.422  14.090  56.178  0.00  0.00     0.033 H 
ATOM     44  H19 PFI d   1      38.193  13.448  54.517  0.00  0.00     0.033 H 
ATOM     45  C15 PFI d   1      38.160  16.472  53.818  0.00  0.00    -0.065 C 
ATOM     46  H24 PFI d   1      37.237  16.016  55.726  0.00  0.00     0.033 H 
ATOM     47  H25 PFI d   1      36.573  15.089  54.338  0.00  0.00     0.033 H 
ATOM     48  C16 PFI d   1      39.414  15.683  53.367  0.00  0.00    -0.059 C 
ATOM     49  H22 PFI d   1      37.502  16.697  52.965  0.00  0.00     0.033 H 
ATOM     50  H23 PFI d   1      38.438  17.409  54.323  0.00  0.00     0.033 H 
ATOM     51  H20 PFI d   1      39.175  14.969  52.565  0.00  0.00     0.033 H 
ATOM     52  H21 PFI d   1      40.216  16.357  53.032  0.00  0.00     0.033 H 
ATOM     53  H17 PFI d   1      40.100  15.697  55.436  0.00  0.00     0.044 H 
ENDBRANCH  28  40
ENDBRANCH   1  28
TORSDOF 9
