REMARK  4 active torsions:
REMARK  status: ('A' for Active; 'I' for Inactive)
REMARK    1  A    between atoms: N14_1  and  N5_2 
REMARK    2  A    between atoms: C1_3  and  S6_4 
REMARK    3  A    between atoms: C4_7  and  C7_8 
REMARK    4  A    between atoms: C8_13  and  C13_14 
ROOT
ATOM      1  C7  L13 d   1      12.988  28.221  28.797  0.00  0.00     0.019 A 
ATOM      2  C12 L13 d   1      12.379  28.577  27.586  0.00  0.00    -0.069 A 
ATOM      3  C11 L13 d   1      12.130  27.621  26.605  0.00  0.00    -0.082 A 
ATOM      4  C10 L13 d   1      12.488  26.297  26.870  0.00  0.00    -0.082 A 
ATOM      5  C9  L13 d   1      13.077  25.939  28.088  0.00  0.00    -0.076 A 
ATOM      6  C8  L13 d   1      13.325  26.905  29.071  0.00  0.00    -0.048 A 
ATOM      7  H4  L13 d   1      12.098  29.609  27.411  0.00  0.00     0.085 H 
ATOM      8  H5  L13 d   1      11.671  27.896  25.662  0.00  0.00     0.083 H 
ATOM      9  H6  L13 d   1      12.307  25.535  26.121  0.00  0.00     0.083 H 
ATOM     10  H7  L13 d   1      13.344  24.905  28.272  0.00  0.00     0.084 H 
ENDROOT
BRANCH   1  11
ATOM     11  C4  L13 d   1      13.158  29.337  29.759  0.00  0.00     0.183 A 
ATOM     12  N5  L13 d   1      12.248  29.667  30.662  0.00  0.00    -0.217 N 
ATOM     13  C1  L13 d   1      12.646  30.723  31.358  0.00  0.00     0.207 A 
ATOM     14  N2  L13 d   1      13.839  31.148  30.924  0.00  0.00    -0.121 NA
ATOM     15  N3  L13 d   1      14.167  30.250  29.874  0.00  0.00    -0.127 NA
BRANCH  12  16
ATOM     16  N14 L13 d   1      11.115  28.982  30.813  0.00  0.00    -0.335 N 
ATOM     17  H1  L13 d   1      10.431  29.270  31.527  0.00  0.00     0.177 HD
ATOM     18  H2  L13 d   1      10.924  28.165  30.216  0.00  0.00     0.177 HD
ENDBRANCH  12  16
BRANCH  13  19
ATOM     19  S6  L13 d   1      11.767  31.553  32.642  0.00  0.00    -0.102 SA
ATOM     20  H3  L13 d   1      10.894  31.903  32.278  0.00  0.00     0.110 HD
ENDBRANCH  13  19
ENDBRANCH   1  11
BRANCH   6  21
ATOM     21  C13 L13 d   1      13.962  26.502  30.382  0.00  0.00    -0.050 C 
ATOM     22  H8  L13 d   1      14.077  27.389  31.022  0.00  0.00     0.033 H 
ATOM     23  H9  L13 d   1      14.950  26.059  30.189  0.00  0.00     0.033 H 
ATOM     24  H10 L13 d   1      13.322  25.765  30.889  0.00  0.00     0.033 H 
ENDBRANCH   6  21
TORSDOF 4
