REMARK  5 active torsions:
REMARK  status: ('A' for Active; 'I' for Inactive)
REMARK    1  A    between atoms: N3_6  and  C11_13 
REMARK    2  A    between atoms: N1_8  and  C10_12 
REMARK    3  A    between atoms: C11_13  and  C12_14 
REMARK    4  A    between atoms: C12_14  and  C14_16 
REMARK    5  A    between atoms: C12_14  and  C13_15 
ROOT
ATOM      1  N9  IBM d   1      75.240  51.913  40.798  0.00  0.00    -0.224 NA
ATOM      2  C8  IBM d   1      74.320  52.713  41.438  0.00  0.00     0.067 A 
ATOM      3  N7  IBM d   1      74.517  52.815  42.730  0.00  0.00    -0.343 N 
ATOM      4  C5  IBM d   1      75.637  52.026  42.959  0.00  0.00     0.149 A 
ATOM      5  C4  IBM d   1      76.096  51.465  41.782  0.00  0.00     0.167 A 
ATOM      6  N3  IBM d   1      77.162  50.643  41.622  0.00  0.00    -0.281 N 
ATOM      7  C2  IBM d   1      77.855  50.379  42.772  0.00  0.00     0.333 A 
ATOM      8  N1  IBM d   1      77.462  50.893  44.011  0.00  0.00    -0.269 N 
ATOM      9  C6  IBM d   1      76.352  51.710  44.113  0.00  0.00     0.281 A 
ATOM     10  O6  IBM d   1      75.992  52.147  45.210  0.00  0.00    -0.265 OA
ATOM     11  O2  IBM d   1      78.850  49.662  42.717  0.00  0.00    -0.246 OA
ATOM     12  H1  IBM d   1      73.504  53.214  40.919  0.00  0.00     0.143 H 
ATOM     13  H2  IBM d   1      73.969  53.354  43.415  0.00  0.00     0.167 HD
ENDROOT
BRANCH   6  14
ATOM     14  C11 IBM d   1      77.514  50.046  40.335  0.00  0.00     0.009 C 
ATOM     15  H6  IBM d   1      76.615  49.988  39.704  0.00  0.00     0.065 H 
ATOM     16  H7  IBM d   1      77.912  49.034  40.501  0.00  0.00     0.065 H 
BRANCH  14  17
ATOM     17  C12 IBM d   1      78.575  50.898  39.628  0.00  0.00    -0.045 C 
ATOM     18  H8  IBM d   1      78.401  51.952  39.892  0.00  0.00     0.041 H 
BRANCH  17  19
ATOM     19  C14 IBM d   1      79.994  50.528  40.058  0.00  0.00    -0.072 C 
ATOM     20  H12 IBM d   1      80.088  50.642  41.148  0.00  0.00     0.028 H 
ATOM     21  H13 IBM d   1      80.714  51.191  39.556  0.00  0.00     0.028 H 
ATOM     22  H14 IBM d   1      80.201  49.484  39.779  0.00  0.00     0.028 H 
ENDBRANCH  17  19
BRANCH  17  23
ATOM     23  C13 IBM d   1      78.432  50.743  38.113  0.00  0.00    -0.072 C 
ATOM     24  H9  IBM d   1      79.194  51.355  37.608  0.00  0.00     0.028 H 
ATOM     25  H10 IBM d   1      77.430  51.076  37.803  0.00  0.00     0.028 H 
ATOM     26  H11 IBM d   1      78.569  49.687  37.838  0.00  0.00     0.028 H 
ENDBRANCH  17  23
ENDBRANCH  14  17
ENDBRANCH   6  14
BRANCH   8  27
ATOM     27  C10 IBM d   1      78.226  50.559  45.203  0.00  0.00    -0.007 C 
ATOM     28  H3  IBM d   1      79.067  49.905  44.928  0.00  0.00     0.057 H 
ATOM     29  H4  IBM d   1      77.576  50.038  45.922  0.00  0.00     0.057 H 
ATOM     30  H5  IBM d   1      78.614  51.481  45.660  0.00  0.00     0.057 H 
ENDBRANCH   8  27
TORSDOF 5
