REMARK  5 active torsions:
REMARK  status: ('A' for Active; 'I' for Inactive)
REMARK    1  A    between atoms: N1_1  and  S1_2 
REMARK    2  A    between atoms: S1_2  and  C1_5 
REMARK    3  A    between atoms: C4_8  and  N2_11 
REMARK       I    between atoms: N2_11  and  C7_12 
REMARK    4  A    between atoms: C7_12  and  C8_14 
REMARK    5  A    between atoms: C13_19  and  S2_20 
ROOT
ATOM      1  C1  BOS d   1      -5.240   2.182  15.772  0.00  0.00     0.079 A 
ATOM      2  C2  BOS d   1      -3.879   2.165  15.410  0.00  0.00    -0.058 A 
ATOM      3  C3  BOS d   1      -3.329   3.245  14.696  0.00  0.00    -0.056 A 
ATOM      4  C4  BOS d   1      -4.141   4.363  14.334  0.00  0.00     0.035 A 
ATOM      5  C5  BOS d   1      -5.512   4.362  14.706  0.00  0.00    -0.056 A 
ATOM      6  C6  BOS d   1      -6.056   3.278  15.420  0.00  0.00    -0.058 A 
ATOM      7  H3  BOS d   1      -3.256   1.321  15.681  0.00  0.00     0.086 H 
ATOM      8  H4  BOS d   1      -2.281   3.229  14.418  0.00  0.00     0.087 H 
ATOM      9  H5  BOS d   1      -6.143   5.202  14.438  0.00  0.00     0.087 H 
ATOM     10  H6  BOS d   1      -7.103   3.285  15.700  0.00  0.00     0.086 H 
ENDROOT
BRANCH   4  11
ATOM     11  N2  BOS d   1      -3.623   5.480  13.619  0.00  0.00    -0.323 N 
ATOM     12  C7  BOS d   1      -2.349   5.770  13.194  0.00  0.00     0.257 C 
ATOM     13  O3  BOS d   1      -1.365   5.069  13.365  0.00  0.00    -0.267 OA
ATOM     14  H7  BOS d   1      -4.304   6.174  13.386  0.00  0.00     0.169 HD
BRANCH  12  15
ATOM     15  C8  BOS d   1      -2.257   7.088  12.468  0.00  0.00     0.048 A 
ATOM     16  C9  BOS d   1      -1.567   8.147  13.111  0.00  0.00    -0.066 A 
ATOM     17  C10 BOS d   1      -1.439   9.405  12.500  0.00  0.00    -0.082 A 
ATOM     18  H8  BOS d   1      -1.131   7.983  14.090  0.00  0.00     0.085 H 
ATOM     19  C11 BOS d   1      -1.999   9.643  11.220  0.00  0.00    -0.082 A 
ATOM     20  H9  BOS d   1      -0.908  10.200  13.011  0.00  0.00     0.083 H 
ATOM     21  C12 BOS d   1      -2.689   8.606  10.561  0.00  0.00    -0.066 A 
ATOM     22  H10 BOS d   1      -1.897  10.615  10.752  0.00  0.00     0.083 H 
ATOM     23  C13 BOS d   1      -2.833   7.323  11.161  0.00  0.00     0.013 A 
ATOM     24  H11 BOS d   1      -3.117   8.788   9.582  0.00  0.00     0.085 H 
BRANCH  23  25
ATOM     25  S2  BOS d   1      -3.722   6.014  10.297  0.00  0.00    -0.142 SA
ATOM     26  H12 BOS d   1      -3.265   5.822   9.419  0.00  0.00     0.107 HD
ENDBRANCH  23  25
ENDBRANCH  12  15
ENDBRANCH   4  11
BRANCH   1  27
ATOM     27  S1  BOS d   1      -5.914   0.842  16.672  0.00  0.00     0.256 S 
ATOM     28  O1  BOS d   1      -5.360   0.859  17.997  0.00  0.00    -0.201 OA
ATOM     29  O2  BOS d   1      -7.328   0.826  16.534  0.00  0.00    -0.201 OA
BRANCH  27  30
ATOM     30  N1  BOS d   1      -5.340  -0.536  15.986  0.00  0.00    -0.324 N 
ATOM     31  H1  BOS d   1      -4.357  -0.719  15.978  0.00  0.00     0.169 HD
ATOM     32  H2  BOS d   1      -5.974  -1.192  15.576  0.00  0.00     0.169 HD
ENDBRANCH  27  30
ENDBRANCH   1  27
TORSDOF 5
