REMARK  1 active torsions:
REMARK  status: ('A' for Active; 'I' for Inactive)
REMARK    1  A    between atoms: C6_2  and  C4_4 
ROOT
ATOM      1  C4  C21 d   1      29.199   9.933  21.181  0.00  0.00     0.081 A 
ATOM      2  S5  C21 d   1      28.128  11.251  20.823  0.00  0.00    -0.095 SA
ATOM      3  C3  C21 d   1      28.619   8.728  20.778  0.00  0.00    -0.059 A 
ATOM      4  C2  C21 d   1      27.350   8.893  20.210  0.00  0.00    -0.075 A 
ATOM      5  C1  C21 d   1      26.938  10.212  20.137  0.00  0.00    -0.044 A 
ATOM      6  H1  C21 d   1      29.104   7.760  20.894  0.00  0.00     0.086 H 
ATOM      7  H2  C21 d   1      26.743   8.060  19.858  0.00  0.00     0.084 H 
ATOM      8  H3  C21 d   1      25.995  10.546  19.707  0.00  0.00     0.095 H 
ENDROOT
BRANCH   1   9
ATOM      9  C6  C21 d   1      30.512  10.272  21.827  0.00  0.00     0.216 C 
ATOM     10  O8  C21 d   1      30.832  11.457  22.107  0.00  0.00    -0.644 OA
ATOM     11  O7  C21 d   1      31.279   9.335  22.092  0.00  0.00    -0.644 OA
ENDBRANCH   1   9
TORSDOF 1
