REMARK  4 active torsions:
REMARK  status: ('A' for Active; 'I' for Inactive)
REMARK    1  A    between atoms: C5_2  and  C6_6 
REMARK    2  A    between atoms: C2_4  and  N1_3 
REMARK    3  A    between atoms: N1_3  and  S11_12 
REMARK    4  A    between atoms: S11_12  and  C12_8 
ROOT
ATOM      1  C3  4MB d   1      27.390   9.142  20.184  0.00  0.00    -0.056 A 
ATOM      2  C5  4MB d   1      29.265  10.348  21.053  0.00  0.00     0.041 A 
ATOM      3  C2  4MB d   1      26.858  10.281  19.660  0.00  0.00     0.042 A 
ATOM      4  C4  4MB d   1      28.612   9.176  20.846  0.00  0.00    -0.064 A 
ATOM      5  C9  4MB d   1      28.715  11.538  20.523  0.00  0.00    -0.064 A 
ATOM      6  C10 4MB d   1      27.535  11.498  19.796  0.00  0.00    -0.056 A 
ATOM      7  H1  4MB d   1      26.857   8.203  20.084  0.00  0.00     0.087 H 
ATOM      8  H3  4MB d   1      29.051   8.251  21.203  0.00  0.00     0.085 H 
ATOM      9  H4  4MB d   1      29.218  12.485  20.686  0.00  0.00     0.085 H 
ATOM     10  H8  4MB d   1      27.142  12.399  19.338  0.00  0.00     0.087 H 
ENDROOT
BRANCH   3  11
ATOM     11  N1  4MB d   1      25.657  10.209  18.964  0.00  0.00    -0.285 N 
ATOM     12  H2  4MB d   1      25.365   9.302  18.661  0.00  0.00     0.178 HD
BRANCH  11  13
ATOM     13  S11 4MB d   1      24.695  11.438  18.599  0.00  0.00     0.227 S 
ATOM     14  O14 4MB d   1      25.420  12.465  17.924  0.00  0.00    -0.206 OA
ATOM     15  O13 4MB d   1      23.557  10.878  17.900  0.00  0.00    -0.206 OA
BRANCH  13  16
ATOM     16  C12 4MB d   1      24.178  12.127  20.094  0.00  0.00     0.033 C 
ATOM     17  H5  4MB d   1      23.512  12.979  19.894  0.00  0.00     0.051 H 
ATOM     18  H6  4MB d   1      25.055  12.473  20.661  0.00  0.00     0.051 H 
ATOM     19  H7  4MB d   1      23.638  11.369  20.680  0.00  0.00     0.051 H 
ENDBRANCH  13  16
ENDBRANCH  11  13
ENDBRANCH   3  11
BRANCH   2  20
ATOM     20  C6  4MB d   1      30.554  10.458  21.780  0.00  0.00     0.209 C 
ATOM     21  O7  4MB d   1      31.189   9.381  22.013  0.00  0.00    -0.644 OA
ATOM     22  O8  4MB d   1      31.012  11.581  22.126  0.00  0.00    -0.644 OA
ENDBRANCH   2  20
TORSDOF 4
