REMARK  3 active torsions:
REMARK  status: ('A' for Active; 'I' for Inactive)
REMARK    1  A    between atoms: C7_2  and  C3_4 
REMARK    2  A    between atoms: C2_8  and  N1_9 
REMARK       I    between atoms: N1_9  and  C13_10 
REMARK    3  A    between atoms: C13_10  and  C12_12 
ROOT
ATOM      1  C3  NON d   1      20.007   6.543  15.358  0.00  0.00     0.075 A 
ATOM      2  C4  NON d   1      18.673   6.959  15.262  0.00  0.00    -0.057 A 
ATOM      3  C5  NON d   1      18.090   6.818  14.006  0.00  0.00    -0.042 A 
ATOM      4  S6  NON d   1      19.203   6.169  12.864  0.00  0.00    -0.083 SA
ATOM      5  C2  NON d   1      20.454   6.051  14.027  0.00  0.00     0.093 A 
ATOM      6  H1  NON d   1      18.128   7.365  16.113  0.00  0.00     0.086 H 
ATOM      7  H2  NON d   1      17.060   7.085  13.775  0.00  0.00     0.095 H 
ENDROOT
BRANCH   5   8
ATOM      8  N1  NON d   1      21.686   5.573  13.741  0.00  0.00    -0.321 N 
ATOM      9  C13 NON d   1      22.082   5.127  12.540  0.00  0.00     0.218 C 
ATOM     10  O14 NON d   1      21.380   5.092  11.545  0.00  0.00    -0.274 OA
ATOM     11  H3  NON d   1      22.355   5.550  14.484  0.00  0.00     0.169 HD
BRANCH   9  12
ATOM     12  C12 NON d   1      23.496   4.636  12.492  0.00  0.00    -0.003 C 
ATOM     13  H4  NON d   1      23.730   4.292  11.474  0.00  0.00     0.040 H 
ATOM     14  H5  NON d   1      23.619   3.801  13.198  0.00  0.00     0.040 H 
ATOM     15  H6  NON d   1      24.178   5.454  12.769  0.00  0.00     0.040 H 
ENDBRANCH   9  12
ENDBRANCH   5   8
BRANCH   1  16
ATOM     16  C7  NON d   1      20.794   6.622  16.631  0.00  0.00     0.212 C 
ATOM     17  O9  NON d   1      21.994   6.238  16.628  0.00  0.00    -0.644 OA
ATOM     18  O8  NON d   1      20.193   7.082  17.643  0.00  0.00    -0.644 OA
ENDBRANCH   1  16
TORSDOF 3
