REMARK  11 active torsions:
REMARK  status: ('A' for Active; 'I' for Inactive)
REMARK    1  A    between atoms: O3B_2  and  PG_1 
REMARK    2  A    between atoms: PG_1  and  S1G_3 
REMARK    3  A    between atoms: PB_6  and  O3B_2 
REMARK    4  A    between atoms: O3A_12  and  PB_6 
REMARK    5  A    between atoms: PA_9  and  O3A_12 
REMARK    6  A    between atoms: PA_9  and  O5_13 
REMARK    7  A    between atoms: O5_13  and  C5_14 
REMARK    8  A    between atoms: C5_14  and  C4_15 
REMARK    9  A    between atoms: C3_17  and  O3_18 
REMARK   10  A    between atoms: C2_19  and  O2_20 
REMARK   11  A    between atoms: C1_21  and  N9_22 
ROOT
ATOM      1  C4  GSP d   1      -5.654  19.359 -31.576  0.00  0.00     0.089 C 
ATOM      2  O4  GSP d   1      -4.438  19.010 -32.208  0.00  0.00    -0.353 OA
ATOM      3  C3  GSP d   1      -6.748  18.971 -32.561  0.00  0.00     0.091 C 
ATOM      4  C2  GSP d   1      -6.092  17.960 -33.480  0.00  0.00     0.105 C 
ATOM      5  C1  GSP d   1      -4.671  18.474 -33.506  0.00  0.00     0.139 C 
ATOM      6  H4  GSP d   1      -5.689  20.445 -31.408  0.00  0.00     0.090 H 
ATOM      7  H5  GSP d   1      -7.641  18.557 -32.069  0.00  0.00     0.091 H 
ATOM      8  H7  GSP d   1      -6.152  16.944 -33.063  0.00  0.00     0.093 H 
ATOM      9  H9  GSP d   1      -4.591  19.256 -34.276  0.00  0.00     0.122 H 
ENDROOT
BRANCH   1  10
ATOM     10  C5  GSP d   1      -5.770  18.664 -30.223  0.00  0.00     0.058 C 
ATOM     11  H2  GSP d   1      -4.846  18.824 -29.648  0.00  0.00     0.079 H 
ATOM     12  H3  GSP d   1      -6.624  19.081 -29.669  0.00  0.00     0.079 H 
BRANCH  10  13
ATOM     13  O5  GSP d   1      -5.968  17.277 -30.422  0.00  0.00    -0.287 OA
BRANCH  13  14
ATOM     14  PA  GSP d   1      -6.711  16.380 -29.324  0.00  0.00     0.417 P 
ATOM     15  O1A GSP d   1      -6.733  14.974 -29.792  0.00  0.00    -0.624 OA
ATOM     16  O2A GSP d   1      -8.064  16.882 -28.980  0.00  0.00    -0.624 OA
BRANCH  14  17
ATOM     17  O3A GSP d   1      -5.717  16.584 -28.077  0.00  0.00    -0.180 OA
BRANCH  17  18
ATOM     18  PB  GSP d   1      -5.968  16.076 -26.576  0.00  0.00     0.426 P 
ATOM     19  O1B GSP d   1      -4.635  15.770 -26.022  0.00  0.00    -0.624 OA
ATOM     20  O2B GSP d   1      -6.880  14.911 -26.508  0.00  0.00    -0.624 OA
BRANCH  18  21
ATOM     21  O3B GSP d   1      -6.581  17.394 -25.874  0.00  0.00    -0.195 OA
BRANCH  21  22
ATOM     22  PG  GSP d   1      -7.362  17.442 -24.469  0.00  0.00     0.322 P 
ATOM     23  O2G GSP d   1      -8.317  18.655 -24.517  0.00  0.00    -0.638 OA
ATOM     24  O3G GSP d   1      -8.138  16.135 -24.240  0.00  0.00    -0.638 OA
BRANCH  22  25
ATOM     25  S1G GSP d   1      -6.264  17.669 -23.178  0.00  0.00    -0.054 SA
ATOM     26  H1  GSP d   1      -6.772  17.696 -22.308  0.00  0.00     0.114 HD
ENDBRANCH  22  25
ENDBRANCH  21  22
ENDBRANCH  18  21
ENDBRANCH  17  18
ENDBRANCH  14  17
ENDBRANCH  13  14
ENDBRANCH  10  13
ENDBRANCH   1  10
BRANCH   3  27
ATOM     27  O3  GSP d   1      -7.043  20.157 -33.265  0.00  0.00    -0.390 OA
ATOM     28  H6  GSP d   1      -7.340  20.821 -32.654  0.00  0.00     0.210 HD
ENDBRANCH   3  27
BRANCH   5  29
ATOM     29  N9  GSP d   1      -3.610  17.483 -33.731  0.00  0.00    -0.293 N 
ATOM     30  C8  GSP d   1      -3.342  16.361 -32.984  0.00  0.00     0.071 A 
ATOM     31  N7  GSP d   1      -2.241  15.773 -33.505  0.00  0.00    -0.234 NA
ATOM     32  H10 GSP d   1      -3.913  16.009 -32.127  0.00  0.00     0.144 H 
ATOM     33  C5  GSP d   1      -1.800  16.512 -34.552  0.00  0.00     0.173 A 
ATOM     34  C6  GSP d   1      -0.723  16.375 -35.424  0.00  0.00     0.292 A 
ATOM     35  C4  GSP d   1      -2.649  17.601 -34.699  0.00  0.00     0.186 A 
ATOM     36  O6  GSP d   1       0.042  15.422 -35.308  0.00  0.00    -0.265 OA
ATOM     37  N1  GSP d   1      -0.518  17.316 -36.416  0.00  0.00    -0.152 N 
ATOM     38  C2  GSP d   1      -1.379  18.390 -36.543  0.00  0.00     0.703 A 
ATOM     39  H11 GSP d   1       0.255  17.219 -37.043  0.00  0.00     0.187 HD
ATOM     40  N2  GSP d   1      -1.185  19.295 -37.494  0.00  0.00    -0.233 N 
ATOM     41  N3  GSP d   1      -2.445  18.525 -35.683  0.00  0.00    -0.044 NA
ATOM     42  H12 GSP d   1      -1.829  20.093 -37.584  0.00  0.00     0.174 HD
ATOM     43  H13 GSP d   1      -0.390  19.199 -38.142  0.00  0.00     0.174 HD
ENDBRANCH   5  29
BRANCH   4  44
ATOM     44  O2  GSP d   1      -6.630  17.966 -34.776  0.00  0.00    -0.388 OA
ATOM     45  H8  GSP d   1      -6.513  18.826 -35.162  0.00  0.00     0.210 HD
ENDBRANCH   4  44
TORSDOF 11
