REMARK  9 active torsions:
REMARK  status: ('A' for Active; 'I' for Inactive)
REMARK    1  A    between atoms: S48_2  and  C51_4 
REMARK    2  A    between atoms: S48_2  and  N17_10 
REMARK       I    between atoms: N17_10  and  C15_11 
REMARK    3  A    between atoms: C15_11  and  C13_13 
REMARK    4  A    between atoms: N10_14  and  C12_15 
REMARK    5  A    between atoms: C12_15  and  C34_16 
REMARK    6  A    between atoms: C39_20  and  C43_21 
REMARK    7  A    between atoms: C7_31  and  C14_33 
REMARK    8  A    between atoms: C18_38  and  O27_39 
REMARK    9  A    between atoms: O27_39  and  C28_40 
ROOT
ATOM      1  C13 NSI d   1      22.562 -11.306   4.619  0.00  0.00     0.117 A 
ATOM      2  N10 NSI d   1      22.743 -10.394   5.612  0.00  0.00    -0.337 N 
ATOM      3  C6  NSI d   1      24.048 -10.171   5.760  0.00  0.00     0.046 A 
ATOM      4  C2  NSI d   1      24.762  -9.355   6.654  0.00  0.00    -0.056 A 
ATOM      5  C5  NSI d   1      26.151  -9.332   6.630  0.00  0.00    -0.081 A 
ATOM      6  C4  NSI d   1      26.820 -10.156   5.732  0.00  0.00    -0.082 A 
ATOM      7  C1  NSI d   1      26.119 -10.999   4.842  0.00  0.00    -0.070 A 
ATOM      8  C7  NSI d   1      23.791 -11.729   4.101  0.00  0.00     0.019 A 
ATOM      9  C3  NSI d   1      24.721 -10.978   4.837  0.00  0.00     0.004 A 
ATOM     10  H13 NSI d   1      24.226  -8.739   7.367  0.00  0.00     0.087 H 
ATOM     11  H14 NSI d   1      26.703  -8.683   7.300  0.00  0.00     0.083 H 
ATOM     12  H15 NSI d   1      27.904 -10.151   5.715  0.00  0.00     0.083 H 
ATOM     13  H16 NSI d   1      26.659 -11.656   4.170  0.00  0.00     0.084 H 
ENDROOT
BRANCH   1  14
ATOM     14  C15 NSI d   1      21.254 -11.907   4.226  0.00  0.00     0.282 C 
ATOM     15  N17 NSI d   1      21.021 -12.012   2.934  0.00  0.00    -0.245 N 
ATOM     16  H6  NSI d   1      21.628 -11.516   2.312  0.00  0.00     0.182 HD
ATOM     17  O16 NSI d   1      20.315 -11.837   5.030  0.00  0.00    -0.265 OA
BRANCH  15  18
ATOM     18  S48 NSI d   1      19.885 -12.841   2.310  0.00  0.00     0.265 S 
ATOM     19  O52 NSI d   1      18.630 -12.193   2.243  0.00  0.00    -0.200 OA
ATOM     20  O50 NSI d   1      19.686 -14.103   2.931  0.00  0.00    -0.200 OA
BRANCH  18  21
ATOM     21  C51 NSI d   1      20.380 -12.983   0.768  0.00  0.00     0.080 A 
ATOM     22  C55 NSI d   1      20.017 -12.019  -0.192  0.00  0.00    -0.060 A 
ATOM     23  C56 NSI d   1      20.452 -12.156  -1.511  0.00  0.00    -0.082 A 
ATOM     24  H1  NSI d   1      19.402 -11.173   0.092  0.00  0.00     0.085 H 
ATOM     25  C53 NSI d   1      21.259 -13.239  -1.910  0.00  0.00    -0.083 A 
ATOM     26  H2  NSI d   1      20.162 -11.412  -2.245  0.00  0.00     0.083 H 
ATOM     27  C57 NSI d   1      21.634 -14.185  -0.955  0.00  0.00    -0.082 A 
ATOM     28  H3  NSI d   1      21.583 -13.336  -2.940  0.00  0.00     0.083 H 
ATOM     29  C54 NSI d   1      21.188 -14.043   0.365  0.00  0.00    -0.060 A 
ATOM     30  H4  NSI d   1      22.265 -15.022  -1.232  0.00  0.00     0.083 H 
ATOM     31  H5  NSI d   1      21.482 -14.784   1.099  0.00  0.00     0.085 H 
ENDBRANCH  18  21
ENDBRANCH  15  18
ENDBRANCH   1  14
BRANCH   2  32
ATOM     32  C12 NSI d   1      21.653  -9.738   6.345  0.00  0.00     0.024 C 
ATOM     33  H7  NSI d   1      21.912  -9.690   7.413  0.00  0.00     0.072 H 
ATOM     34  H8  NSI d   1      20.729 -10.320   6.217  0.00  0.00     0.072 H 
BRANCH  32  35
ATOM     35  C34 NSI d   1      21.435  -8.334   5.821  0.00  0.00    -0.039 A 
ATOM     36  C37 NSI d   1      22.153  -7.806   4.766  0.00  0.00    -0.075 A 
ATOM     37  C38 NSI d   1      21.918  -6.488   4.352  0.00  0.00    -0.082 A 
ATOM     38  H9  NSI d   1      22.897  -8.410   4.259  0.00  0.00     0.084 H 
ATOM     39  C35 NSI d   1      20.926  -5.728   4.995  0.00  0.00    -0.068 A 
ATOM     40  H10 NSI d   1      22.497  -6.058   3.542  0.00  0.00     0.083 H 
ATOM     41  C39 NSI d   1      20.224  -6.251   6.064  0.00  0.00     0.048 A 
ATOM     42  H12 NSI d   1      20.710  -4.723   4.649  0.00  0.00     0.084 H 
ATOM     43  C36 NSI d   1      20.483  -7.545   6.493  0.00  0.00    -0.061 A 
ATOM     44  H11 NSI d   1      19.951  -7.949   7.347  0.00  0.00     0.085 H 
BRANCH  41  45
ATOM     45  C43 NSI d   1      19.201  -5.421   6.796  0.00  0.00     0.417 C 
ATOM     46  F47 NSI d   1      18.164  -6.057   7.229  0.00  0.00    -0.166 F 
ATOM     47  F46 NSI d   1      19.716  -4.914   7.850  0.00  0.00    -0.166 F 
ATOM     48  F45 NSI d   1      18.820  -4.430   6.092  0.00  0.00    -0.166 F 
ENDBRANCH  41  45
ENDBRANCH  32  35
ENDBRANCH   2  32
BRANCH   8  49
ATOM     49  C14 NSI d   1      24.036 -12.715   3.099  0.00  0.00    -0.022 A 
ATOM     50  C20 NSI d   1      24.670 -12.309   1.943  0.00  0.00    -0.070 A 
ATOM     51  C21 NSI d   1      25.056 -13.218   0.946  0.00  0.00    -0.050 A 
ATOM     52  H17 NSI d   1      24.877 -11.255   1.800  0.00  0.00     0.085 H 
ATOM     53  C18 NSI d   1      24.818 -14.568   1.078  0.00  0.00     0.068 A 
ATOM     54  H18 NSI d   1      25.551 -12.850   0.054  0.00  0.00     0.087 H 
ATOM     55  C22 NSI d   1      24.161 -15.032   2.241  0.00  0.00    -0.050 A 
ATOM     56  C19 NSI d   1      23.783 -14.103   3.247  0.00  0.00    -0.070 A 
ATOM     57  H20 NSI d   1      23.948 -16.088   2.364  0.00  0.00     0.087 H 
ATOM     58  H19 NSI d   1      23.292 -14.461   4.144  0.00  0.00     0.085 H 
BRANCH  53  59
ATOM     59  O27 NSI d   1      25.239 -15.393   0.048  0.00  0.00    -0.356 OA
BRANCH  59  60
ATOM     60  C28 NSI d   1      25.083 -16.795   0.237  0.00  0.00     0.010 C 
ATOM     61  H21 NSI d   1      25.455 -17.328  -0.650  0.00  0.00     0.066 H 
ATOM     62  H22 NSI d   1      24.018 -17.029   0.386  0.00  0.00     0.066 H 
ATOM     63  H23 NSI d   1      25.655 -17.112   1.121  0.00  0.00     0.066 H 
ENDBRANCH  59  60
ENDBRANCH  53  59
ENDBRANCH   8  49
TORSDOF 9
