REMARK  13 active torsions:
REMARK  status: ('A' for Active; 'I' for Inactive)
REMARK    1  A    between atoms: S_2  and  C17_4 
REMARK    2  A    between atoms: S_2  and  C16_11 
REMARK    3  A    between atoms: C17_4  and  C18_5 
REMARK    4  A    between atoms: C16_11  and  CA_12 
REMARK    5  A    between atoms: CA_12  and  N_13 
REMARK    6  A    between atoms: CA_12  and  C_22 
REMARK       I    between atoms: N_13  and  C11_14 
REMARK       I    between atoms: C11_14  and  N3_16 
REMARK       I    between atoms: C_22  and  N2_24 
REMARK    7  A    between atoms: N2_24  and  C9_25 
REMARK    8  A    between atoms: C9_25  and  C10_26 
REMARK    9  A    between atoms: C9_25  and  C8_27 
REMARK   10  A    between atoms: C8_27  and  N1_28 
REMARK   11  A    between atoms: N1_28  and  C7_29 
REMARK   12  A    between atoms: C2_34  and  O1_35 
REMARK   13  A    between atoms: O1_35  and  C1_36 
ROOT
ATOM      1  CA  GNQ d   1      15.642  -3.253  -7.634  0.00  0.00     0.103 C 
ATOM      2  H10 GNQ d   1      14.718  -2.905  -8.120  0.00  0.00     0.089 H 
ENDROOT
BRANCH   1   3
ATOM      3  C16 GNQ d   1      15.840  -2.489  -6.314  0.00  0.00     0.056 C 
ATOM      4  H8  GNQ d   1      16.567  -3.047  -5.706  0.00  0.00     0.060 H 
ATOM      5  H9  GNQ d   1      16.248  -1.496  -6.555  0.00  0.00     0.060 H 
BRANCH   3   6
ATOM      6  S   GNQ d   1      14.434  -2.265  -5.377  0.00  0.00     0.150 S 
ATOM      7  O5  GNQ d   1      14.673  -1.168  -4.499  0.00  0.00    -0.228 OA
ATOM      8  O4  GNQ d   1      13.391  -2.116  -6.314  0.00  0.00    -0.228 OA
BRANCH   6   9
ATOM      9  C17 GNQ d   1      14.296  -3.704  -4.503  0.00  0.00     0.052 C 
ATOM     10  H1  GNQ d   1      15.238  -3.879  -3.962  0.00  0.00     0.063 H 
ATOM     11  H2  GNQ d   1      14.120  -4.529  -5.209  0.00  0.00     0.063 H 
BRANCH   9  12
ATOM     12  C18 GNQ d   1      13.166  -3.672  -3.507  0.00  0.00    -0.044 A 
ATOM     13  C20 GNQ d   1      11.917  -4.205  -3.822  0.00  0.00    -0.076 A 
ATOM     14  C21 GNQ d   1      10.899  -4.159  -2.881  0.00  0.00    -0.082 A 
ATOM     15  H3  GNQ d   1      11.743  -4.652  -4.794  0.00  0.00     0.084 H 
ATOM     16  C22 GNQ d   1      11.139  -3.595  -1.642  0.00  0.00    -0.083 A 
ATOM     17  H4  GNQ d   1       9.921  -4.563  -3.116  0.00  0.00     0.083 H 
ATOM     18  C23 GNQ d   1      12.378  -3.077  -1.320  0.00  0.00    -0.082 A 
ATOM     19  H5  GNQ d   1      10.340  -3.559  -0.910  0.00  0.00     0.083 H 
ATOM     20  C19 GNQ d   1      13.400  -3.105  -2.265  0.00  0.00    -0.076 A 
ATOM     21  H6  GNQ d   1      12.553  -2.652  -0.339  0.00  0.00     0.083 H 
ATOM     22  H7  GNQ d   1      14.372  -2.686  -2.030  0.00  0.00     0.084 H 
ENDBRANCH   9  12
ENDBRANCH   6   9
ENDBRANCH   3   6
ENDBRANCH   1   3
BRANCH   1  23
ATOM     23  N   GNQ d   1      15.547  -4.677  -7.360  0.00  0.00    -0.329 N 
ATOM     24  C11 GNQ d   1      15.218  -5.460  -8.391  0.00  0.00     0.319 C 
ATOM     25  O3  GNQ d   1      14.972  -4.944  -9.472  0.00  0.00    -0.247 OA
ATOM     26  N3  GNQ d   1      15.159  -6.785  -8.301  0.00  0.00    -0.330 N 
ATOM     27  C15 GNQ d   1      14.760  -7.583  -9.465  0.00  0.00     0.019 C 
ATOM     28  C12 GNQ d   1      15.357  -7.504  -7.051  0.00  0.00     0.019 C 
ATOM     29  C14 GNQ d   1      15.637  -8.807  -9.584  0.00  0.00     0.034 C 
ATOM     30  H12 GNQ d   1      14.861  -6.974 -10.375  0.00  0.00     0.067 H 
ATOM     31  H13 GNQ d   1      13.712  -7.897  -9.348  0.00  0.00     0.067 H 
ATOM     32  O2  GNQ d   1      15.499  -9.563  -8.388  0.00  0.00    -0.388 OA
ATOM     33  H14 GNQ d   1      16.686  -8.504  -9.715  0.00  0.00     0.076 H 
ATOM     34  H15 GNQ d   1      15.320  -9.411 -10.447  0.00  0.00     0.076 H 
ATOM     35  C13 GNQ d   1      16.057  -8.822  -7.286  0.00  0.00     0.034 C 
ATOM     36  H16 GNQ d   1      17.118  -8.623  -7.498  0.00  0.00     0.076 H 
ATOM     37  H17 GNQ d   1      15.973  -9.432  -6.374  0.00  0.00     0.076 H 
ATOM     38  H18 GNQ d   1      14.378  -7.695  -6.588  0.00  0.00     0.067 H 
ATOM     39  H19 GNQ d   1      15.969  -6.888  -6.375  0.00  0.00     0.067 H 
ATOM     40  H11 GNQ d   1      15.719  -5.051  -6.449  0.00  0.00     0.165 HD
ENDBRANCH   1  23
BRANCH   1  41
ATOM     41  C   GNQ d   1      16.826  -3.028  -8.570  0.00  0.00     0.241 C 
ATOM     42  O   GNQ d   1      17.936  -3.450  -8.284  0.00  0.00    -0.271 OA
ATOM     43  N2  GNQ d   1      16.595  -2.329  -9.704  0.00  0.00    -0.353 N 
ATOM     44  H20 GNQ d   1      15.669  -1.999  -9.889  0.00  0.00     0.163 HD
BRANCH  43  45
ATOM     45  C9  GNQ d   1      17.637  -2.044 -10.653  0.00  0.00     0.024 C 
ATOM     46  H21 GNQ d   1      18.541  -1.732 -10.110  0.00  0.00     0.074 H 
BRANCH  45  47
ATOM     47  C10 GNQ d   1      17.945  -3.296 -11.455  0.00  0.00    -0.056 C 
ATOM     48  H22 GNQ d   1      18.742  -3.079 -12.181  0.00  0.00     0.030 H 
ATOM     49  H23 GNQ d   1      17.040  -3.621 -11.990  0.00  0.00     0.030 H 
ATOM     50  H24 GNQ d   1      18.276  -4.095 -10.775  0.00  0.00     0.030 H 
ENDBRANCH  45  47
BRANCH  45  51
ATOM     51  C8  GNQ d   1      17.205  -0.910 -11.595  0.00  0.00     0.011 C 
ATOM     52  H25 GNQ d   1      16.498  -1.328 -12.327  0.00  0.00     0.067 H 
ATOM     53  H26 GNQ d   1      18.101  -0.544 -12.118  0.00  0.00     0.067 H 
BRANCH  51  54
ATOM     54  N1  GNQ d   1      16.548   0.257 -10.934  0.00  0.00    -0.388 N 
ATOM     55  H27 GNQ d   1      16.465   0.353  -9.912  0.00  0.00     0.159 HD
BRANCH  54  56
ATOM     56  C7  GNQ d   1      16.073   1.176 -11.806  0.00  0.00     0.028 A 
ATOM     57  C6  GNQ d   1      14.727   1.508 -11.815  0.00  0.00    -0.055 A 
ATOM     58  C5  GNQ d   1      14.220   2.440 -12.707  0.00  0.00    -0.048 A 
ATOM     59  H28 GNQ d   1      14.057   1.029 -11.110  0.00  0.00     0.087 H 
ATOM     60  C2  GNQ d   1      15.030   3.028 -13.645  0.00  0.00     0.078 A 
ATOM     61  H29 GNQ d   1      13.171   2.708 -12.663  0.00  0.00     0.087 H 
ATOM     62  C3  GNQ d   1      16.396   2.688 -13.665  0.00  0.00    -0.048 A 
ATOM     63  C4  GNQ d   1      16.910   1.753 -12.766  0.00  0.00    -0.055 A 
ATOM     64  H31 GNQ d   1      17.055   3.157 -14.386  0.00  0.00     0.087 H 
ATOM     65  H30 GNQ d   1      17.957   1.474 -12.812  0.00  0.00     0.087 H 
BRANCH  60  66
ATOM     66  O1  GNQ d   1      14.417   3.899 -14.529  0.00  0.00    -0.255 OA
BRANCH  66  67
ATOM     67  C1  GNQ d   1      15.088   4.934 -15.201  0.00  0.00     0.530 C 
ATOM     68  F1  GNQ d   1      15.891   4.383 -16.121  0.00  0.00    -0.144 F 
ATOM     69  F2  GNQ d   1      14.196   5.747 -15.722  0.00  0.00    -0.144 F 
ATOM     70  F3  GNQ d   1      15.739   5.649 -14.311  0.00  0.00    -0.144 F 
ENDBRANCH  66  67
ENDBRANCH  60  66
ENDBRANCH  54  56
ENDBRANCH  51  54
ENDBRANCH  45  51
ENDBRANCH  43  45
ENDBRANCH   1  41
TORSDOF 13
