REMARK  8 active torsions:
REMARK  status: ('A' for Active; 'I' for Inactive)
REMARK    1  A    between atoms: C2_1  and  C3_2 
REMARK    2  A    between atoms: C1_15  and  C2_1 
REMARK    3  A    between atoms: C2_1  and  N6_17 
REMARK       I    between atoms: C3_2  and  N4_16 
REMARK    4  A    between atoms: C20_8  and  C1_15 
REMARK    5  A    between atoms: C22_9  and  C25_10 
REMARK    6  A    between atoms: C1_15  and  C44_26 
REMARK    7  A    between atoms: C28_21  and  S34_22 
REMARK    8  A    between atoms: S34_22  and  C37_25 
ROOT
ATOM      1  C1  3TP d   1      39.568  51.551  36.019  0.00  0.00     0.045 C 
ATOM      2  H10 3TP d   1      39.202  52.355  36.674  0.00  0.00     0.056 H 
ENDROOT
BRANCH   1   3
ATOM      3  C2  3TP d   1      38.402  51.063  35.116  0.00  0.00     0.186 C 
ATOM      4  H1  3TP d   1      38.657  50.050  34.770  0.00  0.00     0.100 H 
BRANCH   3   5
ATOM      5  C3  3TP d   1      37.012  51.018  35.844  0.00  0.00     0.259 C 
ATOM      6  O5  3TP d   1      36.618  51.999  36.476  0.00  0.00    -0.270 OA
ATOM      7  N4  3TP d   1      36.274  49.865  35.731  0.00  0.00    -0.302 N 
ATOM      8  C10 3TP d   1      36.678  48.655  34.998  0.00  0.00    -0.013 A 
ATOM      9  C13 3TP d   1      34.968  49.749  36.344  0.00  0.00    -0.013 A 
ATOM     10  C11 3TP d   1      35.529  47.662  35.159  0.00  0.00    -0.066 A 
ATOM     11  H2  3TP d   1      37.607  48.499  34.452  0.00  0.00     0.112 H 
ATOM     12  C12 3TP d   1      34.453  48.352  36.006  0.00  0.00    -0.066 A 
ATOM     13  H3  3TP d   1      35.483  46.654  34.749  0.00  0.00     0.085 H 
ATOM     14  H4  3TP d   1      33.498  47.925  36.310  0.00  0.00     0.085 H 
ATOM     15  H5  3TP d   1      34.454  50.509  36.931  0.00  0.00     0.112 H 
ENDBRANCH   3   5
BRANCH   3  16
ATOM     16  N6  3TP d   1      38.185  51.918  33.966  0.00  0.00    -0.066 N 
ATOM     17  H11 3TP d   1      37.421  51.556  33.418  0.00  0.00     0.275 HD
ATOM     18  H12 3TP d   1      39.021  51.942  33.403  0.00  0.00     0.275 HD
ATOM     19  H13 3TP d   1      37.963  52.850  34.278  0.00  0.00     0.275 HD
ENDBRANCH   3  16
ENDBRANCH   1   3
BRANCH   1  20
ATOM     20  C20 3TP d   1      40.050  50.378  36.884  0.00  0.00     0.179 A 
ATOM     21  N21 3TP d   1      40.219  50.341  38.217  0.00  0.00    -0.203 NA
ATOM     22  C22 3TP d   1      40.658  49.077  38.429  0.00  0.00     0.189 A 
ATOM     23  N23 3TP d   1      40.757  48.359  37.274  0.00  0.00    -0.106 NA
ATOM     24  O24 3TP d   1      40.351  49.230  36.241  0.00  0.00    -0.195 OA
BRANCH  22  25
ATOM     25  C25 3TP d   1      40.962  48.504  39.747  0.00  0.00     0.014 A 
ATOM     26  C26 3TP d   1      40.055  48.758  40.813  0.00  0.00    -0.068 A 
ATOM     27  C27 3TP d   1      40.258  48.190  42.074  0.00  0.00    -0.061 A 
ATOM     28  H6  3TP d   1      39.197  49.399  40.646  0.00  0.00     0.085 H 
ATOM     29  C28 3TP d   1      41.377  47.358  42.288  0.00  0.00     0.058 A 
ATOM     30  H7  3TP d   1      39.561  48.387  42.881  0.00  0.00     0.085 H 
ATOM     31  C29 3TP d   1      42.315  47.104  41.242  0.00  0.00    -0.061 A 
ATOM     32  C30 3TP d   1      42.099  47.678  39.964  0.00  0.00    -0.068 A 
ATOM     33  H8  3TP d   1      43.182  46.479  41.423  0.00  0.00     0.085 H 
ATOM     34  H9  3TP d   1      42.797  47.488  39.157  0.00  0.00     0.085 H 
BRANCH  29  35
ATOM     35  S34 3TP d   1      41.572  46.614  43.876  0.00  0.00     0.171 S 
ATOM     36  O35 3TP d   1      41.708  45.218  43.707  0.00  0.00    -0.223 OA
ATOM     37  O36 3TP d   1      40.433  47.026  44.676  0.00  0.00    -0.223 OA
BRANCH  35  38
ATOM     38  C37 3TP d   1      43.048  47.378  44.505  0.00  0.00     0.020 C 
ATOM     39  H14 3TP d   1      43.268  46.981  45.507  0.00  0.00     0.049 H 
ATOM     40  H15 3TP d   1      42.900  48.466  44.566  0.00  0.00     0.049 H 
ATOM     41  H16 3TP d   1      43.890  47.159  43.832  0.00  0.00     0.049 H 
ENDBRANCH  35  38
ENDBRANCH  29  35
ENDBRANCH  22  25
ENDBRANCH   1  20
BRANCH   1  42
ATOM     42  C44 3TP d   1      40.743  52.106  35.153  0.00  0.00    -0.063 C 
ATOM     43  H17 3TP d   1      41.556  52.445  35.812  0.00  0.00     0.028 H 
ATOM     44  H18 3TP d   1      40.385  52.952  34.548  0.00  0.00     0.028 H 
ATOM     45  H19 3TP d   1      41.116  51.312  34.489  0.00  0.00     0.028 H 
ENDBRANCH   1  42
TORSDOF 8
