REMARK  7 active torsions:
REMARK  status: ('A' for Active; 'I' for Inactive)
REMARK    1  A    between atoms: NAG_3  and  CAT_4 
REMARK    2  A    between atoms: C2_7  and  NAS_8 
REMARK    3  A    between atoms: NAI_13  and  CAL_14 
REMARK    4  A    between atoms: CAQ_15  and  CAR_16 
REMARK    5  A    between atoms: CAN_20  and  NAU_21 
REMARK       I    between atoms: NAU_21  and  CAV_22 
REMARK    6  A    between atoms: CAV_22  and  CAX_24 
REMARK    7  A    between atoms: CBB_29  and  CBD_30 
ROOT
ATOM      1  CAL 7MP d   1      -0.763   6.827  33.029  0.00  0.00     0.047 A 
ATOM      2  CAQ 7MP d   1      -1.084   7.347  31.776  0.00  0.00    -0.035 A 
ATOM      3  CAP 7MP d   1      -0.176   7.225  30.723  0.00  0.00    -0.073 A 
ATOM      4  CAO 7MP d   1       1.046   6.597  30.939  0.00  0.00    -0.057 A 
ATOM      5  CAM 7MP d   1       0.459   6.207  33.247  0.00  0.00    -0.031 A 
ATOM      6  CAN 7MP d   1       1.366   6.080  32.197  0.00  0.00     0.037 A 
ATOM      7  H12 7MP d   1      -0.422   7.617  29.743  0.00  0.00     0.084 H 
ATOM      8  H13 7MP d   1       1.756   6.508  30.125  0.00  0.00     0.086 H 
ATOM      9  H14 7MP d   1       0.707   5.823  34.230  0.00  0.00     0.090 H 
ENDROOT
BRANCH   1  10
ATOM     10  NAI 7MP d   1      -1.662   6.972  34.096  0.00  0.00    -0.295 N 
ATOM     11  CAH 7MP d   1      -1.631   8.041  34.883  0.00  0.00     0.330 A 
ATOM     12  OAK 7MP d   1      -0.765   8.912  34.658  0.00  0.00    -0.246 OA
ATOM     13  NAG 7MP d   1      -2.592   8.124  35.948  0.00  0.00    -0.287 N 
ATOM     14  C4  7MP d   1      -3.580   7.096  36.145  0.00  0.00     0.162 A 
ATOM     15  N3  7MP d   1      -4.514   7.123  37.112  0.00  0.00    -0.044 NA
ATOM     16  C5  7MP d   1      -3.564   6.009  35.280  0.00  0.00     0.025 A 
ATOM     17  C2  7MP d   1      -5.397   6.106  37.215  0.00  0.00     0.721 A 
ATOM     18  N1  7MP d   1      -5.386   5.041  36.363  0.00  0.00    -0.075 NA
ATOM     19  C6  7MP d   1      -4.470   4.962  35.381  0.00  0.00     0.032 A 
ATOM     20  H6  7MP d   1      -4.441   4.119  34.700  0.00  0.00     0.116 H 
ATOM     21  CAJ 7MP d   1      -2.613   6.228  34.488  0.00  0.00     0.033 A 
ATOM     22  H7  7MP d   1      -3.166   6.152  33.540  0.00  0.00     0.072 H 
ATOM     23  H8  7MP d   1      -2.042   5.303  34.655  0.00  0.00     0.072 H 
BRANCH  13  24
ATOM     24  CAT 7MP d   1      -2.575   9.278  36.844  0.00  0.00    -0.008 C 
ATOM     25  H1  7MP d   1      -1.762   9.958  36.550  0.00  0.00     0.057 H 
ATOM     26  H2  7MP d   1      -2.413   8.938  37.877  0.00  0.00     0.057 H 
ATOM     27  H3  7MP d   1      -3.537   9.807  36.779  0.00  0.00     0.057 H 
ENDBRANCH  13  24
BRANCH  17  28
ATOM     28  NAS 7MP d   1      -6.311   6.166  38.206  0.00  0.00    -0.231 N 
ATOM     29  H4  7MP d   1      -6.320   6.970  38.850  0.00  0.00     0.174 HD
ATOM     30  H5  7MP d   1      -6.999   5.408  38.318  0.00  0.00     0.174 HD
ENDBRANCH  17  28
ENDBRANCH   1  10
BRANCH   2  31
ATOM     31  CAR 7MP d   1      -2.409   8.031  31.547  0.00  0.00    -0.049 C 
ATOM     32  H9  7MP d   1      -2.471   8.369  30.502  0.00  0.00     0.033 H 
ATOM     33  H10 7MP d   1      -2.495   8.898  32.219  0.00  0.00     0.033 H 
ATOM     34  H11 7MP d   1      -3.227   7.325  31.753  0.00  0.00     0.033 H 
ENDBRANCH   2  31
BRANCH   6  35
ATOM     35  NAU 7MP d   1       2.567   5.471  32.377  0.00  0.00    -0.323 N 
ATOM     36  CAV 7MP d   1       3.023   4.925  33.512  0.00  0.00     0.256 C 
ATOM     37  OAW 7MP d   1       2.380   4.925  34.549  0.00  0.00    -0.267 OA
ATOM     38  H15 7MP d   1       3.172   5.426  31.582  0.00  0.00     0.169 HD
BRANCH  36  39
ATOM     39  CAX 7MP d   1       4.395   4.287  33.457  0.00  0.00     0.033 A 
ATOM     40  CBC 7MP d   1       4.688   3.122  34.178  0.00  0.00    -0.053 A 
ATOM     41  CBB 7MP d   1       5.963   2.548  34.107  0.00  0.00     0.048 A 
ATOM     42  H16 7MP d   1       3.924   2.663  34.794  0.00  0.00     0.086 H 
ATOM     43  CBA 7MP d   1       6.927   3.148  33.297  0.00  0.00    -0.068 A 
ATOM     44  CAZ 7MP d   1       6.644   4.304  32.571  0.00  0.00    -0.081 A 
ATOM     45  H19 7MP d   1       7.915   2.707  33.231  0.00  0.00     0.084 H 
ATOM     46  CAY 7MP d   1       5.377   4.868  32.652  0.00  0.00    -0.068 A 
ATOM     47  H18 7MP d   1       7.406   4.759  31.949  0.00  0.00     0.083 H 
ATOM     48  H17 7MP d   1       5.149   5.765  32.087  0.00  0.00     0.085 H 
BRANCH  41  49
ATOM     49  CBD 7MP d   1       6.300   1.291  34.884  0.00  0.00     0.417 C 
ATOM     50  FBE 7MP d   1       6.114   1.519  36.170  0.00  0.00    -0.166 F 
ATOM     51  FBF 7MP d   1       7.578   0.968  34.717  0.00  0.00    -0.166 F 
ATOM     52  FBG 7MP d   1       5.525   0.277  34.493  0.00  0.00    -0.166 F 
ENDBRANCH  41  49
ENDBRANCH  36  39
ENDBRANCH   6  35
TORSDOF 7
