REMARK  25 active torsions:
REMARK  status: ('A' for Active; 'I' for Inactive)
REMARK    1  A    between atoms: C5_2  and  C4_1 
REMARK    2  A    between atoms: C6_3  and  C5_2 
REMARK    3  A    between atoms: C7_4  and  C6_3 
REMARK    4  A    between atoms: C7_4  and  C3_18 
REMARK    5  A    between atoms: S8_19  and  C7_4 
REMARK    6  A    between atoms: C9_22  and  C10_5 
REMARK    7  A    between atoms: C10_5  and  C11_23 
REMARK    8  A    between atoms: C10_5  and  N40_37 
REMARK    9  A    between atoms: N12_6  and  C13_7 
REMARK       I    between atoms: C11_23  and  N12_6 
REMARK   10  A    between atoms: C13_7  and  C21_11 
REMARK   11  A    between atoms: C13_7  and  C14_25 
REMARK   12  A    between atoms: C14_25  and  C15_8 
REMARK   13  A    between atoms: C21_11  and  C22_12 
REMARK   14  A    between atoms: C21_11  and  O21_29 
REMARK   15  A    between atoms: C22_12  and  N23_30 
REMARK   16  A    between atoms: N23_30  and  C24_13 
REMARK   17  A    between atoms: C24_13  and  C25_31 
REMARK   18  A    between atoms: C2_17  and  C1_16 
REMARK   19  A    between atoms: C3_18  and  C2_17 
REMARK   20  A    between atoms: S8_19  and  C9_22 
REMARK   21  A    between atoms: C27_32  and  O27_33 
REMARK   22  A    between atoms: O27_33  and  C31_36 
REMARK       I    between atoms: N40_37  and  C41_38 
REMARK   23  A    between atoms: C41_38  and  O43_40 
REMARK   24  A    between atoms: O43_40  and  C44_41 
REMARK   25  A    between atoms: C44_41  and  C45_42 
ROOT
ATOM      1  C10 LIJ d   1     -25.058  56.860  64.969  0.00  0.00     0.104 C 
ATOM      2  H9  LIJ d   1     -25.006  55.824  65.335  0.00  0.00     0.089 H 
ENDROOT
BRANCH   1   3
ATOM      3  C9  LIJ d   1     -24.812  57.829  66.120  0.00  0.00     0.056 C 
ATOM      4  H28 LIJ d   1     -24.772  58.850  65.712  0.00  0.00     0.060 H 
ATOM      5  H29 LIJ d   1     -23.845  57.581  66.583  0.00  0.00     0.060 H 
BRANCH   3   6
ATOM      6  S8  LIJ d   1     -26.097  57.774  67.408  0.00  0.00     0.150 S 
ATOM      7  O8B LIJ d   1     -26.150  56.412  67.858  0.00  0.00    -0.227 OA
ATOM      8  O8A LIJ d   1     -27.346  58.255  66.869  0.00  0.00    -0.227 OA
BRANCH   6   9
ATOM      9  C7  LIJ d   1     -25.711  58.868  68.860  0.00  0.00     0.045 C 
ATOM     10  H8  LIJ d   1     -25.592  58.170  69.702  0.00  0.00     0.064 H 
BRANCH   9  11
ATOM     11  C6  LIJ d   1     -26.919  59.819  69.323  0.00  0.00    -0.049 C 
ATOM     12  H6  LIJ d   1     -27.711  59.145  69.681  0.00  0.00     0.034 H 
ATOM     13  H7  LIJ d   1     -26.530  60.409  70.166  0.00  0.00     0.034 H 
BRANCH  11  14
ATOM     14  C5  LIJ d   1     -27.637  60.860  68.359  0.00  0.00    -0.067 C 
ATOM     15  H4  LIJ d   1     -26.937  61.688  68.171  0.00  0.00     0.032 H 
ATOM     16  H5  LIJ d   1     -27.861  60.347  67.412  0.00  0.00     0.032 H 
BRANCH  14  17
ATOM     17  C4  LIJ d   1     -28.972  61.470  68.907  0.00  0.00    -0.076 C 
ATOM     18  H1  LIJ d   1     -29.384  62.173  68.168  0.00  0.00     0.027 H 
ATOM     19  H2  LIJ d   1     -28.772  62.003  69.848  0.00  0.00     0.027 H 
ATOM     20  H3  LIJ d   1     -29.697  60.663  69.089  0.00  0.00     0.027 H 
ENDBRANCH  14  17
ENDBRANCH  11  14
ENDBRANCH   9  11
BRANCH   9  21
ATOM     21  C3  LIJ d   1     -24.334  59.546  68.738  0.00  0.00    -0.049 C 
ATOM     22  H26 LIJ d   1     -24.412  60.562  69.153  0.00  0.00     0.034 H 
ATOM     23  H27 LIJ d   1     -24.072  59.605  67.671  0.00  0.00     0.034 H 
BRANCH  21  24
ATOM     24  C2  LIJ d   1     -23.192  58.805  69.479  0.00  0.00    -0.067 C 
ATOM     25  H24 LIJ d   1     -23.457  58.712  70.542  0.00  0.00     0.032 H 
ATOM     26  H25 LIJ d   1     -23.074  57.803  69.041  0.00  0.00     0.032 H 
BRANCH  24  27
ATOM     27  C1  LIJ d   1     -21.853  59.565  69.361  0.00  0.00    -0.076 C 
ATOM     28  H21 LIJ d   1     -21.069  59.011  69.897  0.00  0.00     0.027 H 
ATOM     29  H22 LIJ d   1     -21.960  60.567  69.801  0.00  0.00     0.027 H 
ATOM     30  H23 LIJ d   1     -21.576  59.658  68.300  0.00  0.00     0.027 H 
ENDBRANCH  24  27
ENDBRANCH  21  24
ENDBRANCH   9  21
ENDBRANCH   6   9
ENDBRANCH   3   6
ENDBRANCH   1   3
BRANCH   1  31
ATOM     31  C11 LIJ d   1     -23.955  57.051  63.964  0.00  0.00     0.241 C 
ATOM     32  N12 LIJ d   1     -22.676  56.868  64.317  0.00  0.00    -0.352 N 
ATOM     33  H10 LIJ d   1     -22.514  56.583  65.262  0.00  0.00     0.163 HD
ATOM     34  O11 LIJ d   1     -24.339  57.395  62.822  0.00  0.00    -0.271 OA
BRANCH  32  35
ATOM     35  C13 LIJ d   1     -21.493  57.037  63.483  0.00  0.00     0.042 C 
ATOM     36  H11 LIJ d   1     -21.777  57.489  62.521  0.00  0.00     0.077 H 
BRANCH  35  37
ATOM     37  C21 LIJ d   1     -20.811  55.687  63.201  0.00  0.00     0.078 C 
ATOM     38  H14 LIJ d   1     -20.548  55.205  64.154  0.00  0.00     0.088 H 
BRANCH  37  39
ATOM     39  C22 LIJ d   1     -21.713  54.781  62.393  0.00  0.00     0.107 C 
ATOM     40  H15 LIJ d   1     -21.977  55.287  61.453  0.00  0.00     0.079 H 
ATOM     41  H16 LIJ d   1     -22.627  54.581  62.971  0.00  0.00     0.079 H 
BRANCH  39  42
ATOM     42  N23 LIJ d   1     -21.045  53.474  62.071  0.00  0.00    -0.069 N 
ATOM     43  H36 LIJ d   1     -20.856  52.988  62.934  0.00  0.00     0.277 HD
ATOM     44  H37 LIJ d   1     -20.177  53.665  61.596  0.00  0.00     0.277 HD
BRANCH  42  45
ATOM     45  C24 LIJ d   1     -21.866  52.605  61.214  0.00  0.00     0.105 C 
ATOM     46  H17 LIJ d   1     -22.873  52.480  61.639  0.00  0.00     0.083 H 
ATOM     47  H18 LIJ d   1     -21.393  51.619  61.094  0.00  0.00     0.083 H 
BRANCH  45  48
ATOM     48  C25 LIJ d   1     -21.933  53.352  59.851  0.00  0.00    -0.030 A 
ATOM     49  C26 LIJ d   1     -20.715  53.926  59.239  0.00  0.00    -0.043 A 
ATOM     50  C27 LIJ d   1     -20.734  54.661  57.964  0.00  0.00     0.068 A 
ATOM     51  H19 LIJ d   1     -19.768  53.800  59.751  0.00  0.00     0.088 H 
ATOM     52  C28 LIJ d   1     -22.049  54.819  57.277  0.00  0.00    -0.051 A 
ATOM     53  C29 LIJ d   1     -23.270  54.255  57.869  0.00  0.00    -0.080 A 
ATOM     54  H20 LIJ d   1     -22.104  55.353  56.335  0.00  0.00     0.087 H 
ATOM     55  C30 LIJ d   1     -23.216  53.529  59.147  0.00  0.00    -0.075 A 
ATOM     56  H38 LIJ d   1     -24.219  54.375  57.359  0.00  0.00     0.083 H 
ATOM     57  H39 LIJ d   1     -24.125  53.122  59.574  0.00  0.00     0.084 H 
BRANCH  50  58
ATOM     58  O27 LIJ d   1     -19.537  55.180  57.481  0.00  0.00    -0.356 OA
BRANCH  58  59
ATOM     59  C31 LIJ d   1     -18.264  54.478  57.498  0.00  0.00     0.010 C 
ATOM     60  H40 LIJ d   1     -17.486  55.118  57.056  0.00  0.00     0.066 H 
ATOM     61  H41 LIJ d   1     -18.350  53.549  56.915  0.00  0.00     0.066 H 
ATOM     62  H42 LIJ d   1     -17.993  54.235  58.536  0.00  0.00     0.066 H 
ENDBRANCH  58  59
ENDBRANCH  50  58
ENDBRANCH  45  48
ENDBRANCH  42  45
ENDBRANCH  39  42
ENDBRANCH  37  39
BRANCH  37  63
ATOM     63  O21 LIJ d   1     -19.661  55.890  62.424  0.00  0.00    -0.392 OA
ATOM     64  H35 LIJ d   1     -19.060  56.457  62.892  0.00  0.00     0.210 HD
ENDBRANCH  37  63
ENDBRANCH  35  37
BRANCH  35  65
ATOM     65  C14 LIJ d   1     -20.575  58.018  64.265  0.00  0.00    -0.020 C 
ATOM     66  H30 LIJ d   1     -19.672  58.193  63.662  0.00  0.00     0.043 H 
ATOM     67  H31 LIJ d   1     -20.295  57.539  65.215  0.00  0.00     0.043 H 
BRANCH  65  68
ATOM     68  C15 LIJ d   1     -21.207  59.393  64.590  0.00  0.00    -0.056 A 
ATOM     69  C20 LIJ d   1     -22.169  60.039  63.661  0.00  0.00    -0.077 A 
ATOM     70  C19 LIJ d   1     -22.771  61.328  63.986  0.00  0.00    -0.082 A 
ATOM     71  H13 LIJ d   1     -22.427  59.547  62.730  0.00  0.00     0.084 H 
ATOM     72  C18 LIJ d   1     -22.437  62.007  65.231  0.00  0.00    -0.083 A 
ATOM     73  H34 LIJ d   1     -23.472  61.784  63.296  0.00  0.00     0.083 H 
ATOM     74  C17 LIJ d   1     -21.487  61.391  66.168  0.00  0.00    -0.082 A 
ATOM     75  H33 LIJ d   1     -22.888  62.964  65.466  0.00  0.00     0.083 H 
ATOM     76  C16 LIJ d   1     -20.875  60.090  65.851  0.00  0.00    -0.077 A 
ATOM     77  H12 LIJ d   1     -21.236  61.895  67.094  0.00  0.00     0.083 H 
ATOM     78  H32 LIJ d   1     -20.176  59.640  66.547  0.00  0.00     0.084 H 
ENDBRANCH  65  68
ENDBRANCH  35  65
ENDBRANCH  32  35
ENDBRANCH   1  31
BRANCH   1  79
ATOM     79  N40 LIJ d   1     -26.374  57.098  64.511  0.00  0.00    -0.323 N 
ATOM     80  C41 LIJ d   1     -27.463  56.227  64.618  0.00  0.00     0.361 C 
ATOM     81  O42 LIJ d   1     -27.385  55.122  65.153  0.00  0.00    -0.238 OA
ATOM     82  H43 LIJ d   1     -26.543  57.977  64.066  0.00  0.00     0.165 HD
BRANCH  80  83
ATOM     83  O43 LIJ d   1     -28.614  56.747  64.087  0.00  0.00    -0.299 OA
BRANCH  83  84
ATOM     84  C44 LIJ d   1     -29.850  56.010  64.102  0.00  0.00     0.054 C 
ATOM     85  H44 LIJ d   1     -30.127  55.781  65.142  0.00  0.00     0.082 H 
ATOM     86  H45 LIJ d   1     -29.724  55.072  63.541  0.00  0.00     0.082 H 
BRANCH  84  87
ATOM     87  C45 LIJ d   1     -30.934  56.831  63.465  0.00  0.00    -0.034 A 
ATOM     88  C46 LIJ d   1     -31.026  56.923  62.021  0.00  0.00    -0.075 A 
ATOM     89  C47 LIJ d   1     -32.063  57.716  61.406  0.00  0.00    -0.082 A 
ATOM     90  H46 LIJ d   1     -30.312  56.394  61.400  0.00  0.00     0.084 H 
ATOM     91  C48 LIJ d   1     -33.028  58.431  62.231  0.00  0.00    -0.083 A 
ATOM     92  H47 LIJ d   1     -32.124  57.780  60.326  0.00  0.00     0.083 H 
ATOM     93  C49 LIJ d   1     -32.947  58.346  63.675  0.00  0.00    -0.082 A 
ATOM     94  H48 LIJ d   1     -33.805  59.026  61.765  0.00  0.00     0.083 H 
ATOM     95  C50 LIJ d   1     -31.909  57.552  64.299  0.00  0.00    -0.075 A 
ATOM     96  H49 LIJ d   1     -33.665  58.878  64.289  0.00  0.00     0.083 H 
ATOM     97  H50 LIJ d   1     -31.850  57.489  65.380  0.00  0.00     0.084 H 
ENDBRANCH  84  87
ENDBRANCH  83  84
ENDBRANCH  80  83
ENDBRANCH   1  79
TORSDOF 25
