REMARK  3 active torsions:
REMARK  status: ('A' for Active; 'I' for Inactive)
REMARK    1  A    between atoms: C6_1  and  N10_9 
REMARK    2  A    between atoms: C9_4  and  C3_8 
REMARK    3  A    between atoms: C3_8  and  N2_7 
ROOT
ATOM      1  C6  PNZ d   1      23.159  17.232  27.843  0.00  0.00     0.102 A 
ATOM      2  C7  PNZ d   1      23.159  17.289  29.217  0.00  0.00    -0.050 A 
ATOM      3  C8  PNZ d   1      22.556  15.993  30.017  0.00  0.00    -0.073 A 
ATOM      4  C9  PNZ d   1      22.093  14.922  29.274  0.00  0.00    -0.033 A 
ATOM      5  C4  PNZ d   1      22.127  14.987  27.860  0.00  0.00    -0.073 A 
ATOM      6  C5  PNZ d   1      22.649  16.097  27.163  0.00  0.00    -0.050 A 
ATOM      7  H1  PNZ d   1      23.541  18.154  29.747  0.00  0.00     0.087 H 
ATOM      8  H2  PNZ d   1      22.521  15.975  31.100  0.00  0.00     0.084 H 
ATOM      9  H3  PNZ d   1      21.737  14.151  27.291  0.00  0.00     0.084 H 
ATOM     10  H4  PNZ d   1      22.660  16.082  26.079  0.00  0.00     0.087 H 
ENDROOT
BRANCH   4  11
ATOM     11  C3  PNZ d   1      21.491  13.737  29.972  0.00  0.00     0.103 C 
ATOM     12  H8  PNZ d   1      22.065  13.587  30.898  0.00  0.00     0.082 H 
ATOM     13  H9  PNZ d   1      21.632  12.871  29.309  0.00  0.00     0.082 H 
BRANCH  11  14
ATOM     14  N2  PNZ d   1      20.063  13.759  30.351  0.00  0.00    -0.075 N 
ATOM     15  H5  PNZ d   1      19.823  12.893  30.807  0.00  0.00     0.274 HD
ATOM     16  H6  PNZ d   1      19.498  13.871  29.524  0.00  0.00     0.274 HD
ATOM     17  H7  PNZ d   1      19.894  14.528  30.981  0.00  0.00     0.274 HD
ENDBRANCH  11  14
ENDBRANCH   4  11
BRANCH   1  18
ATOM     18  N10 PNZ d   1      23.630  18.308  27.166  0.00  0.00    -0.116 N 
ATOM     19  O11 PNZ d   1      24.006  19.256  27.808  0.00  0.00    -0.532 OA
ATOM     20  O12 PNZ d   1      23.674  18.284  25.963  0.00  0.00    -0.532 OA
ENDBRANCH   1  18
TORSDOF 3
