REMARK  13 active torsions:
REMARK  status: ('A' for Active; 'I' for Inactive)
REMARK    1  A    between atoms: O21_1  and  C17_2 
REMARK    2  A    between atoms: C15_5  and  C19_6 
REMARK    3  A    between atoms: C11_8  and  N3_9 
REMARK    4  A    between atoms: N3_9  and  C2_10 
REMARK    5  A    between atoms: C8_13  and  N10_14 
REMARK    6  A    between atoms: N10_14  and  C27_15 
REMARK    7  A    between atoms: C27_15  and  C30_16 
REMARK    8  A    between atoms: C30_16  and  N34_17 
REMARK    9  A    between atoms: N34_17  and  C36_18 
REMARK   10  A    between atoms: N34_17  and  C35_20 
REMARK   11  A    between atoms: C36_18  and  C42_19 
REMARK   12  A    between atoms: C35_20  and  C38_21 
REMARK   13  A    between atoms: C5_23  and  N7_24 
ROOT
ATOM      1  C2  1BM d   1      48.122  10.052  -2.311  0.00  0.00     0.150 A 
ATOM      2  N1  1BM d   1      48.007  10.304  -3.629  0.00  0.00    -0.044 NA
ATOM      3  C9  1BM d   1      47.620   8.848  -1.815  0.00  0.00     0.006 A 
ATOM      4  C8  1BM d   1      47.036   7.912  -2.666  0.00  0.00     0.146 A 
ATOM      5  N6  1BM d   1      46.942   8.213  -3.982  0.00  0.00    -0.045 NA
ATOM      6  C5  1BM d   1      47.425   9.390  -4.440  0.00  0.00     0.738 A 
ATOM      7  H9  1BM d   1      47.685   8.638  -0.753  0.00  0.00     0.095 H 
ENDROOT
BRANCH   4   8
ATOM      8  N10 1BM d   1      46.540   6.721  -2.246  0.00  0.00    -0.373 N 
ATOM      9  H10 1BM d   1      46.150   6.093  -2.963  0.00  0.00     0.161 HD
BRANCH   8  10
ATOM     10  C27 1BM d   1      46.513   6.258  -0.870  0.00  0.00     0.017 C 
ATOM     11  H11 1BM d   1      45.758   5.461  -0.803  0.00  0.00     0.066 H 
ATOM     12  H12 1BM d   1      46.207   7.107  -0.241  0.00  0.00     0.066 H 
BRANCH  10  13
ATOM     13  C30 1BM d   1      47.817   5.705  -0.295  0.00  0.00     0.098 C 
ATOM     14  H13 1BM d   1      47.733   5.632   0.799  0.00  0.00     0.078 H 
ATOM     15  H14 1BM d   1      48.647   6.379  -0.555  0.00  0.00     0.078 H 
BRANCH  13  16
ATOM     16  N34 1BM d   1      48.073   4.382  -0.852  0.00  0.00    -0.070 N 
ATOM     17  H15 1BM d   1      47.119   4.314  -1.171  0.00  0.00     0.279 HD
BRANCH  16  18
ATOM     18  C36 1BM d   1      47.870   3.218   0.007  0.00  0.00     0.080 C 
ATOM     19  H16 1BM d   1      46.951   3.379   0.590  0.00  0.00     0.075 H 
ATOM     20  H17 1BM d   1      48.729   3.142   0.690  0.00  0.00     0.075 H 
BRANCH  18  21
ATOM     21  C42 1BM d   1      47.736   1.902  -0.731  0.00  0.00    -0.053 C 
ATOM     22  H18 1BM d   1      47.587   1.088  -0.006  0.00  0.00     0.029 H 
ATOM     23  H19 1BM d   1      48.651   1.712  -1.312  0.00  0.00     0.029 H 
ATOM     24  H20 1BM d   1      46.873   1.949  -1.411  0.00  0.00     0.029 H 
ENDBRANCH  18  21
ENDBRANCH  16  18
BRANCH  16  25
ATOM     25  C35 1BM d   1      48.540   4.282  -2.228  0.00  0.00     0.080 C 
ATOM     26  H21 1BM d   1      47.803   4.757  -2.892  0.00  0.00     0.075 H 
ATOM     27  H22 1BM d   1      48.643   3.220  -2.495  0.00  0.00     0.075 H 
BRANCH  25  28
ATOM     28  C38 1BM d   1      49.875   4.966  -2.405  0.00  0.00    -0.053 C 
ATOM     29  H23 1BM d   1      50.199   4.873  -3.452  0.00  0.00     0.029 H 
ATOM     30  H24 1BM d   1      50.619   4.493  -1.748  0.00  0.00     0.029 H 
ATOM     31  H25 1BM d   1      49.779   6.030  -2.144  0.00  0.00     0.029 H 
ENDBRANCH  25  28
ENDBRANCH  16  25
ENDBRANCH  13  16
ENDBRANCH  10  13
ENDBRANCH   8  10
ENDBRANCH   4   8
BRANCH   1  32
ATOM     32  N3  1BM d   1      48.710  10.998  -1.547  0.00  0.00    -0.340 N 
ATOM     33  H8  1BM d   1      49.068  11.849  -2.004  0.00  0.00     0.167 HD
BRANCH  32  34
ATOM     34  C11 1BM d   1      48.848  10.874  -0.205  0.00  0.00     0.042 A 
ATOM     35  C15 1BM d   1      48.064  11.602   0.676  0.00  0.00    -0.035 A 
ATOM     36  C16 1BM d   1      48.231  11.475   2.054  0.00  0.00    -0.072 A 
ATOM     37  C13 1BM d   1      49.174  10.583   2.560  0.00  0.00    -0.050 A 
ATOM     38  H3  1BM d   1      47.628  12.069   2.731  0.00  0.00     0.084 H 
ATOM     39  C17 1BM d   1      49.957   9.834   1.681  0.00  0.00     0.067 A 
ATOM     40  H2  1BM d   1      49.299  10.472   3.631  0.00  0.00     0.087 H 
ATOM     41  C14 1BM d   1      49.791   9.997   0.311  0.00  0.00    -0.025 A 
ATOM     42  H7  1BM d   1      50.412   9.426  -0.370  0.00  0.00     0.091 H 
BRANCH  35  43
ATOM     43  C19 1BM d   1      47.063  12.563   0.098  0.00  0.00    -0.049 C 
ATOM     44  H4  1BM d   1      46.521  13.063   0.914  0.00  0.00     0.033 H 
ATOM     45  H5  1BM d   1      46.349  12.014  -0.534  0.00  0.00     0.033 H 
ATOM     46  H6  1BM d   1      47.586  13.316  -0.509  0.00  0.00     0.033 H 
ENDBRANCH  35  43
BRANCH  39  47
ATOM     47  O21 1BM d   1      50.860   8.945   2.093  0.00  0.00    -0.361 OA
ATOM     48  H1  1BM d   1      50.429   8.272   2.607  0.00  0.00     0.217 HD
ENDBRANCH  39  47
ENDBRANCH  32  34
ENDBRANCH   1  32
BRANCH   6  49
ATOM     49  N7  1BM d   1      47.370   9.752  -5.788  0.00  0.00    -0.136 N 
ATOM     50  C49 1BM d   1      46.726   9.175  -6.885  0.00  0.00     0.086 A 
ATOM     51  C54 1BM d   1      45.937   8.033  -6.975  0.00  0.00    -0.054 A 
ATOM     52  C53 1BM d   1      46.994   9.957  -7.995  0.00  0.00     0.086 A 
ATOM     53  C58 1BM d   1      45.443   7.688  -8.231  0.00  0.00    -0.081 A 
ATOM     54  H26 1BM d   1      45.715   7.433  -6.100  0.00  0.00     0.087 H 
ATOM     55  C56 1BM d   1      45.716   8.479  -9.350  0.00  0.00    -0.081 A 
ATOM     56  H30 1BM d   1      44.839   6.795  -8.342  0.00  0.00     0.083 H 
ATOM     57  C55 1BM d   1      46.496   9.629  -9.248  0.00  0.00    -0.053 A 
ATOM     58  H29 1BM d   1      45.314   8.193 -10.315  0.00  0.00     0.083 H 
ATOM     59  H28 1BM d   1      46.706  10.245 -10.115  0.00  0.00     0.087 H 
ATOM     60  N51 1BM d   1      47.750  11.034  -7.698  0.00  0.00    -0.241 NA
ATOM     61  C50 1BM d   1      48.031  10.943  -6.284  0.00  0.00     0.089 A 
ATOM     62  H27 1BM d   1      48.629  11.640  -5.699  0.00  0.00     0.145 H 
ENDBRANCH   6  49
TORSDOF 13
