REMARK  21 active torsions:
REMARK  status: ('A' for Active; 'I' for Inactive)
REMARK    1  A    between atoms: C7_1  and  C3_16 
REMARK    2  A    between atoms: S8_17  and  C7_1 
REMARK    3  A    between atoms: C9_20  and  C10_2 
REMARK    4  A    between atoms: C10_2  and  C11_21 
REMARK    5  A    between atoms: C10_2  and  N40_35 
REMARK    6  A    between atoms: N12_3  and  C13_4 
REMARK       I    between atoms: C11_21  and  N12_3 
REMARK    7  A    between atoms: C13_4  and  C21_8 
REMARK    8  A    between atoms: C13_4  and  C14_23 
REMARK    9  A    between atoms: C14_23  and  C15_5 
REMARK   10  A    between atoms: C21_8  and  C22_9 
REMARK   11  A    between atoms: C21_8  and  O4_27 
REMARK   12  A    between atoms: C22_9  and  N23_28 
REMARK   13  A    between atoms: N23_28  and  C24_10 
REMARK   14  A    between atoms: C24_10  and  C25_29 
REMARK   15  A    between atoms: C27_30  and  C28_12 
REMARK   16  A    between atoms: C28_12  and  C32_34 
REMARK   17  A    between atoms: C1_13  and  C1A_14 
REMARK   18  A    between atoms: C2_15  and  C1_13 
REMARK   19  A    between atoms: C3_16  and  C2_15 
REMARK   20  A    between atoms: S8_17  and  C9_20 
REMARK       I    between atoms: N40_35  and  C41_36 
REMARK   21  A    between atoms: C41_36  and  C43_40 
ROOT
ATOM      1  C13 LIQ d   1      14.749  -5.593  16.443  0.00  0.00     0.042 C 
ATOM      2  H5  LIQ d   1      14.910  -6.305  17.266  0.00  0.00     0.077 H 
ENDROOT
BRANCH   1   3
ATOM      3  N12 LIQ d   1      14.065  -4.385  16.937  0.00  0.00    -0.352 N 
ATOM      4  C11 LIQ d   1      13.755  -3.986  18.215  0.00  0.00     0.241 C 
ATOM      5  O3  LIQ d   1      14.048  -4.649  19.236  0.00  0.00    -0.271 OA
ATOM      6  H4  LIQ d   1      13.778  -3.748  16.222  0.00  0.00     0.163 HD
BRANCH   4   7
ATOM      7  C10 LIQ d   1      12.998  -2.693  18.407  0.00  0.00     0.102 C 
ATOM      8  H3  LIQ d   1      13.606  -1.874  17.995  0.00  0.00     0.089 H 
BRANCH   7   9
ATOM      9  C9  LIQ d   1      11.687  -2.816  17.599  0.00  0.00     0.056 C 
ATOM     10  H24 LIQ d   1      11.141  -3.700  17.960  0.00  0.00     0.060 H 
ATOM     11  H25 LIQ d   1      11.947  -2.954  16.539  0.00  0.00     0.060 H 
BRANCH   9  12
ATOM     12  S8  LIQ d   1      10.591  -1.375  17.734  0.00  0.00     0.146 S 
ATOM     13  O1  LIQ d   1      11.413  -0.294  17.268  0.00  0.00    -0.228 OA
ATOM     14  O2  LIQ d   1      10.224  -1.158  19.131  0.00  0.00    -0.228 OA
BRANCH  12  15
ATOM     15  C7  LIQ d   1       8.989  -1.306  16.770  0.00  0.00     0.029 C 
ATOM     16  H1  LIQ d   1       8.142  -1.232  17.468  0.00  0.00     0.056 H 
ATOM     17  H2  LIQ d   1       8.995  -0.429  16.107  0.00  0.00     0.056 H 
BRANCH  15  18
ATOM     18  C3  LIQ d   1       8.860  -2.546  15.957  0.00  0.00    -0.053 C 
ATOM     19  H22 LIQ d   1       7.892  -3.036  16.139  0.00  0.00     0.034 H 
ATOM     20  H23 LIQ d   1       9.675  -3.249  16.181  0.00  0.00     0.034 H 
BRANCH  18  21
ATOM     21  C2  LIQ d   1       8.955  -2.037  14.504  0.00  0.00    -0.065 C 
ATOM     22  H20 LIQ d   1       8.128  -1.333  14.331  0.00  0.00     0.033 H 
ATOM     23  H21 LIQ d   1       9.914  -1.512  14.386  0.00  0.00     0.033 H 
BRANCH  21  24
ATOM     24  C1  LIQ d   1       8.877  -3.135  13.444  0.00  0.00    -0.069 C 
ATOM     25  H15 LIQ d   1       8.726  -4.110  13.930  0.00  0.00     0.032 H 
ATOM     26  H16 LIQ d   1       8.040  -2.933  12.760  0.00  0.00     0.032 H 
BRANCH  24  27
ATOM     27  C1A LIQ d   1      10.186  -3.144  12.667  0.00  0.00    -0.077 C 
ATOM     28  H17 LIQ d   1      10.150  -3.929  11.897  0.00  0.00     0.027 H 
ATOM     29  H18 LIQ d   1      11.020  -3.344  13.356  0.00  0.00     0.027 H 
ATOM     30  H19 LIQ d   1      10.334  -2.166  12.186  0.00  0.00     0.027 H 
ENDBRANCH  24  27
ENDBRANCH  21  24
ENDBRANCH  18  21
ENDBRANCH  15  18
ENDBRANCH  12  15
ENDBRANCH   9  12
ENDBRANCH   7   9
BRANCH   7  31
ATOM     31  N40 LIQ d   1      12.672  -2.350  19.825  0.00  0.00    -0.343 N 
ATOM     32  C41 LIQ d   1      13.351  -1.359  20.558  0.00  0.00     0.253 C 
ATOM     33  O5  LIQ d   1      14.349  -0.790  20.100  0.00  0.00    -0.268 OA
ATOM     34  H39 LIQ d   1      11.933  -2.851  20.276  0.00  0.00     0.163 HD
BRANCH  32  35
ATOM     35  C43 LIQ d   1      12.847  -0.992  21.940  0.00  0.00     0.049 A 
ATOM     36  C45 LIQ d   1      13.521  -0.031  22.671  0.00  0.00     0.017 A 
ATOM     37  N44 LIQ d   1      13.071   0.304  23.933  0.00  0.00    -0.272 NA
ATOM     38  H40 LIQ d   1      14.396   0.456  22.256  0.00  0.00     0.116 H 
ATOM     39  C46 LIQ d   1      11.927  -0.289  24.555  0.00  0.00     0.002 A 
ATOM     40  C47 LIQ d   1      11.213  -1.289  23.811  0.00  0.00    -0.065 A 
ATOM     41  H41 LIQ d   1      11.611   0.005  25.549  0.00  0.00     0.114 H 
ATOM     42  C48 LIQ d   1      11.673  -1.654  22.487  0.00  0.00    -0.065 A 
ATOM     43  H42 LIQ d   1      10.338  -1.766  24.237  0.00  0.00     0.085 H 
ATOM     44  H43 LIQ d   1      11.150  -2.410  21.912  0.00  0.00     0.085 H 
ENDBRANCH  32  35
ENDBRANCH   7  31
ENDBRANCH   4   7
ENDBRANCH   1   3
BRANCH   1  45
ATOM     45  C21 LIQ d   1      16.101  -5.285  15.796  0.00  0.00     0.078 C 
ATOM     46  H7  LIQ d   1      15.989  -4.561  14.975  0.00  0.00     0.088 H 
BRANCH  45  47
ATOM     47  C22 LIQ d   1      17.023  -4.799  16.800  0.00  0.00     0.107 C 
ATOM     48  H8  LIQ d   1      17.101  -5.572  17.578  0.00  0.00     0.079 H 
ATOM     49  H9  LIQ d   1      16.588  -3.886  17.233  0.00  0.00     0.079 H 
BRANCH  47  50
ATOM     50  N23 LIQ d   1      18.428  -4.464  16.352  0.00  0.00    -0.069 N 
ATOM     51  H31 LIQ d   1      18.404  -3.701  15.694  0.00  0.00     0.277 HD
ATOM     52  H32 LIQ d   1      18.849  -5.270  15.917  0.00  0.00     0.277 HD
BRANCH  50  53
ATOM     53  C24 LIQ d   1      19.200  -4.078  17.527  0.00  0.00     0.105 C 
ATOM     54  H10 LIQ d   1      18.641  -3.328  18.106  0.00  0.00     0.083 H 
ATOM     55  H11 LIQ d   1      20.165  -3.654  17.212  0.00  0.00     0.083 H 
BRANCH  53  56
ATOM     56  C25 LIQ d   1      19.441  -5.311  18.387  0.00  0.00    -0.032 A 
ATOM     57  C26 LIQ d   1      19.808  -6.700  17.713  0.00  0.00    -0.069 A 
ATOM     58  C27 LIQ d   1      20.011  -7.851  18.587  0.00  0.00    -0.058 A 
ATOM     59  H12 LIQ d   1      19.905  -6.791  16.637  0.00  0.00     0.085 H 
ATOM     60  C29 LIQ d   1      19.921  -7.903  20.034  0.00  0.00    -0.077 A 
ATOM     61  C30 LIQ d   1      19.569  -6.576  20.721  0.00  0.00    -0.082 A 
ATOM     62  H33 LIQ d   1      20.091  -8.817  20.592  0.00  0.00     0.084 H 
ATOM     63  C31 LIQ d   1      19.330  -5.290  19.913  0.00  0.00    -0.075 A 
ATOM     64  H34 LIQ d   1      19.487  -6.545  21.802  0.00  0.00     0.083 H 
ATOM     65  H35 LIQ d   1      19.082  -4.367  20.425  0.00  0.00     0.084 H 
BRANCH  58  66
ATOM     66  C28 LIQ d   1      20.367  -9.163  17.900  0.00  0.00    -0.044 C 
ATOM     67  H13 LIQ d   1      20.833  -9.833  18.638  0.00  0.00     0.039 H 
ATOM     68  H14 LIQ d   1      21.082  -8.955  17.090  0.00  0.00     0.039 H 
BRANCH  66  69
ATOM     69  C32 LIQ d   1      19.147  -9.858  17.309  0.00  0.00    -0.073 C 
ATOM     70  H36 LIQ d   1      19.457 -10.796  16.827  0.00  0.00     0.028 H 
ATOM     71  H37 LIQ d   1      18.676  -9.201  16.563  0.00  0.00     0.028 H 
ATOM     72  H38 LIQ d   1      18.427 -10.079  18.110  0.00  0.00     0.028 H 
ENDBRANCH  66  69
ENDBRANCH  58  66
ENDBRANCH  53  56
ENDBRANCH  50  53
ENDBRANCH  47  50
ENDBRANCH  45  47
BRANCH  45  73
ATOM     73  O4  LIQ d   1      16.630  -6.510  15.343  0.00  0.00    -0.392 OA
ATOM     74  H30 LIQ d   1      16.058  -6.874  14.678  0.00  0.00     0.210 HD
ENDBRANCH  45  73
ENDBRANCH   1  45
BRANCH   1  75
ATOM     75  C14 LIQ d   1      13.707  -6.179  15.398  0.00  0.00    -0.020 C 
ATOM     76  H26 LIQ d   1      14.102  -7.112  14.971  0.00  0.00     0.043 H 
ATOM     77  H27 LIQ d   1      13.545  -5.447  14.593  0.00  0.00     0.043 H 
BRANCH  75  78
ATOM     78  C15 LIQ d   1      12.340  -6.472  16.124  0.00  0.00    -0.050 A 
ATOM     79  C20 LIQ d   1      12.254  -7.214  17.489  0.00  0.00    -0.039 A 
ATOM     80  C19 LIQ d   1      10.928  -7.461  18.151  0.00  0.00     0.119 A 
ATOM     81  H6  LIQ d   1      13.163  -7.557  17.969  0.00  0.00     0.089 H 
ATOM     82  C18 LIQ d   1       9.660  -6.993  17.500  0.00  0.00    -0.009 A 
ATOM     83  F19 LIQ d   1      10.889  -8.087  19.292  0.00  0.00    -0.206 F 
ATOM     84  C17 LIQ d   1       9.752  -6.267  16.160  0.00  0.00     0.119 A 
ATOM     85  H29 LIQ d   1       8.699  -7.167  17.971  0.00  0.00     0.092 H 
ATOM     86  C16 LIQ d   1      11.073  -6.015  15.492  0.00  0.00    -0.039 A 
ATOM     87  F17 LIQ d   1       8.701  -5.852  15.571  0.00  0.00    -0.206 F 
ATOM     88  H28 LIQ d   1      11.104  -5.496  14.541  0.00  0.00     0.089 H 
ENDBRANCH  75  78
ENDBRANCH   1  75
TORSDOF 21
