REMARK  15 active torsions:
REMARK  status: ('A' for Active; 'I' for Inactive)
REMARK    1  A    between atoms: C1_1  and  C2_4 
REMARK    2  A    between atoms: C2_4  and  C3_5 
REMARK    3  A    between atoms: C3_5  and  C4_6 
REMARK    4  A    between atoms: C4_6  and  C5_7 
REMARK    5  A    between atoms: C5_7  and  C6_8 
REMARK    6  A    between atoms: C6_8  and  C7_9 
REMARK    7  A    between atoms: C7_9  and  C8_10 
REMARK    8  A    between atoms: C8_10  and  C9_11 
REMARK    9  A    between atoms: C9_11  and  CA_12 
REMARK   10  A    between atoms: CA_12  and  CB_13 
REMARK   11  A    between atoms: CB_13  and  CC_14 
REMARK   12  A    between atoms: CC_14  and  CD_15 
REMARK   13  A    between atoms: CD_15  and  CE_16 
REMARK   14  A    between atoms: CE_16  and  CF_17 
REMARK   15  A    between atoms: CF_17  and  CG_18 
ROOT
ATOM      1  C9  PLM d   1      22.683  34.663  60.893  0.00  0.00    -0.065 C 
ATOM      2  H15 PLM d   1      23.528  34.346  61.521  0.00  0.00     0.033 H 
ATOM      3  H16 PLM d   1      22.317  33.805  60.310  0.00  0.00     0.033 H 
ENDROOT
BRANCH   1   4
ATOM      4  C8  PLM d   1      23.169  35.729  59.931  0.00  0.00    -0.065 C 
ATOM      5  H13 PLM d   1      22.309  36.343  59.624  0.00  0.00     0.033 H 
ATOM      6  H14 PLM d   1      23.905  36.361  60.450  0.00  0.00     0.033 H 
BRANCH   4   7
ATOM      7  C7  PLM d   1      23.820  35.150  58.686  0.00  0.00    -0.065 C 
ATOM      8  H11 PLM d   1      24.790  34.712  58.965  0.00  0.00     0.033 H 
ATOM      9  H12 PLM d   1      23.167  34.365  58.278  0.00  0.00     0.033 H 
BRANCH   7  10
ATOM     10  C6  PLM d   1      24.049  36.202  57.613  0.00  0.00    -0.065 C 
ATOM     11  H9  PLM d   1      23.562  37.134  57.936  0.00  0.00     0.033 H 
ATOM     12  H10 PLM d   1      25.133  36.367  57.520  0.00  0.00     0.033 H 
BRANCH  10  13
ATOM     13  C5  PLM d   1      23.505  35.833  56.240  0.00  0.00    -0.065 C 
ATOM     14  H7  PLM d   1      23.136  36.751  55.759  0.00  0.00     0.033 H 
ATOM     15  H8  PLM d   1      24.330  35.414  55.646  0.00  0.00     0.033 H 
BRANCH  13  16
ATOM     16  C4  PLM d   1      22.371  34.819  56.257  0.00  0.00    -0.065 C 
ATOM     17  H5  PLM d   1      22.798  33.806  56.291  0.00  0.00     0.033 H 
ATOM     18  H6  PLM d   1      21.754  34.987  57.152  0.00  0.00     0.033 H 
BRANCH  16  19
ATOM     19  C3  PLM d   1      21.494  34.945  55.022  0.00  0.00    -0.056 C 
ATOM     20  H3  PLM d   1      21.082  35.965  54.998  0.00  0.00     0.033 H 
ATOM     21  H4  PLM d   1      22.126  34.784  54.136  0.00  0.00     0.033 H 
BRANCH  19  22
ATOM     22  C2  PLM d   1      20.335  33.966  54.960  0.00  0.00     0.016 C 
ATOM     23  H1  PLM d   1      20.705  32.954  55.181  0.00  0.00     0.049 H 
ATOM     24  H2  PLM d   1      19.581  34.252  55.708  0.00  0.00     0.049 H 
BRANCH  22  25
ATOM     25  C1  PLM d   1      19.697  33.974  53.580  0.00  0.00     0.172 C 
ATOM     26  O1  PLM d   1      19.653  34.955  52.882  0.00  0.00    -0.648 OA
ATOM     27  O2  PLM d   1      19.226  32.823  53.213  0.00  0.00    -0.648 OA
ENDBRANCH  22  25
ENDBRANCH  19  22
ENDBRANCH  16  19
ENDBRANCH  13  16
ENDBRANCH  10  13
ENDBRANCH   7  10
ENDBRANCH   4   7
ENDBRANCH   1   4
BRANCH   1  28
ATOM     28  CA  PLM d   1      21.565  35.148  61.795  0.00  0.00    -0.065 C 
ATOM     29  H17 PLM d   1      21.570  36.248  61.805  0.00  0.00     0.033 H 
ATOM     30  H18 PLM d   1      21.743  34.771  62.813  0.00  0.00     0.033 H 
BRANCH  28  31
ATOM     31  CB  PLM d   1      20.207  34.672  61.331  0.00  0.00    -0.065 C 
ATOM     32  H19 PLM d   1      19.573  34.477  62.208  0.00  0.00     0.033 H 
ATOM     33  H20 PLM d   1      20.327  33.744  60.752  0.00  0.00     0.033 H 
BRANCH  31  34
ATOM     34  CC  PLM d   1      19.547  35.719  60.462  0.00  0.00    -0.065 C 
ATOM     35  H21 PLM d   1      20.184  35.893  59.583  0.00  0.00     0.033 H 
ATOM     36  H22 PLM d   1      19.462  36.649  61.043  0.00  0.00     0.033 H 
BRANCH  34  37
ATOM     37  CD  PLM d   1      18.169  35.327  59.983  0.00  0.00    -0.065 C 
ATOM     38  H23 PLM d   1      17.460  35.416  60.819  0.00  0.00     0.033 H 
ATOM     39  H24 PLM d   1      18.194  34.285  59.633  0.00  0.00     0.033 H 
BRANCH  37  40
ATOM     40  CE  PLM d   1      17.708  36.215  58.851  0.00  0.00    -0.065 C 
ATOM     41  H25 PLM d   1      18.202  37.194  58.940  0.00  0.00     0.033 H 
ATOM     42  H26 PLM d   1      16.618  36.346  58.920  0.00  0.00     0.033 H 
BRANCH  40  43
ATOM     43  CF  PLM d   1      18.049  35.610  57.502  0.00  0.00    -0.069 C 
ATOM     44  H27 PLM d   1      17.271  35.906  56.783  0.00  0.00     0.032 H 
ATOM     45  H28 PLM d   1      18.055  34.515  57.605  0.00  0.00     0.032 H 
BRANCH  43  46
ATOM     46  CG  PLM d   1      19.397  36.046  56.954  0.00  0.00    -0.077 C 
ATOM     47  H29 PLM d   1      19.569  35.567  55.979  0.00  0.00     0.027 H 
ATOM     48  H30 PLM d   1      20.191  35.748  57.654  0.00  0.00     0.027 H 
ATOM     49  H31 PLM d   1      19.407  37.139  56.832  0.00  0.00     0.027 H 
ENDBRANCH  43  46
ENDBRANCH  40  43
ENDBRANCH  37  40
ENDBRANCH  34  37
ENDBRANCH  31  34
ENDBRANCH  28  31
ENDBRANCH   1  28
TORSDOF 15
