REMARK WARNING: 32 MAX_TORS EXCEEDED!!!
REMARK  52 active torsions:
REMARK  status: ('A' for Active; 'I' for Inactive)
REMARK    1  A    between atoms: N_1  and  CA_2 
REMARK    2  A    between atoms: CA_2  and  C_3 
REMARK    3  A    between atoms: CA_2  and  CB_5 
REMARK       I    between atoms: C_3  and  N_7 
REMARK    4  A    between atoms: CB_5  and  OG_6 
REMARK    5  A    between atoms: N_7  and  CA_8 
REMARK    6  A    between atoms: CA_8  and  C_9 
REMARK    7  A    between atoms: CA_8  and  CB_11 
REMARK       I    between atoms: C_9  and  N_14 
REMARK    8  A    between atoms: CB_11  and  OG1_12 
REMARK    9  A    between atoms: CB_11  and  CG2_13 
REMARK   10  A    between atoms: N_14  and  CA_15 
REMARK   11  A    between atoms: CA_15  and  C_16 
REMARK   12  A    between atoms: CA_15  and  CB_18 
REMARK       I    between atoms: C_16  and  N_21 
REMARK   13  A    between atoms: CB_18  and  CG1_19 
REMARK   14  A    between atoms: CB_18  and  CG2_20 
REMARK   15  A    between atoms: N_21  and  CA_22 
REMARK   16  A    between atoms: CA_22  and  C_23 
REMARK   17  A    between atoms: CA_22  and  CB_25 
REMARK       I    between atoms: C_23  and  N_30 
REMARK   18  A    between atoms: CB_25  and  CG_26 
REMARK   19  A    between atoms: CG_26  and  CD_27 
REMARK   20  A    between atoms: N_30  and  CA_31 
REMARK   21  A    between atoms: CA_31  and  C_32 
REMARK   22  A    between atoms: CA_31  and  CB_34 
REMARK       I    between atoms: C_32  and  N_46 
REMARK   23  A    between atoms: CB_34  and  CG_35 
REMARK   24  A    between atoms: CZ_40  and  OH_41 
REMARK   25  A    between atoms: OH_41  and  P_42 
REMARK   26  A    between atoms: N_46  and  CA_47 
REMARK   27  A    between atoms: CA_47  and  C_48 
REMARK   28  A    between atoms: CA_47  and  CB_50 
REMARK       I    between atoms: C_48  and  N_52 
REMARK   29  A    between atoms: CB_50  and  OG_51 
REMARK   30  A    between atoms: N_52  and  CA_53 
REMARK   31  A    between atoms: CA_53  and  C_54 
REMARK   32  A    between atoms: CA_53  and  CB_56 
REMARK       I    between atoms: C_54  and  N_59 
REMARK   33  A    between atoms: CB_56  and  OG1_57 
REMARK   34  A    between atoms: CB_56  and  CG2_58 
REMARK   35  A    between atoms: N_59  and  CA_60 
REMARK   36  A    between atoms: CA_60  and  C_61 
REMARK   37  A    between atoms: CA_60  and  CB_63 
REMARK       I    between atoms: C_61  and  N_66 
REMARK   38  A    between atoms: CB_63  and  CG1_64 
REMARK   39  A    between atoms: CB_63  and  CG2_65 
REMARK   40  A    between atoms: N_66  and  CA_67 
REMARK   41  A    between atoms: CA_67  and  C_68 
REMARK   42  A    between atoms: CA_67  and  CB_70 
REMARK       I    between atoms: C_68  and  N_73 
REMARK   43  A    between atoms: CB_70  and  CG1_71 
REMARK   44  A    between atoms: CB_70  and  CG2_72 
REMARK   45  A    between atoms: N_73  and  CA_74 
REMARK   46  A    between atoms: CA_74  and  C_75 
REMARK   47  A    between atoms: CA_74  and  CB_77 
REMARK       I    between atoms: C_75  and  N_83 
REMARK   48  A    between atoms: CB_77  and  CG_78 
REMARK   49  A    between atoms: N_83  and  CA_84 
REMARK   50  A    between atoms: CA_84  and  C_85 
REMARK   51  A    between atoms: CA_84  and  CB_87 
REMARK   52  A    between atoms: CB_87  and  OG_88 
ROOT
ATOM      1  N   SER d   1      17.880   6.460  43.040  0.00  0.00    -0.344 N 
ATOM      2  H38 SER d   1      17.936   7.089  42.265  0.00  0.00     0.163 HD
ATOM      3  C   PTR d   1      19.009   6.076  43.636  0.00  0.00     0.241 C 
ATOM      4  O   PTR d   1      19.040   5.343  44.628  0.00  0.00    -0.271 OA
ENDROOT
BRANCH   1   5
ATOM      5  CA  SER d   1      16.576   6.002  43.471  0.00  0.00     0.109 C 
ATOM      6  H39 SER d   1      16.691   5.039  43.990  0.00  0.00     0.090 H 
BRANCH   5   7
ATOM      7  C   SER d   1      15.688   5.803  42.249  0.00  0.00     0.243 C 
ATOM      8  O   SER d   1      16.009   6.255  41.150  0.00  0.00    -0.271 OA
ATOM      9  N   THR d   1      14.585   5.094  42.444  0.00  0.00    -0.344 N 
ATOM     10  H43 THR d   1      14.452   4.626  43.318  0.00  0.00     0.163 HD
BRANCH   9  11
ATOM     11  CA  THR d   1      13.568   4.982  41.419  0.00  0.00     0.113 C 
ATOM     12  H44 THR d   1      13.830   5.656  40.590  0.00  0.00     0.091 H 
BRANCH  11  13
ATOM     13  C   THR d   1      12.258   5.453  42.038  0.00  0.00     0.243 C 
ATOM     14  O   THR d   1      12.135   5.506  43.277  0.00  0.00    -0.271 OA
ATOM     15  N   VAL d   1      11.297   5.820  41.186  0.00  0.00    -0.346 N 
ATOM     16  H50 VAL d   1      11.456   5.714  40.204  0.00  0.00     0.163 HD
BRANCH  15  17
ATOM     17  CA  VAL d   1      10.029   6.368  41.636  0.00  0.00     0.092 C 
ATOM     18  H51 VAL d   1      10.175   6.812  42.632  0.00  0.00     0.088 H 
BRANCH  17  19
ATOM     19  C   VAL d   1       8.978   5.259  41.735  0.00  0.00     0.241 C 
ATOM     20  O   VAL d   1       8.839   4.463  40.821  0.00  0.00    -0.271 OA
ATOM     21  N   VAL d   1       8.246   5.209  42.848  0.00  0.00    -0.346 N 
ATOM     22  H59 VAL d   1       8.510   5.760  43.640  0.00  0.00     0.163 HD
BRANCH  21  23
ATOM     23  CA  VAL d   1       7.058   4.355  42.922  0.00  0.00     0.092 C 
ATOM     24  H60 VAL d   1       7.214   3.496  42.253  0.00  0.00     0.088 H 
BRANCH  23  25
ATOM     25  C   VAL d   1       5.876   5.148  42.421  0.00  0.00     0.241 C 
ATOM     26  O   VAL d   1       5.470   6.131  43.037  0.00  0.00    -0.271 OA
ATOM     27  N   HIS d   1       5.355   4.739  41.268  0.00  0.00    -0.346 N 
ATOM     28  H68 HIS d   1       5.805   3.994  40.775  0.00  0.00     0.163 HD
BRANCH  27  29
ATOM     29  CA  HIS d   1       4.155   5.333  40.696  0.00  0.00     0.094 C 
ATOM     30  H69 HIS d   1       4.067   6.368  41.058  0.00  0.00     0.088 H 
BRANCH  29  31
ATOM     31  C   HIS d   1       2.934   4.546  41.167  0.00  0.00     0.241 C 
ATOM     32  O   HIS d   1       2.618   3.493  40.624  0.00  0.00    -0.271 OA
ATOM     33  N   SER d   1       2.275   5.047  42.208  0.00  0.00    -0.343 N 
ATOM     34  H75 SER d   1       2.609   5.889  42.633  0.00  0.00     0.163 HD
BRANCH  33  35
ATOM     35  CA  SER d   1       1.078   4.406  42.751  0.00  0.00     0.116 C 
ATOM     36  H76 SER d   1       0.599   3.834  41.943  0.00  0.00     0.093 H 
BRANCH  35  37
ATOM     37  C   SER d   1       0.077   5.438  43.265  0.00  0.00     0.198 C 
ATOM     38  O   SER d   1       0.299   6.655  43.143  0.00  0.00    -0.646 OA
ATOM     39  OXT SER d   1      -0.971   5.079  43.842  0.00  0.00    -0.646 OA
ENDBRANCH  35  37
BRANCH  35  40
ATOM     40  CB  SER d   1       1.455   3.435  43.874  0.00  0.00     0.045 C 
ATOM     41  H77 SER d   1       0.542   2.948  44.246  0.00  0.00     0.077 H 
ATOM     42  H78 SER d   1       1.928   4.000  44.691  0.00  0.00     0.077 H 
BRANCH  40  43
ATOM     43  OG  SER d   1       2.358   2.437  43.421  0.00  0.00    -0.398 OA
ATOM     44  H79 SER d   1       2.570   1.854  44.140  0.00  0.00     0.209 HD
ENDBRANCH  40  43
ENDBRANCH  35  40
ENDBRANCH  33  35
ENDBRANCH  29  31
BRANCH  29  45
ATOM     45  CB  HIS d   1       4.239   5.364  39.160  0.00  0.00     0.004 C 
ATOM     46  H70 HIS d   1       3.289   5.758  38.769  0.00  0.00     0.046 H 
ATOM     47  H71 HIS d   1       4.385   4.335  38.800  0.00  0.00     0.046 H 
BRANCH  45  48
ATOM     48  CG  HIS d   1       5.360   6.215  38.629  0.00  0.00     0.053 A 
ATOM     49  ND1 HIS d   1       6.583   5.694  38.261  0.00  0.00    -0.247 NA
ATOM     50  CE1 HIS d   1       7.359   6.668  37.810  0.00  0.00     0.064 A 
ATOM     51  NE2 HIS d   1       6.691   7.806  37.893  0.00  0.00    -0.359 N 
ATOM     52  H73 HIS d   1       8.375   6.551  37.435  0.00  0.00     0.143 H 
ATOM     53  CD2 HIS d   1       5.433   7.547  38.390  0.00  0.00     0.002 A 
ATOM     54  H74 HIS d   1       7.052   8.734  37.629  0.00  0.00     0.166 HD
ATOM     55  H72 HIS d   1       4.643   8.277  38.560  0.00  0.00     0.114 H 
ENDBRANCH  45  48
ENDBRANCH  29  45
ENDBRANCH  27  29
ENDBRANCH  23  25
BRANCH  23  56
ATOM     56  CB  VAL d   1       6.778   3.795  44.348  0.00  0.00    -0.033 C 
ATOM     57  H61 VAL d   1       6.442   4.627  44.984  0.00  0.00     0.042 H 
BRANCH  56  58
ATOM     58  CG1 VAL d   1       5.656   2.745  44.301  0.00  0.00    -0.071 C 
ATOM     59  H62 VAL d   1       5.471   2.360  45.315  0.00  0.00     0.028 H 
ATOM     60  H63 VAL d   1       5.957   1.916  43.644  0.00  0.00     0.028 H 
ATOM     61  H64 VAL d   1       4.737   3.207  43.911  0.00  0.00     0.028 H 
ENDBRANCH  56  58
BRANCH  56  62
ATOM     62  CG2 VAL d   1       8.030   3.221  44.955  0.00  0.00    -0.071 C 
ATOM     63  H65 VAL d   1       8.814   3.992  44.976  0.00  0.00     0.028 H 
ATOM     64  H66 VAL d   1       8.372   2.367  44.352  0.00  0.00     0.028 H 
ATOM     65  H67 VAL d   1       7.819   2.885  45.981  0.00  0.00     0.028 H 
ENDBRANCH  56  62
ENDBRANCH  23  56
ENDBRANCH  21  23
ENDBRANCH  17  19
BRANCH  17  66
ATOM     66  CB  VAL d   1       9.504   7.481  40.660  0.00  0.00    -0.033 C 
ATOM     67  H52 VAL d   1       9.232   7.007  39.705  0.00  0.00     0.042 H 
BRANCH  66  68
ATOM     68  CG1 VAL d   1       8.285   8.159  41.230  0.00  0.00    -0.071 C 
ATOM     69  H53 VAL d   1       7.936   8.933  40.531  0.00  0.00     0.028 H 
ATOM     70  H54 VAL d   1       8.541   8.624  42.194  0.00  0.00     0.028 H 
ATOM     71  H55 VAL d   1       7.489   7.415  41.381  0.00  0.00     0.028 H 
ENDBRANCH  66  68
BRANCH  66  72
ATOM     72  CG2 VAL d   1      10.575   8.520  40.400  0.00  0.00    -0.071 C 
ATOM     73  H56 VAL d   1      11.468   8.030  39.984  0.00  0.00     0.028 H 
ATOM     74  H57 VAL d   1      10.838   9.020  41.344  0.00  0.00     0.028 H 
ATOM     75  H58 VAL d   1      10.197   9.264  39.684  0.00  0.00     0.028 H 
ENDBRANCH  66  72
ENDBRANCH  17  66
ENDBRANCH  15  17
ENDBRANCH  11  13
BRANCH  11  76
ATOM     76  CB  THR d   1      13.452   3.536  40.834  0.00  0.00     0.060 C 
ATOM     77  H45 THR d   1      12.784   3.561  39.960  0.00  0.00     0.086 H 
BRANCH  76  78
ATOM     78  OG1 THR d   1      12.915   2.661  41.817  0.00  0.00    -0.393 OA
ATOM     79  H46 THR d   1      12.847   1.785  41.456  0.00  0.00     0.210 HD
ENDBRANCH  76  78
BRANCH  76  80
ATOM     80  CG2 THR d   1      14.792   2.992  40.415  0.00  0.00    -0.050 C 
ATOM     81  H47 THR d   1      14.665   1.977  40.011  0.00  0.00     0.031 H 
ATOM     82  H48 THR d   1      15.463   2.959  41.286  0.00  0.00     0.031 H 
ATOM     83  H49 THR d   1      15.227   3.643  39.642  0.00  0.00     0.031 H 
ENDBRANCH  76  80
ENDBRANCH  11  76
ENDBRANCH   9  11
ENDBRANCH   5   7
BRANCH   5  84
ATOM     84  CB  SER d   1      15.937   7.008  44.440  0.00  0.00     0.044 C 
ATOM     85  H40 SER d   1      15.004   6.581  44.837  0.00  0.00     0.077 H 
ATOM     86  H41 SER d   1      15.712   7.937  43.896  0.00  0.00     0.077 H 
BRANCH  84  87
ATOM     87  OG  SER d   1      16.805   7.304  45.519  0.00  0.00    -0.398 OA
ATOM     88  H42 SER d   1      16.385   7.927  46.100  0.00  0.00     0.209 HD
ENDBRANCH  84  87
ENDBRANCH   5  84
ENDBRANCH   1   5
BRANCH   3  89
ATOM     89  CA  PTR d   1      20.290   6.628  43.034  0.00  0.00     0.093 C 
ATOM     90  H31 PTR d   1      20.045   7.654  42.721  0.00  0.00     0.088 H 
BRANCH  89  91
ATOM     91  N   PTR d   1      21.353   6.763  44.030  0.00  0.00    -0.346 N 
ATOM     92  C   GLU d   1      21.620   7.928  44.611  0.00  0.00     0.241 C 
ATOM     93  O   GLU d   1      21.029   8.972  44.337  0.00  0.00    -0.271 OA
ATOM     94  H30 PTR d   1      21.892   5.959  44.280  0.00  0.00     0.163 HD
BRANCH  92  95
ATOM     95  CA  GLU d   1      22.714   7.908  45.676  0.00  0.00     0.090 C 
ATOM     96  H25 GLU d   1      23.221   6.934  45.617  0.00  0.00     0.087 H 
BRANCH  95  97
ATOM     97  N   GLU d   1      23.726   8.949  45.475  0.00  0.00    -0.346 N 
ATOM     98  C   VAL d   1      24.859   8.720  44.826  0.00  0.00     0.241 C 
ATOM     99  O   VAL d   1      25.093   7.664  44.237  0.00  0.00    -0.271 OA
ATOM    100  H24 GLU d   1      23.556   9.864  45.840  0.00  0.00     0.163 HD
BRANCH  98 101
ATOM    101  CA  VAL d   1      25.881   9.874  44.838  0.00  0.00     0.092 C 
ATOM    102  H16 VAL d   1      25.353  10.793  45.133  0.00  0.00     0.088 H 
BRANCH 101 103
ATOM    103  N   VAL d   1      26.924   9.612  45.828  0.00  0.00    -0.346 N 
ATOM    104  C   THR d   1      27.000  10.241  46.998  0.00  0.00     0.243 C 
ATOM    105  O   THR d   1      26.202  11.111  47.366  0.00  0.00    -0.271 OA
ATOM    106  H15 VAL d   1      27.617   8.924  45.615  0.00  0.00     0.163 HD
BRANCH 104 107
ATOM    107  CA  THR d   1      28.196   9.861  47.874  0.00  0.00     0.113 C 
ATOM    108  H9  THR d   1      28.881   9.243  47.276  0.00  0.00     0.091 H 
BRANCH 107 109
ATOM    109  N   THR d   1      28.881  11.089  48.238  0.00  0.00    -0.344 N 
ATOM    110  C   SER d   1      29.572  11.786  47.338  0.00  0.00     0.251 C 
ATOM    111  O   SER d   1      29.810  11.366  46.201  0.00  0.00    -0.271 OA
ATOM    112  H8  THR d   1      28.833  11.417  49.181  0.00  0.00     0.163 HD
BRANCH 110 113
ATOM    113  CA  SER d   1      30.083  13.151  47.784  0.00  0.00     0.195 C 
ATOM    114  H4  SER d   1      29.949  13.249  48.871  0.00  0.00     0.102 H 
BRANCH 113 115
ATOM    115  N   SER d   1      31.507  13.280  47.474  0.00  0.00    -0.064 N 
ATOM    116  H1  SER d   1      31.835  14.185  47.773  0.00  0.00     0.275 HD
ATOM    117  H2  SER d   1      31.645  13.184  46.480  0.00  0.00     0.275 HD
ATOM    118  H3  SER d   1      32.022  12.560  47.956  0.00  0.00     0.275 HD
ENDBRANCH 113 115
BRANCH 113 119
ATOM    119  CB  SER d   1      29.262  14.240  47.080  0.00  0.00     0.051 C 
ATOM    120  H5  SER d   1      28.243  14.233  47.493  0.00  0.00     0.077 H 
ATOM    121  H6  SER d   1      29.224  14.010  46.005  0.00  0.00     0.077 H 
BRANCH 119 122
ATOM    122  OG  SER d   1      29.807  15.538  47.245  0.00  0.00    -0.398 OA
ATOM    123  H7  SER d   1      29.261  16.169  46.791  0.00  0.00     0.209 HD
ENDBRANCH 119 122
ENDBRANCH 113 119
ENDBRANCH 110 113
ENDBRANCH 107 109
BRANCH 107 124
ATOM    124  CB  THR d   1      27.787   9.031  49.123  0.00  0.00     0.060 C 
ATOM    125  H10 THR d   1      27.467   9.718  49.920  0.00  0.00     0.086 H 
BRANCH 124 126
ATOM    126  OG1 THR d   1      28.918   8.270  49.567  0.00  0.00    -0.393 OA
ATOM    127  H11 THR d   1      28.675   7.760  50.331  0.00  0.00     0.210 HD
ENDBRANCH 124 126
BRANCH 124 128
ATOM    128  CG2 THR d   1      26.653   8.063  48.814  0.00  0.00    -0.050 C 
ATOM    129  H12 THR d   1      26.396   7.498  49.722  0.00  0.00     0.031 H 
ATOM    130  H13 THR d   1      26.971   7.365  48.026  0.00  0.00     0.031 H 
ATOM    131  H14 THR d   1      25.773   8.627  48.471  0.00  0.00     0.031 H 
ENDBRANCH 124 128
ENDBRANCH 107 124
ENDBRANCH 104 107
ENDBRANCH 101 103
BRANCH 101 132
ATOM    132  CB  VAL d   1      26.496  10.111  43.423  0.00  0.00    -0.033 C 
ATOM    133  H17 VAL d   1      26.999   9.186  43.104  0.00  0.00     0.042 H 
BRANCH 132 134
ATOM    134  CG1 VAL d   1      25.417  10.445  42.411  0.00  0.00    -0.071 C 
ATOM    135  H18 VAL d   1      25.877  10.607  41.425  0.00  0.00     0.028 H 
ATOM    136  H19 VAL d   1      24.890  11.358  42.724  0.00  0.00     0.028 H 
ATOM    137  H20 VAL d   1      24.701   9.612  42.350  0.00  0.00     0.028 H 
ENDBRANCH 132 134
BRANCH 132 138
ATOM    138  CG2 VAL d   1      27.527  11.235  43.470  0.00  0.00    -0.071 C 
ATOM    139  H21 VAL d   1      28.306  10.987  44.205  0.00  0.00     0.028 H 
ATOM    140  H22 VAL d   1      27.033  12.174  43.762  0.00  0.00     0.028 H 
ATOM    141  H23 VAL d   1      27.985  11.355  42.477  0.00  0.00     0.028 H 
ENDBRANCH 132 138
ENDBRANCH 101 132
ENDBRANCH  98 101
ENDBRANCH  95  97
BRANCH  95 142
ATOM    142  CB  GLU d   1      22.089   8.041  47.068  0.00  0.00    -0.029 C 
ATOM    143  H26 GLU d   1      21.221   7.367  47.127  0.00  0.00     0.037 H 
ATOM    144  H27 GLU d   1      21.756   9.081  47.203  0.00  0.00     0.037 H 
BRANCH 142 145
ATOM    145  CG  GLU d   1      23.055   7.689  48.203  0.00  0.00     0.018 C 
ATOM    146  H28 GLU d   1      23.995   8.240  48.049  0.00  0.00     0.049 H 
ATOM    147  H29 GLU d   1      23.255   6.608  48.173  0.00  0.00     0.049 H 
BRANCH 145 148
ATOM    148  CD  GLU d   1      22.503   8.043  49.573  0.00  0.00     0.172 C 
ATOM    149  OE1 GLU d   1      21.528   7.387  50.002  0.00  0.00    -0.648 OA
ATOM    150  OE2 GLU d   1      23.045   8.978  50.212  0.00  0.00    -0.648 OA
ENDBRANCH 145 148
ENDBRANCH 142 145
ENDBRANCH  95 142
ENDBRANCH  92  95
ENDBRANCH  89  91
BRANCH  89 151
ATOM    151  CB  PTR d   1      20.751   5.920  41.756  0.00  0.00    -0.014 C 
ATOM    152  H32 PTR d   1      19.868   5.651  41.158  0.00  0.00     0.043 H 
ATOM    153  H33 PTR d   1      21.299   5.007  42.031  0.00  0.00     0.043 H 
BRANCH 151 154
ATOM    154  CG  PTR d   1      21.656   6.806  40.926  0.00  0.00    -0.056 A 
ATOM    155  CD1 PTR d   1      23.012   6.934  41.238  0.00  0.00    -0.074 A 
ATOM    156  CE1 PTR d   1      23.845   7.755  40.503  0.00  0.00    -0.050 A 
ATOM    157  H34 PTR d   1      23.419   6.377  42.074  0.00  0.00     0.084 H 
ATOM    158  CZ  PTR d   1      23.332   8.488  39.445  0.00  0.00     0.082 A 
ATOM    159  H36 PTR d   1      24.897   7.826  40.753  0.00  0.00     0.087 H 
ATOM    160  CE2 PTR d   1      21.982   8.396  39.126  0.00  0.00    -0.050 A 
ATOM    161  CD2 PTR d   1      21.154   7.552  39.860  0.00  0.00    -0.074 A 
ATOM    162  H37 PTR d   1      21.576   8.980  38.308  0.00  0.00     0.087 H 
ATOM    163  H35 PTR d   1      20.105   7.473  39.600  0.00  0.00     0.084 H 
BRANCH 158 164
ATOM    164  OH  PTR d   1      24.105   9.238  38.820  0.00  0.00    -0.240 OA
BRANCH 164 165
ATOM    165  P   PTR d   1      24.575   8.933  37.326  0.00  0.00     0.427 P 
ATOM    166  O1P PTR d   1      25.432  10.024  36.832  0.00  0.00    -0.617 OA
ATOM    167  O2P PTR d   1      23.349   8.781  36.397  0.00  0.00    -0.617 OA
ATOM    168  O3P PTR d   1      25.381   7.621  37.335  0.00  0.00    -0.617 OA
ENDBRANCH 164 165
ENDBRANCH 158 164
ENDBRANCH 151 154
ENDBRANCH  89 151
ENDBRANCH   3  89
TORSDOF 52
