REMARK  11 active torsions:
REMARK  status: ('A' for Active; 'I' for Inactive)
REMARK    1  A    between atoms: O3B_8  and  PG_1 
REMARK    2  A    between atoms: PB_5  and  O3B_8 
REMARK    3  A    between atoms: O3A_12  and  PB_5 
REMARK    4  A    between atoms: PA_9  and  O3A_12 
REMARK    5  A    between atoms: O5'_23  and  PA_9 
REMARK    6  A    between atoms: C1'_31  and  N9_13 
REMARK    7  A    between atoms: C6_17  and  N6_18 
REMARK    8  A    between atoms: C5'_24  and  O5'_23 
REMARK    9  A    between atoms: C4'_25  and  C5'_24 
REMARK   10  A    between atoms: C3'_27  and  O3'_28 
REMARK   11  A    between atoms: C2'_29  and  O2'_30 
ROOT
ATOM      1  C4' ATP d   1      43.823  52.100  15.476  0.00  0.00     0.089 C 
ATOM      2  O4' ATP d   1      42.645  52.533  14.740  0.00  0.00    -0.353 OA
ATOM      3  C3' ATP d   1      45.021  52.323  14.547  0.00  0.00     0.091 C 
ATOM      4  C2' ATP d   1      44.616  53.544  13.721  0.00  0.00     0.105 C 
ATOM      5  C1' ATP d   1      43.068  53.470  13.708  0.00  0.00     0.139 C 
ATOM      6  H7  ATP d   1      43.734  51.029  15.710  0.00  0.00     0.090 H 
ATOM      7  H8  ATP d   1      45.931  52.541  15.125  0.00  0.00     0.091 H 
ATOM      8  H10 ATP d   1      44.941  54.467  14.224  0.00  0.00     0.093 H 
ATOM      9  H12 ATP d   1      42.737  53.098  12.727  0.00  0.00     0.122 H 
ENDROOT
BRANCH   1  10
ATOM     10  C5' ATP d   1      43.988  52.872  16.792  0.00  0.00     0.058 C 
ATOM     11  H5  ATP d   1      44.860  53.538  16.714  0.00  0.00     0.079 H 
ATOM     12  H6  ATP d   1      43.084  53.472  16.976  0.00  0.00     0.079 H 
BRANCH  10  13
ATOM     13  O5' ATP d   1      44.182  51.966  17.883  0.00  0.00    -0.287 OA
BRANCH  13  14
ATOM     14  PA  ATP d   1      45.765  51.876  18.237  0.00  0.00     0.417 P 
ATOM     15  O1A ATP d   1      46.399  53.227  18.174  0.00  0.00    -0.624 OA
ATOM     16  O2A ATP d   1      45.929  51.284  19.730  0.00  0.00    -0.624 OA
BRANCH  14  17
ATOM     17  O3A ATP d   1      46.458  50.865  17.166  0.00  0.00    -0.180 OA
BRANCH  17  18
ATOM     18  PB  ATP d   1      48.038  50.637  17.470  0.00  0.00     0.428 P 
ATOM     19  O1B ATP d   1      48.500  51.446  18.626  0.00  0.00    -0.624 OA
ATOM     20  O2B ATP d   1      48.864  51.097  16.169  0.00  0.00    -0.624 OA
BRANCH  18  21
ATOM     21  O3B ATP d   1      48.310  49.055  17.727  0.00  0.00    -0.173 OA
BRANCH  21  22
ATOM     22  PG  ATP d   1      47.474  48.518  19.016  0.00  0.00     0.431 P 
ATOM     23  O1G ATP d   1      46.021  48.591  18.748  0.00  0.00    -0.616 OA
ATOM     24  O2G ATP d   1      47.848  46.978  19.265  0.00  0.00    -0.616 OA
ATOM     25  O3G ATP d   1      47.851  49.377  20.328  0.00  0.00    -0.616 OA
ENDBRANCH  21  22
ENDBRANCH  18  21
ENDBRANCH  17  18
ENDBRANCH  14  17
ENDBRANCH  13  14
ENDBRANCH  10  13
ENDBRANCH   1  10
BRANCH   3  26
ATOM     26  O3' ATP d   1      45.241  51.153  13.753  0.00  0.00    -0.390 OA
ATOM     27  H9  ATP d   1      44.467  50.975  13.232  0.00  0.00     0.210 HD
ENDBRANCH   3  26
BRANCH   5  28
ATOM     28  N9  ATP d   1      42.467  54.791  13.931  0.00  0.00    -0.294 N 
ATOM     29  C8  ATP d   1      42.928  55.801  14.736  0.00  0.00     0.071 A 
ATOM     30  N7  ATP d   1      42.123  56.825  14.677  0.00  0.00    -0.236 NA
ATOM     31  H1  ATP d   1      43.835  55.755  15.337  0.00  0.00     0.144 H 
ATOM     32  C5  ATP d   1      41.102  56.555  13.827  0.00  0.00     0.149 A 
ATOM     33  C6  ATP d   1      39.930  57.252  13.377  0.00  0.00     0.155 A 
ATOM     34  C4  ATP d   1      41.300  55.231  13.356  0.00  0.00     0.167 A 
ATOM     35  N1  ATP d   1      39.104  56.647  12.510  0.00  0.00    -0.222 NA
ATOM     36  C2  ATP d   1      39.336  55.401  12.085  0.00  0.00     0.091 A 
ATOM     37  N3  ATP d   1      40.413  54.706  12.481  0.00  0.00    -0.222 NA
ATOM     38  H4  ATP d   1      38.634  54.939  11.401  0.00  0.00     0.146 H 
BRANCH  33  39
ATOM     39  N6  ATP d   1      39.662  58.537  13.787  0.00  0.00    -0.382 N 
ATOM     40  H2  ATP d   1      38.815  59.019  13.452  0.00  0.00     0.157 HD
ATOM     41  H3  ATP d   1      40.308  59.018  14.429  0.00  0.00     0.157 HD
ENDBRANCH  33  39
ENDBRANCH   5  28
BRANCH   4  42
ATOM     42  O2' ATP d   1      45.202  53.518  12.410  0.00  0.00    -0.388 OA
ATOM     43  H11 ATP d   1      44.914  52.737  11.951  0.00  0.00     0.210 HD
ENDBRANCH   4  42
TORSDOF 11
