REMARK  2 active torsions:
REMARK  status: ('A' for Active; 'I' for Inactive)
REMARK    1  A    between atoms: N1_1  and  CA_2 
REMARK    2  A    between atoms: C6_8  and  CD_9 
ROOT
ATOM      1  N1  NVP d   1       2.104 -37.688  21.225  0.00  0.00    -0.309 N 
ATOM      2  N3  NVP d   1       4.347 -36.834  21.484  0.00  0.00    -0.241 NA
ATOM      3  C4  NVP d   1       5.244 -36.110  22.191  0.00  0.00     0.005 A 
ATOM      4  C5  NVP d   1       4.873 -35.366  23.328  0.00  0.00    -0.058 A 
ATOM      5  C6  NVP d   1       3.541 -35.371  23.737  0.00  0.00    -0.030 A 
ATOM      6  C2  NVP d   1       3.049 -36.837  21.887  0.00  0.00     0.159 A 
ATOM      7  C7  NVP d   1       2.599 -36.102  22.995  0.00  0.00     0.087 A 
ATOM      8  N8  NVP d   1       1.194 -36.045  23.334  0.00  0.00    -0.319 N 
ATOM      9  C9  NVP d   1       0.059 -36.096  22.610  0.00  0.00     0.260 C 
ATOM     10  OE  NVP d   1      -1.046 -36.011  23.152  0.00  0.00    -0.267 OA
ATOM     11  C10 NVP d   1       0.102 -36.253  21.087  0.00  0.00     0.078 A 
ATOM     12  C15 NVP d   1       1.110 -37.007  20.426  0.00  0.00     0.147 A 
ATOM     13  C11 NVP d   1      -0.906 -35.680  20.315  0.00  0.00    -0.063 A 
ATOM     14  C12 NVP d   1      -0.897 -35.850  18.927  0.00  0.00    -0.065 A 
ATOM     15  C13 NVP d   1       0.139 -36.598  18.342  0.00  0.00     0.004 A 
ATOM     16  N14 NVP d   1       1.126 -37.167  19.080  0.00  0.00    -0.242 NA
ATOM     17  H6  NVP d   1       6.280 -36.102  21.873  0.00  0.00     0.114 H 
ATOM     18  H7  NVP d   1       5.614 -34.797  23.878  0.00  0.00     0.086 H 
ATOM     19  H11 NVP d   1       1.030 -35.947  24.316  0.00  0.00     0.169 HD
ATOM     20  H12 NVP d   1      -1.694 -35.105  20.788  0.00  0.00     0.085 H 
ATOM     21  H13 NVP d   1      -1.676 -35.412  18.313  0.00  0.00     0.085 H 
ATOM     22  H14 NVP d   1       0.150 -36.725  17.265  0.00  0.00     0.114 H 
ENDROOT
BRANCH   1  23
ATOM     23  CA  NVP d   1       2.692 -38.913  20.621  0.00  0.00     0.020 A 
ATOM     24  CB  NVP d   1       2.938 -40.051  21.544  0.00  0.00    -0.044 A 
ATOM     25  CC  NVP d   1       1.825 -40.115  20.558  0.00  0.00    -0.044 A 
ATOM     26  H2  NVP d   1       2.718 -39.947  22.617  0.00  0.00     0.036 H 
ATOM     27  H3  NVP d   1       3.828 -40.684  21.412  0.00  0.00     0.036 H 
ATOM     28  H4  NVP d   1       1.891 -40.797  19.697  0.00  0.00     0.036 H 
ATOM     29  H5  NVP d   1       0.782 -40.059  20.902  0.00  0.00     0.036 H 
ATOM     30  H1  NVP d   1       3.392 -38.666  19.809  0.00  0.00     0.073 H 
ENDBRANCH   1  23
BRANCH   5  31
ATOM     31  CD  NVP d   1       3.130 -34.636  24.990  0.00  0.00    -0.049 C 
ATOM     32  H8  NVP d   1       4.006 -34.129  25.422  0.00  0.00     0.033 H 
ATOM     33  H9  NVP d   1       2.725 -35.353  25.719  0.00  0.00     0.033 H 
ATOM     34  H10 NVP d   1       2.360 -33.891  24.742  0.00  0.00     0.033 H 
ENDBRANCH   5  31
TORSDOF 2
