REMARK  25 active torsions:
REMARK  status: ('A' for Active; 'I' for Inactive)
REMARK    1  A    between atoms: C4_6  and  C1_2 
REMARK    2  A    between atoms: C3_4  and  C35_46 
REMARK       I    between atoms: N2_8  and  C4_6 
REMARK    3  A    between atoms: C5_9  and  N2_8 
REMARK    4  A    between atoms: C5_9  and  C6_10 
REMARK    5  A    between atoms: C7_11  and  C5_9 
REMARK       I    between atoms: N3_13  and  C7_11 
REMARK    6  A    between atoms: C8_14  and  N3_13 
REMARK    7  A    between atoms: C8_14  and  C9_15 
REMARK    8  A    between atoms: C12_18  and  C8_14 
REMARK    9  A    between atoms: C9_15  and  C10_16 
REMARK   10  A    between atoms: C9_15  and  C11_17 
REMARK       I    between atoms: N4_20  and  C12_18 
REMARK   11  A    between atoms: C13_21  and  N4_20 
REMARK   12  A    between atoms: C13_21  and  C14_22 
REMARK   13  A    between atoms: C18_47  and  C13_21 
REMARK   14  A    between atoms: C14_22  and  C15_23 
REMARK   15  A    between atoms: C15_23  and  C16_24 
REMARK   16  A    between atoms: C15_23  and  C17_25 
REMARK   17  A    between atoms: C19_26  and  C20_27 
REMARK   18  A    between atoms: C19_26  and  C25_34 
REMARK   19  A    between atoms: N5_49  and  C19_26 
REMARK   20  A    between atoms: C20_27  and  C21_28 
REMARK   21  A    between atoms: C21_28  and  C22_29 
REMARK   22  A    between atoms: C22_29  and  O7_31 
REMARK   23  A    between atoms: O7_31  and  C23_32 
REMARK   24  A    between atoms: C23_32  and  C24_33 
REMARK   25  A    between atoms: C25_34  and  C26_35 
REMARK       I    between atoms: C18_47  and  N5_49 
ROOT
ATOM      1  C13 LEU d   1       3.614 -19.640 107.871  0.00  0.00     0.089 C 
ATOM      2  H20 LEU d   1       4.332 -19.527 108.697  0.00  0.00     0.087 H 
ENDROOT
BRANCH   1   3
ATOM      3  N4  LEU d   1       2.978 -18.365 107.580  0.00  0.00    -0.346 N 
ATOM      4  C12 VAL d   1       3.691 -17.249 107.447  0.00  0.00     0.241 C 
ATOM      5  O4  VAL d   1       4.921 -17.215 107.563  0.00  0.00    -0.271 OA
ATOM      6  H19 LEU d   1       1.984 -18.326 107.478  0.00  0.00     0.163 HD
BRANCH   4   7
ATOM      7  C8  VAL d   1       2.907 -15.986 107.133  0.00  0.00     0.092 C 
ATOM      8  H11 VAL d   1       1.832 -16.216 107.178  0.00  0.00     0.088 H 
BRANCH   7   9
ATOM      9  N3  VAL d   1       3.220 -14.989 108.144  0.00  0.00    -0.346 N 
ATOM     10  C7  ALA d   1       1.952 -14.584 108.994  0.00  0.00     0.240 C 
ATOM     11  O3  ALA d   1       0.718 -14.667 108.911  0.00  0.00    -0.271 OA
ATOM     12  H10 VAL d   1       4.132 -14.604 108.285  0.00  0.00     0.163 HD
BRANCH  10  13
ATOM     13  C5  ALA d   1       2.587 -13.667 110.036  0.00  0.00     0.086 C 
ATOM     14  H6  ALA d   1       3.654 -13.541 109.802  0.00  0.00     0.086 H 
BRANCH  13  15
ATOM     15  N2  ALA d   1       1.940 -12.332 110.011  0.00  0.00    -0.346 N 
ATOM     16  C4  02J d   1       1.913 -11.516 108.905  0.00  0.00     0.256 C 
ATOM     17  O2  02J d   1       2.472 -11.830 107.803  0.00  0.00    -0.271 OA
ATOM     18  H5  ALA d   1       1.498 -12.007 110.847  0.00  0.00     0.163 HD
BRANCH  16  19
ATOM     19  C1  02J d   1       0.667 -10.570 109.202  0.00  0.00     0.225 A 
ATOM     20  N1  02J d   1       0.653  -9.607 109.989  0.00  0.00     0.060 N 
ATOM     21  O1  02J d   1       0.188  -8.288 109.496  0.00  0.00    -0.166 OA
ATOM     22  H1  02J d   1       1.596  -9.483 110.322  0.00  0.00     0.316 HD
ATOM     23  H2  02J d   1       0.055  -9.863 110.759  0.00  0.00     0.316 HD
ATOM     24  C3  02J d   1      -0.033  -8.453 108.165  0.00  0.00     0.077 A 
ATOM     25  C2  02J d   1       0.228  -9.753 107.800  0.00  0.00    -0.032 A 
ATOM     26  H4  02J d   1       0.163 -10.172 106.797  0.00  0.00     0.084 H 
ATOM     27  H3  02J d   1      -0.137 -11.252 109.516  0.00  0.00     0.110 H 
BRANCH  24  28
ATOM     28  C35 02J d   1      -0.498  -7.357 107.239  0.00  0.00    -0.030 C 
ATOM     29  H50 02J d   1      -0.624  -6.425 107.809  0.00  0.00     0.036 H 
ATOM     30  H51 02J d   1      -1.459  -7.643 106.786  0.00  0.00     0.036 H 
ATOM     31  H52 02J d   1       0.250  -7.204 106.447  0.00  0.00     0.036 H 
ENDBRANCH  24  28
ENDBRANCH  16  19
ENDBRANCH  13  15
BRANCH  13  32
ATOM     32  C6  ALA d   1       2.456 -14.337 111.421  0.00  0.00    -0.049 C 
ATOM     33  H7  ALA d   1       2.946 -15.322 111.400  0.00  0.00     0.030 H 
ATOM     34  H8  ALA d   1       1.392 -14.463 111.668  0.00  0.00     0.030 H 
ATOM     35  H9  ALA d   1       2.937 -13.704 112.181  0.00  0.00     0.030 H 
ENDBRANCH  13  32
ENDBRANCH  10  13
ENDBRANCH   7   9
BRANCH   7  36
ATOM     36  C9  VAL d   1       3.234 -15.441 105.705  0.00  0.00    -0.033 C 
ATOM     37  H12 VAL d   1       4.308 -15.210 105.660  0.00  0.00     0.042 H 
BRANCH  36  38
ATOM     38  C10 VAL d   1       2.915 -16.446 104.625  0.00  0.00    -0.071 C 
ATOM     39  H13 VAL d   1       3.161 -16.018 103.642  0.00  0.00     0.028 H 
ATOM     40  H14 VAL d   1       1.844 -16.694 104.659  0.00  0.00     0.028 H 
ATOM     41  H15 VAL d   1       3.508 -17.358 104.787  0.00  0.00     0.028 H 
ENDBRANCH  36  38
BRANCH  36  42
ATOM     42  C11 VAL d   1       2.435 -14.156 105.447  0.00  0.00    -0.071 C 
ATOM     43  H16 VAL d   1       2.663 -13.419 106.231  0.00  0.00     0.028 H 
ATOM     44  H17 VAL d   1       1.359 -14.384 105.460  0.00  0.00     0.028 H 
ATOM     45  H18 VAL d   1       2.710 -13.744 104.465  0.00  0.00     0.028 H 
ENDBRANCH  36  42
ENDBRANCH   7  36
ENDBRANCH   4   7
ENDBRANCH   1   3
BRANCH   1  46
ATOM     46  C14 LEU d   1       2.516 -20.633 108.278  0.00  0.00    -0.035 C 
ATOM     47  H21 LEU d   1       2.684 -21.545 107.686  0.00  0.00     0.037 H 
ATOM     48  H22 LEU d   1       1.559 -20.177 107.985  0.00  0.00     0.037 H 
BRANCH  46  49
ATOM     49  C15 LEU d   1       2.355 -21.087 109.745  0.00  0.00    -0.059 C 
ATOM     50  H23 LEU d   1       2.990 -21.971 109.904  0.00  0.00     0.038 H 
BRANCH  49  51
ATOM     51  C16 LEU d   1       2.769 -20.023 110.763  0.00  0.00    -0.073 C 
ATOM     52  H24 LEU d   1       2.628 -20.415 111.781  0.00  0.00     0.028 H 
ATOM     53  H25 LEU d   1       2.149 -19.125 110.627  0.00  0.00     0.028 H 
ATOM     54  H26 LEU d   1       3.828 -19.764 110.613  0.00  0.00     0.028 H 
ENDBRANCH  49  51
BRANCH  49  55
ATOM     55  C17 LEU d   1       0.884 -21.483 109.962  0.00  0.00    -0.073 C 
ATOM     56  H27 LEU d   1       0.598 -22.248 109.225  0.00  0.00     0.028 H 
ATOM     57  H28 LEU d   1       0.244 -20.597 109.839  0.00  0.00     0.028 H 
ATOM     58  H29 LEU d   1       0.759 -21.887 110.977  0.00  0.00     0.028 H 
ENDBRANCH  49  55
ENDBRANCH  46  49
ENDBRANCH   1  46
BRANCH   1  59
ATOM     59  C18 LEU d   1       4.350 -20.102 106.619  0.00  0.00     0.240 C 
ATOM     60  O5  LEU d   1       3.716 -20.198 105.552  0.00  0.00    -0.271 OA
ATOM     61  N5  PJE d   1       5.669 -20.374 106.752  0.00  0.00    -0.355 N 
ATOM     62  H53 PJE d   1       6.121 -20.266 107.638  0.00  0.00     0.162 HD
BRANCH  61  63
ATOM     63  C19 PJE d   1       6.432 -20.831 105.577  0.00  0.00     0.013 C 
ATOM     64  H30 PJE d   1       5.729 -20.707 104.740  0.00  0.00     0.072 H 
BRANCH  63  65
ATOM     65  C20 PJE d   1       6.923 -22.275 105.620  0.00  0.00    -0.038 C 
ATOM     66  H31 PJE d   1       7.021 -22.672 106.641  0.00  0.00     0.036 H 
ATOM     67  H32 PJE d   1       7.864 -22.432 105.073  0.00  0.00     0.036 H 
BRANCH  65  68
ATOM     68  C21 PJE d   1       5.688 -22.809 104.874  0.00  0.00     0.018 C 
ATOM     69  H33 PJE d   1       5.367 -22.073 104.122  0.00  0.00     0.048 H 
ATOM     70  H34 PJE d   1       4.872 -22.981 105.591  0.00  0.00     0.048 H 
BRANCH  68  71
ATOM     71  C22 PJE d   1       6.040 -24.112 104.188  0.00  0.00     0.259 C 
ATOM     72  O6  PJE d   1       7.010 -24.850 104.100  0.00  0.00    -0.265 OA
BRANCH  71  73
ATOM     73  O7  010 d   1       4.826 -24.283 103.647  0.00  0.00    -0.317 OA
BRANCH  73  74
ATOM     74  C23 010 d   1       4.370 -25.436 102.974  0.00  0.00     0.052 C 
ATOM     75  H35 010 d   1       4.626 -26.331 103.561  0.00  0.00     0.082 H 
ATOM     76  H36 010 d   1       4.847 -25.498 101.985  0.00  0.00     0.082 H 
BRANCH  74  77
ATOM     77  C24 010 d   1       2.851 -25.349 102.807  0.00  0.00    -0.034 A 
ATOM     78  C30 010 d   1       2.089 -24.452 103.645  0.00  0.00    -0.075 A 
ATOM     79  C31 010 d   1       0.678 -24.309 103.535  0.00  0.00    -0.082 A 
ATOM     80  H45 010 d   1       2.614 -23.863 104.388  0.00  0.00     0.084 H 
ATOM     81  C32 010 d   1      -0.047 -25.079 102.569  0.00  0.00    -0.083 A 
ATOM     82  H46 010 d   1       0.151 -23.617 104.182  0.00  0.00     0.083 H 
ATOM     83  C33 010 d   1       0.662 -26.007 101.684  0.00  0.00    -0.082 A 
ATOM     84  H47 010 d   1      -1.123 -24.975 102.492  0.00  0.00     0.083 H 
ATOM     85  C34 010 d   1       2.119 -26.150 101.802  0.00  0.00    -0.075 A 
ATOM     86  H48 010 d   1       0.115 -26.584 100.947  0.00  0.00     0.083 H 
ATOM     87  H49 010 d   1       2.654 -26.838 101.157  0.00  0.00     0.084 H 
ENDBRANCH  74  77
ENDBRANCH  73  74
ENDBRANCH  71  73
ENDBRANCH  68  71
ENDBRANCH  65  68
ENDBRANCH  63  65
BRANCH  63  88
ATOM     88  C25 PJE d   1       7.898 -20.187 105.108  0.00  0.00    -0.035 C 
ATOM     89  H37 PJE d   1       8.312 -20.769 104.272  0.00  0.00     0.037 H 
ATOM     90  H38 PJE d   1       8.602 -20.207 105.953  0.00  0.00     0.037 H 
BRANCH  88  91
ATOM     91  C26 PJE d   1       7.654 -18.731 104.663  0.00  0.00     0.027 C 
ATOM     92  C27 PJE d   1       7.163 -18.559 103.207  0.00  0.00    -0.039 C 
ATOM     93  C28 PJE d   1       7.774 -17.240 102.689  0.00  0.00    -0.004 C 
ATOM     94  H40 PJE d   1       6.065 -18.505 103.181  0.00  0.00     0.036 H 
ATOM     95  H41 PJE d   1       7.503 -19.403 102.589  0.00  0.00     0.036 H 
ATOM     96  N6  PJE d   1       8.898 -17.044 103.595  0.00  0.00    -0.361 N 
ATOM     97  H42 PJE d   1       7.054 -16.412 102.762  0.00  0.00     0.064 H 
ATOM     98  H43 PJE d   1       8.114 -17.340 101.648  0.00  0.00     0.064 H 
ATOM     99  C29 PJE d   1       8.863 -17.836 104.686  0.00  0.00     0.221 C 
ATOM    100  H44 PJE d   1       9.628 -16.383 103.424  0.00  0.00     0.162 HD
ATOM    101  O8  PJE d   1       9.695 -17.767 105.590  0.00  0.00    -0.273 OA
ATOM    102  H39 PJE d   1       6.895 -18.322 105.346  0.00  0.00     0.054 H 
ENDBRANCH  88  91
ENDBRANCH  63  88
ENDBRANCH  61  63
ENDBRANCH   1  59
TORSDOF 25
