REMARK  6 active torsions:
REMARK  status: ('A' for Active; 'I' for Inactive)
REMARK    1  A    between atoms: C1_2  and  C24_26 
REMARK    2  A    between atoms: C7_9  and  C8_10 
REMARK    3  A    between atoms: C15_17  and  C17_19 
REMARK    4  A    between atoms: C17_19  and  N18_20 
REMARK    5  A    between atoms: C25_27  and  C29_31 
REMARK    6  A    between atoms: C29_31  and  O_32 
ROOT
ATOM      1  C8  710 d   1      17.776  -0.861   9.319  0.00  0.00     0.062 A 
ATOM      2  N9  710 d   1      18.686  -0.087   8.661  0.00  0.00    -0.354 N 
ATOM      3  C10 710 d   1      18.415  -2.018   9.713  0.00  0.00    -0.043 A 
ATOM      4  C11 710 d   1      19.748  -1.953   9.284  0.00  0.00    -0.007 A 
ATOM      5  C12 710 d   1      19.902  -0.721   8.615  0.00  0.00     0.043 A 
ATOM      6  C13 710 d   1      21.136  -0.310   8.040  0.00  0.00    -0.056 A 
ATOM      7  C14 710 d   1      22.237  -1.202   8.148  0.00  0.00    -0.073 A 
ATOM      8  C15 710 d   1      22.115  -2.455   8.812  0.00  0.00    -0.032 A 
ATOM      9  C16 710 d   1      20.865  -2.834   9.385  0.00  0.00    -0.063 A 
ATOM     10  H5  710 d   1      18.489   0.840   8.257  0.00  0.00     0.166 HD
ATOM     11  H6  710 d   1      17.962  -2.841  10.263  0.00  0.00     0.088 H 
ATOM     12  H7  710 d   1      21.233   0.646   7.539  0.00  0.00     0.087 H 
ATOM     13  H8  710 d   1      23.191  -0.922   7.715  0.00  0.00     0.084 H 
ATOM     14  H9  710 d   1      20.765  -3.786   9.894  0.00  0.00     0.085 H 
ENDROOT
BRANCH   1  15
ATOM     15  C7  710 d   1      16.362  -0.508   9.557  0.00  0.00     0.089 A 
ATOM     16  C4  710 d   1      15.406  -1.185  10.374  0.00  0.00     0.025 A 
ATOM     17  C3  710 d   1      15.363  -2.350  11.217  0.00  0.00    -0.068 A 
ATOM     18  C5  710 d   1      14.237  -0.408  10.240  0.00  0.00     0.090 A 
ATOM     19  C   710 d   1      14.159  -2.678  11.896  0.00  0.00    -0.070 A 
ATOM     20  H3  710 d   1      16.243  -2.973  11.333  0.00  0.00     0.085 H 
ATOM     21  C1  710 d   1      12.989  -1.878  11.757  0.00  0.00    -0.001 A 
ATOM     22  H1  710 d   1      14.130  -3.555  12.533  0.00  0.00     0.084 H 
ATOM     23  C2  710 d   1      13.020  -0.714  10.904  0.00  0.00    -0.040 A 
ATOM     24  H2  710 d   1      12.141  -0.093  10.774  0.00  0.00     0.088 H 
ATOM     25  N   710 d   1      14.573   0.611   9.393  0.00  0.00    -0.174 NA
ATOM     26  N6  710 d   1      15.842   0.577   8.969  0.00  0.00    -0.275 N 
ATOM     27  H4  710 d   1      16.313   1.237   8.334  0.00  0.00     0.189 HD
BRANCH  21  28
ATOM     28  C24 710 d   1      11.768  -2.243  12.499  0.00  0.00     0.117 A 
ATOM     29  C25 710 d   1      10.695  -1.437  13.031  0.00  0.00     0.084 A 
ATOM     30  N26 710 d   1       9.806  -2.231  13.637  0.00  0.00    -0.259 N 
ATOM     31  N27 710 d   1      10.351  -3.431  13.457  0.00  0.00    -0.068 NA
ATOM     32  H23 710 d   1       8.930  -1.980  14.117  0.00  0.00     0.190 HD
ATOM     33  N28 710 d   1      11.506  -3.523  12.797  0.00  0.00    -0.129 NA
BRANCH  29  34
ATOM     34  C29 710 d   1      10.463   0.035  13.003  0.00  0.00     0.058 C 
ATOM     35  H24 710 d   1       9.789   0.271  12.166  0.00  0.00     0.083 H 
ATOM     36  H25 710 d   1      11.427   0.542  12.851  0.00  0.00     0.083 H 
BRANCH  34  37
ATOM     37  O   710 d   1       9.880   0.514  14.208  0.00  0.00    -0.395 OA
ATOM     38  H26 710 d   1       9.751   1.453  14.145  0.00  0.00     0.209 HD
ENDBRANCH  34  37
ENDBRANCH  29  34
ENDBRANCH  21  28
ENDBRANCH   1  15
BRANCH   8  39
ATOM     39  C17 710 d   1      23.287  -3.399   8.885  0.00  0.00     0.107 C 
ATOM     40  H10 710 d   1      23.056  -4.183   9.621  0.00  0.00     0.083 H 
ATOM     41  H11 710 d   1      24.169  -2.832   9.217  0.00  0.00     0.083 H 
BRANCH  39  42
ATOM     42  N18 710 d   1      23.625  -4.083   7.529  0.00  0.00    -0.067 N 
ATOM     43  C19 710 d   1      24.691  -5.164   7.726  0.00  0.00     0.084 C 
ATOM     44  C20 710 d   1      25.037  -5.846   6.384  0.00  0.00    -0.042 C 
ATOM     45  H13 710 d   1      24.311  -5.921   8.428  0.00  0.00     0.076 H 
ATOM     46  H14 710 d   1      25.599  -4.703   8.141  0.00  0.00     0.076 H 
ATOM     47  C21 710 d   1      23.788  -6.416   5.699  0.00  0.00    -0.062 C 
ATOM     48  H15 710 d   1      25.745  -6.666   6.573  0.00  0.00     0.035 H 
ATOM     49  H16 710 d   1      25.503  -5.105   5.717  0.00  0.00     0.035 H 
ATOM     50  C22 710 d   1      22.720  -5.341   5.514  0.00  0.00    -0.042 C 
ATOM     51  H17 710 d   1      23.377  -7.227   6.319  0.00  0.00     0.033 H 
ATOM     52  H18 710 d   1      24.070  -6.815   4.713  0.00  0.00     0.033 H 
ATOM     53  C23 710 d   1      22.362  -4.678   6.849  0.00  0.00     0.084 C 
ATOM     54  H19 710 d   1      21.816  -5.803   5.089  0.00  0.00     0.035 H 
ATOM     55  H20 710 d   1      23.099  -4.574   4.823  0.00  0.00     0.035 H 
ATOM     56  H21 710 d   1      21.637  -3.871   6.667  0.00  0.00     0.076 H 
ATOM     57  H22 710 d   1      21.914  -5.430   7.516  0.00  0.00     0.076 H 
ATOM     58  H12 710 d   1      24.003  -3.379   6.914  0.00  0.00     0.280 HD
ENDBRANCH  39  42
ENDBRANCH   8  39
TORSDOF 6
