REMARK  9 active torsions:
REMARK  status: ('A' for Active; 'I' for Inactive)
REMARK    1  A    between atoms: N1_8  and  C1'_9 
REMARK    2  A    between atoms: C3'_11  and  O3'_12 
REMARK    3  A    between atoms: C4'_14  and  C5'_15 
REMARK    4  A    between atoms: C5'_15  and  O5'_16 
REMARK    5  A    between atoms: O5'_16  and  PA_17 
REMARK    6  A    between atoms: PA_17  and  N3A_20 
REMARK    7  A    between atoms: N3A_20  and  PB_21 
REMARK    8  A    between atoms: PB_21  and  O3B_24 
REMARK    9  A    between atoms: O3B_24  and  PG_25 
ROOT
ATOM      1  C1' DUP d   1      23.197   7.348  -6.862  0.00  0.00     0.116 C 
ATOM      2  C2' DUP d   1      24.352   6.628  -7.553  0.00  0.00     0.002 C 
ATOM      3  C3' DUP d   1      23.892   5.183  -7.551  0.00  0.00     0.066 C 
ATOM      4  O4' DUP d   1      22.087   6.456  -6.846  0.00  0.00    -0.356 OA
ATOM      5  C4' DUP d   1      22.378   5.305  -7.627  0.00  0.00     0.087 C 
ATOM      6  H4  DUP d   1      22.930   8.278  -7.386  0.00  0.00     0.118 H 
ATOM      7  H5  DUP d   1      25.288   6.747  -6.988  0.00  0.00     0.043 H 
ATOM      8  H6  DUP d   1      24.493   6.998  -8.579  0.00  0.00     0.043 H 
ATOM      9  H7  DUP d   1      24.177   4.705  -6.602  0.00  0.00     0.087 H 
ATOM     10  H9  DUP d   1      22.060   5.451  -8.670  0.00  0.00     0.090 H 
ENDROOT
BRANCH   5  11
ATOM     11  C5' DUP d   1      21.663   4.096  -7.057  0.00  0.00     0.057 C 
ATOM     12  H10 DUP d   1      21.991   3.188  -7.585  0.00  0.00     0.079 H 
ATOM     13  H11 DUP d   1      20.576   4.218  -7.177  0.00  0.00     0.079 H 
BRANCH  11  14
ATOM     14  O5' DUP d   1      21.981   3.989  -5.684  0.00  0.00    -0.293 OA
BRANCH  14  15
ATOM     15  PA  DUP d   1      21.315   2.895  -4.701  0.00  0.00     0.368 P 
ATOM     16  O1A DUP d   1      20.976   1.662  -5.498  0.00  0.00    -0.629 OA
ATOM     17  O2A DUP d   1      22.235   2.682  -3.522  0.00  0.00    -0.629 OA
BRANCH  15  18
ATOM     18  N3A DUP d   1      19.872   3.565  -4.205  0.00  0.00    -0.225 N 
ATOM     19  H12 DUP d   1      19.915   4.261  -3.488  0.00  0.00     0.178 HD
BRANCH  18  20
ATOM     20  PB  DUP d   1      18.351   3.174  -4.805  0.00  0.00     0.379 P 
ATOM     21  O1B DUP d   1      18.212   1.682  -4.873  0.00  0.00    -0.629 OA
ATOM     22  O2B DUP d   1      17.357   3.912  -3.955  0.00  0.00    -0.629 OA
BRANCH  20  23
ATOM     23  O3B DUP d   1      18.295   3.720  -6.316  0.00  0.00    -0.178 OA
BRANCH  23  24
ATOM     24  PG  DUP d   1      18.022   2.759  -7.569  0.00  0.00     0.431 P 
ATOM     25  O2G DUP d   1      19.057   1.658  -7.723  0.00  0.00    -0.616 OA
ATOM     26  O1G DUP d   1      16.691   2.138  -7.299  0.00  0.00    -0.616 OA
ATOM     27  O3G DUP d   1      18.102   3.542  -8.846  0.00  0.00    -0.616 OA
ENDBRANCH  23  24
ENDBRANCH  20  23
ENDBRANCH  18  20
ENDBRANCH  15  18
ENDBRANCH  14  15
ENDBRANCH  11  14
ENDBRANCH   5  11
BRANCH   3  28
ATOM     28  O3' DUP d   1      24.446   4.420  -8.598  0.00  0.00    -0.393 OA
ATOM     29  H8  DUP d   1      24.122   3.529  -8.544  0.00  0.00     0.210 HD
ENDBRANCH   3  28
BRANCH   1  30
ATOM     30  N1  DUP d   1      23.681   7.640  -5.496  0.00  0.00    -0.282 N 
ATOM     31  C6  DUP d   1      23.528   6.714  -4.489  0.00  0.00    -0.008 A 
ATOM     32  C5  DUP d   1      23.994   6.969  -3.200  0.00  0.00    -0.002 A 
ATOM     33  H2  DUP d   1      23.035   5.767  -4.703  0.00  0.00     0.112 H 
ATOM     34  C4  DUP d   1      24.634   8.174  -2.965  0.00  0.00     0.250 A 
ATOM     35  H1  DUP d   1      23.858   6.241  -2.401  0.00  0.00     0.094 H 
ATOM     36  O4  DUP d   1      25.082   8.448  -1.859  0.00  0.00    -0.268 OA
ATOM     37  N3  DUP d   1      24.814   9.078  -3.992  0.00  0.00    -0.275 N 
ATOM     38  C2  DUP d   1      24.345   8.836  -5.266  0.00  0.00     0.331 A 
ATOM     39  H3  DUP d   1      25.298   9.933  -3.807  0.00  0.00     0.173 HD
ATOM     40  O2  DUP d   1      24.520   9.687  -6.158  0.00  0.00    -0.246 OA
ENDBRANCH   1  30
TORSDOF 9
