REMARK  7 active torsions:
REMARK  status: ('A' for Active; 'I' for Inactive)
REMARK    1  A    between atoms: N1_1  and  C1'_9 
REMARK    2  A    between atoms: C3'_11  and  O3'_14 
REMARK    3  A    between atoms: C4'_12  and  C5'_15 
REMARK    4  A    between atoms: C5'_15  and  O5'_16 
REMARK    5  A    between atoms: O5'_16  and  PA_17 
REMARK    6  A    between atoms: PA_17  and  O3A_20 
REMARK    7  A    between atoms: O3A_20  and  PB_21 
ROOT
ATOM      1  C1' DUD d   1      -8.664  30.865   5.415  0.00  0.00     0.116 C 
ATOM      2  C2' DUD d   1      -8.521  31.308   6.878  0.00  0.00     0.002 C 
ATOM      3  C3' DUD d   1      -9.606  32.365   7.055  0.00  0.00     0.066 C 
ATOM      4  C4' DUD d   1     -10.637  31.957   6.000  0.00  0.00     0.087 C 
ATOM      5  O4' DUD d   1      -9.877  31.379   4.917  0.00  0.00    -0.356 OA
ATOM      6  H4  DUD d   1      -8.652  29.767   5.349  0.00  0.00     0.118 H 
ATOM      7  H5  DUD d   1      -7.525  31.737   7.060  0.00  0.00     0.043 H 
ATOM      8  H6  DUD d   1      -8.686  30.461   7.560  0.00  0.00     0.043 H 
ATOM      9  H7  DUD d   1      -9.217  33.369   6.830  0.00  0.00     0.087 H 
ATOM     10  H8  DUD d   1     -11.308  31.199   6.430  0.00  0.00     0.090 H 
ENDROOT
BRANCH   4  11
ATOM     11  C5' DUD d   1     -11.491  33.107   5.488  0.00  0.00     0.058 C 
ATOM     12  H10 DUD d   1     -12.103  33.498   6.314  0.00  0.00     0.079 H 
ATOM     13  H11 DUD d   1     -12.149  32.739   4.687  0.00  0.00     0.079 H 
BRANCH  11  14
ATOM     14  O5' DUD d   1     -10.670  34.155   4.976  0.00  0.00    -0.287 OA
BRANCH  14  15
ATOM     15  PA  DUD d   1     -11.359  35.557   4.544  0.00  0.00     0.418 P 
ATOM     16  O1A DUD d   1     -12.390  35.957   5.587  0.00  0.00    -0.624 OA
ATOM     17  O2A DUD d   1     -10.242  36.574   4.278  0.00  0.00    -0.624 OA
BRANCH  15  18
ATOM     18  O3A DUD d   1     -12.024  35.308   3.129  0.00  0.00    -0.173 OA
BRANCH  18  19
ATOM     19  PB  DUD d   1     -13.480  35.496   2.525  0.00  0.00     0.431 P 
ATOM     20  O1B DUD d   1     -14.491  36.272   3.335  0.00  0.00    -0.616 OA
ATOM     21  O2B DUD d   1     -13.440  35.602   1.039  0.00  0.00    -0.616 OA
ATOM     22  O3B DUD d   1     -13.969  33.968   2.635  0.00  0.00    -0.616 OA
ENDBRANCH  18  19
ENDBRANCH  15  18
ENDBRANCH  14  15
ENDBRANCH  11  14
ENDBRANCH   4  11
BRANCH   3  23
ATOM     23  O3' DUD d   1     -10.079  32.356   8.389  0.00  0.00    -0.393 OA
ATOM     24  H9  DUD d   1     -10.806  32.962   8.470  0.00  0.00     0.210 HD
ENDBRANCH   3  23
BRANCH   1  25
ATOM     25  N1  DUD d   1      -7.580  31.432   4.614  0.00  0.00    -0.282 N 
ATOM     26  C2  DUD d   1      -6.568  30.659   4.138  0.00  0.00     0.331 A 
ATOM     27  N3  DUD d   1      -5.567  31.279   3.409  0.00  0.00    -0.275 N 
ATOM     28  O2  DUD d   1      -6.524  29.442   4.327  0.00  0.00    -0.246 OA
ATOM     29  C4  DUD d   1      -5.525  32.630   3.113  0.00  0.00     0.250 A 
ATOM     30  H1  DUD d   1      -4.819  30.708   3.071  0.00  0.00     0.173 HD
ATOM     31  C5  DUD d   1      -6.549  33.452   3.618  0.00  0.00    -0.002 A 
ATOM     32  O4  DUD d   1      -4.558  33.055   2.461  0.00  0.00    -0.268 OA
ATOM     33  C6  DUD d   1      -7.566  32.826   4.343  0.00  0.00    -0.008 A 
ATOM     34  H2  DUD d   1      -6.549  34.528   3.451  0.00  0.00     0.094 H 
ATOM     35  H3  DUD d   1      -8.387  33.436   4.718  0.00  0.00     0.112 H 
ENDBRANCH   1  25
TORSDOF 7
