REMARK WARNING: 32 MAX_TORS EXCEEDED!!!
REMARK  40 active torsions:
REMARK  status: ('A' for Active; 'I' for Inactive)
REMARK    1  A    between atoms: N_1  and  CA_2 
REMARK    2  A    between atoms: CA_2  and  C_3 
REMARK    3  A    between atoms: CA_2  and  CB_5 
REMARK       I    between atoms: C_3  and  N_9 
REMARK    4  A    between atoms: CB_5  and  CG_6 
REMARK    5  A    between atoms: CG_6  and  SD_7 
REMARK    6  A    between atoms: SD_7  and  CE_8 
REMARK    7  A    between atoms: N_9  and  CA_10 
REMARK    8  A    between atoms: CA_10  and  C_11 
REMARK    9  A    between atoms: CA_10  and  CB_13 
REMARK       I    between atoms: C_11  and  N_15 
REMARK   10  A    between atoms: CB_13  and  OG_14 
REMARK   11  A    between atoms: N_15  and  CA_16 
REMARK   12  A    between atoms: CA_16  and  C_17 
REMARK   13  A    between atoms: CA_16  and  CB_19 
REMARK       I    between atoms: C_17  and  N_23 
REMARK   14  A    between atoms: CB_19  and  CG_20 
REMARK   15  A    between atoms: CG_20  and  CD1_21 
REMARK   16  A    between atoms: CG_20  and  CD2_22 
REMARK   17  A    between atoms: CA_24  and  C_25 
REMARK       I    between atoms: C_25  and  N_30 
REMARK   18  A    between atoms: N_30  and  CA_31 
REMARK   19  A    between atoms: CA_31  and  C_32 
REMARK       I    between atoms: C_32  and  N_34 
REMARK   20  A    between atoms: N_34  and  CA_35 
REMARK   21  A    between atoms: CA_35  and  C_36 
REMARK   22  A    between atoms: CA_35  and  CB_38 
REMARK       I    between atoms: C_36  and  N_45 
REMARK   23  A    between atoms: CB_38  and  CG_39 
REMARK   24  A    between atoms: CG_39  and  CD_40 
REMARK   25  A    between atoms: CD_40  and  NE_41 
REMARK       I    between atoms: NE_41  and  CZ_42 
REMARK       I    between atoms: CZ_42  and  NH1_43 
REMARK   26  A    between atoms: N_45  and  CA_46 
REMARK   27  A    between atoms: CA_46  and  C_47 
REMARK   28  A    between atoms: CA_46  and  CB_49 
REMARK       I    between atoms: C_47  and  N_59 
REMARK   29  A    between atoms: CB_49  and  CG_50 
REMARK   30  A    between atoms: N_59  and  CA_60 
REMARK   31  A    between atoms: CA_60  and  C_61 
REMARK   32  A    between atoms: CA_60  and  CB_63 
REMARK       I    between atoms: C_61  and  N_68 
REMARK   33  A    between atoms: CB_63  and  CG_64 
REMARK   34  A    between atoms: CG_64  and  CD_65 
REMARK   35  A    between atoms: CD_65  and  CE_66 
REMARK   36  A    between atoms: CE_66  and  NZ_67 
REMARK   37  A    between atoms: CA_69  and  C_70 
REMARK       I    between atoms: C_70  and  N_75 
REMARK   38  A    between atoms: N_75  and  CA_76 
REMARK   39  A    between atoms: CA_76  and  C_77 
REMARK   40  A    between atoms: CA_76  and  CB_79 
ROOT
ATOM      1  CA  ARG d   1      10.961  28.872  59.000  0.00  0.00     0.089 C 
ATOM      2  H39 ARG d   1      11.333  27.914  58.608  0.00  0.00     0.087 H 
ENDROOT
BRANCH   1   3
ATOM      3  N   ARG d   1      10.148  29.478  57.957  0.00  0.00    -0.346 N 
ATOM      4  C   GLY d   1      10.225  29.027  56.717  0.00  0.00     0.236 C 
ATOM      5  O   GLY d   1      10.884  28.024  56.424  0.00  0.00    -0.272 OA
ATOM      6  H38 ARG d   1       9.532  30.234  58.178  0.00  0.00     0.163 HD
BRANCH   4   7
ATOM      7  CA  GLY d   1       9.385  29.749  55.678  0.00  0.00     0.069 C 
ATOM      8  H36 GLY d   1      10.039  30.036  54.842  0.00  0.00     0.078 H 
ATOM      9  H37 GLY d   1       8.610  29.057  55.317  0.00  0.00     0.078 H 
BRANCH   7  10
ATOM     10  N   GLY d   1       8.732  30.945  56.179  0.00  0.00    -0.351 N 
ATOM     11  C   PRO d   1       9.373  32.108  56.304  0.00  0.00     0.241 C 
ATOM     12  O   PRO d   1      10.570  32.263  56.036  0.00  0.00    -0.271 OA
ATOM     13  H35 GLY d   1       7.768  30.895  56.440  0.00  0.00     0.163 HD
BRANCH  11  14
ATOM     14  CA  PRO d   1       8.521  33.276  56.837  0.00  0.00     0.091 C 
ATOM     15  N   PRO d   1       8.963  33.861  58.106  0.00  0.00    -0.337 N 
ATOM     16  C   LEU d   1       9.380  33.105  59.130  0.00  0.00     0.243 C 
ATOM     17  CD  PRO d   1       8.957  35.333  58.037  0.00  0.00    -0.001 C 
ATOM     18  O   LEU d   1       9.410  31.873  59.063  0.00  0.00    -0.271 OA
ATOM     19  CG  PRO d   1       8.115  35.580  56.825  0.00  0.00    -0.048 C 
ATOM     20  H33 PRO d   1       9.974  35.732  57.906  0.00  0.00     0.064 H 
ATOM     21  H34 PRO d   1       8.503  35.774  58.937  0.00  0.00     0.064 H 
ATOM     22  CB  PRO d   1       8.531  34.480  55.899  0.00  0.00    -0.036 C 
ATOM     23  H31 PRO d   1       7.044  35.510  57.066  0.00  0.00     0.035 H 
ATOM     24  H32 PRO d   1       8.329  36.567  56.389  0.00  0.00     0.035 H 
ATOM     25  H29 PRO d   1       7.813  34.354  55.075  0.00  0.00     0.036 H 
ATOM     26  H30 PRO d   1       9.534  34.660  55.486  0.00  0.00     0.036 H 
ATOM     27  H28 PRO d   1       7.493  32.902  56.952  0.00  0.00     0.087 H 
BRANCH  16  28
ATOM     28  CA  LEU d   1       9.809  33.815  60.394  0.00  0.00     0.090 C 
ATOM     29  H18 LEU d   1      10.068  34.867  60.201  0.00  0.00     0.087 H 
BRANCH  28  30
ATOM     30  N   LEU d   1       8.649  33.712  61.262  0.00  0.00    -0.346 N 
ATOM     31  C   SER d   1       7.973  34.776  61.668  0.00  0.00     0.243 C 
ATOM     32  O   SER d   1       8.324  35.922  61.407  0.00  0.00    -0.271 OA
ATOM     33  H17 LEU d   1       8.351  32.806  61.563  0.00  0.00     0.163 HD
BRANCH  31  34
ATOM     34  CA  SER d   1       6.742  34.498  62.535  0.00  0.00     0.109 C 
ATOM     35  H13 SER d   1       6.706  33.413  62.714  0.00  0.00     0.090 H 
BRANCH  34  36
ATOM     36  N   SER d   1       6.766  35.152  63.830  0.00  0.00    -0.344 N 
ATOM     37  C   MET d   1       7.582  34.750  64.787  0.00  0.00     0.249 C 
ATOM     38  O   MET d   1       8.356  33.801  64.646  0.00  0.00    -0.271 OA
ATOM     39  H12 SER d   1       6.152  35.923  64.001  0.00  0.00     0.163 HD
BRANCH  37  40
ATOM     40  CA  MET d   1       7.487  35.499  66.118  0.00  0.00     0.176 C 
ATOM     41  H4  MET d   1       6.478  35.339  66.526  0.00  0.00     0.099 H 
BRANCH  40  42
ATOM     42  N   MET d   1       8.472  34.981  67.104  0.00  0.00    -0.066 N 
ATOM     43  H1  MET d   1       8.384  35.493  67.968  0.00  0.00     0.275 HD
ATOM     44  H2  MET d   1       9.405  35.095  66.739  0.00  0.00     0.275 HD
ATOM     45  H3  MET d   1       8.295  34.003  67.274  0.00  0.00     0.275 HD
ENDBRANCH  40  42
BRANCH  40  46
ATOM     46  CB  MET d   1       7.687  36.998  65.916  0.00  0.00    -0.022 C 
ATOM     47  H5  MET d   1       8.180  37.162  64.946  0.00  0.00     0.037 H 
ATOM     48  H6  MET d   1       8.329  37.382  66.723  0.00  0.00     0.037 H 
BRANCH  46  49
ATOM     49  CG  MET d   1       6.385  37.753  65.932  0.00  0.00    -0.021 C 
ATOM     50  H7  MET d   1       5.724  37.299  66.685  0.00  0.00     0.049 H 
ATOM     51  H8  MET d   1       5.919  37.672  64.939  0.00  0.00     0.049 H 
BRANCH  49  52
ATOM     52  SD  MET d   1       6.595  39.477  66.324  0.00  0.00    -0.173 SA
BRANCH  52  53
ATOM     53  CE  MET d   1       7.122  39.323  68.071  0.00  0.00    -0.035 C 
ATOM     54  H9  MET d   1       7.302  40.324  68.489  0.00  0.00     0.041 H 
ATOM     55  H10 MET d   1       8.048  38.731  68.124  0.00  0.00     0.041 H 
ATOM     56  H11 MET d   1       6.332  38.821  68.649  0.00  0.00     0.041 H 
ENDBRANCH  52  53
ENDBRANCH  49  52
ENDBRANCH  46  49
ENDBRANCH  40  46
ENDBRANCH  37  40
ENDBRANCH  34  36
BRANCH  34  57
ATOM     57  CB  SER d   1       5.470  34.904  61.787  0.00  0.00     0.044 C 
ATOM     58  H14 SER d   1       5.624  35.894  61.332  0.00  0.00     0.077 H 
ATOM     59  H15 SER d   1       4.636  34.955  62.503  0.00  0.00     0.077 H 
BRANCH  57  60
ATOM     60  OG  SER d   1       5.145  33.976  60.769  0.00  0.00    -0.398 OA
ATOM     61  H16 SER d   1       4.353  34.258  60.326  0.00  0.00     0.209 HD
ENDBRANCH  57  60
ENDBRANCH  34  57
ENDBRANCH  31  34
ENDBRANCH  28  30
BRANCH  28  62
ATOM     62  CB  LEU d   1      11.007  33.078  60.982  0.00  0.00    -0.035 C 
ATOM     63  H19 LEU d   1      11.811  33.133  60.233  0.00  0.00     0.037 H 
ATOM     64  H20 LEU d   1      10.700  32.030  61.114  0.00  0.00     0.037 H 
BRANCH  62  65
ATOM     65  CG  LEU d   1      11.612  33.529  62.309  0.00  0.00    -0.059 C 
ATOM     66  H21 LEU d   1      10.868  33.413  63.111  0.00  0.00     0.038 H 
BRANCH  65  67
ATOM     67  CD1 LEU d   1      12.839  32.657  62.621  0.00  0.00    -0.073 C 
ATOM     68  H22 LEU d   1      13.282  32.975  63.576  0.00  0.00     0.028 H 
ATOM     69  H23 LEU d   1      13.582  32.769  61.818  0.00  0.00     0.028 H 
ATOM     70  H24 LEU d   1      12.531  31.603  62.693  0.00  0.00     0.028 H 
ENDBRANCH  65  67
BRANCH  65  71
ATOM     71  CD2 LEU d   1      12.019  34.997  62.205  0.00  0.00    -0.073 C 
ATOM     72  H25 LEU d   1      11.132  35.608  61.982  0.00  0.00     0.028 H 
ATOM     73  H26 LEU d   1      12.759  35.116  61.400  0.00  0.00     0.028 H 
ATOM     74  H27 LEU d   1      12.459  35.324  63.159  0.00  0.00     0.028 H 
ENDBRANCH  65  71
ENDBRANCH  62  65
ENDBRANCH  28  62
ENDBRANCH  16  28
ENDBRANCH  11  14
ENDBRANCH   7  10
ENDBRANCH   4   7
ENDBRANCH   1   3
BRANCH   1  75
ATOM     75  C   ARG d   1      10.213  28.559  60.290  0.00  0.00     0.241 C 
ATOM     76  O   ARG d   1      10.314  27.441  60.818  0.00  0.00    -0.271 OA
ATOM     77  N   TRP d   1       9.425  29.523  60.761  0.00  0.00    -0.346 N 
ATOM     78  H51 TRP d   1       9.347  30.376  60.245  0.00  0.00     0.163 HD
BRANCH  77  79
ATOM     79  CA  TRP d   1       8.672  29.381  62.000  0.00  0.00     0.093 C 
ATOM     80  H52 TRP d   1       8.448  28.313  62.141  0.00  0.00     0.088 H 
BRANCH  79  81
ATOM     81  C   TRP d   1       7.340  30.148  61.971  0.00  0.00     0.241 C 
ATOM     82  O   TRP d   1       7.307  31.363  61.805  0.00  0.00    -0.271 OA
ATOM     83  N   LYS d   1       6.253  29.448  62.235  0.00  0.00    -0.346 N 
ATOM     84  H61 LYS d   1       6.337  28.474  62.446  0.00  0.00     0.163 HD
BRANCH  83  85
ATOM     85  CA  LYS d   1       4.935  30.065  62.226  0.00  0.00     0.089 C 
ATOM     86  H62 LYS d   1       5.020  31.155  62.105  0.00  0.00     0.087 H 
BRANCH  85  87
ATOM     87  C   LYS d   1       4.287  29.736  63.573  0.00  0.00     0.243 C 
ATOM     88  O   LYS d   1       3.874  28.606  63.825  0.00  0.00    -0.271 OA
ATOM     89  N   PRO d   1       4.214  30.725  64.464  0.00  0.00    -0.337 N 
ATOM     90  CA  PRO d   1       3.629  30.558  65.798  0.00  0.00     0.091 C 
ATOM     91  CD  PRO d   1       4.578  32.126  64.227  0.00  0.00    -0.001 C 
ATOM     92  CB  PRO d   1       3.704  31.967  66.378  0.00  0.00    -0.036 C 
ATOM     93  H74 PRO d   1       4.216  29.848  66.398  0.00  0.00     0.087 H 
ATOM     94  CG  PRO d   1       4.831  32.599  65.621  0.00  0.00    -0.048 C 
ATOM     95  H75 PRO d   1       3.923  31.937  67.456  0.00  0.00     0.036 H 
ATOM     96  H76 PRO d   1       2.763  32.512  66.210  0.00  0.00     0.036 H 
ATOM     97  H77 PRO d   1       5.806  32.248  65.990  0.00  0.00     0.035 H 
ATOM     98  H78 PRO d   1       4.788  33.696  65.684  0.00  0.00     0.035 H 
ATOM     99  H79 PRO d   1       3.755  32.682  63.756  0.00  0.00     0.064 H 
ATOM    100  H80 PRO d   1       5.480  32.208  63.603  0.00  0.00     0.064 H 
BRANCH  90 101
ATOM    101  C   PRO d   1       2.183  30.091  65.733  0.00  0.00     0.241 C 
ATOM    102  O   PRO d   1       1.516  30.299  64.723  0.00  0.00    -0.271 OA
ATOM    103  N   LYS d   1       1.730  29.421  66.787  0.00  0.00    -0.345 N 
ATOM    104  H81 LYS d   1       2.350  29.233  67.549  0.00  0.00     0.163 HD
BRANCH 103 105
ATOM    105  CA  LYS d   1       0.350  28.952  66.861  0.00  0.00     0.093 C 
ATOM    106  H82 LYS d   1       0.002  28.714  65.845  0.00  0.00     0.089 H 
BRANCH 105 107
ATOM    107  C   LYS d   1      -0.537  30.064  67.440  0.00  0.00     0.196 C 
ATOM    108  O   LYS d   1      -0.138  30.646  68.482  0.00  0.00    -0.646 OA
ATOM    109  OXT LYS d   1      -1.603  30.356  66.839  0.00  0.00    -0.646 OA
ENDBRANCH 105 107
BRANCH 105 110
ATOM    110  CB  LYS d   1       0.256  27.682  67.721  0.00  0.00    -0.048 C 
ATOM    111  H83 LYS d   1      -0.790  27.345  67.764  0.00  0.00     0.030 H 
ATOM    112  H84 LYS d   1       0.613  27.901  68.738  0.00  0.00     0.030 H 
ATOM    113  H85 LYS d   1       0.878  26.891  67.276  0.00  0.00     0.030 H 
ENDBRANCH 105 110
ENDBRANCH 103 105
ENDBRANCH  90 101
ENDBRANCH  85  87
BRANCH  85 114
ATOM    114  CB  LYS d   1       4.131  29.482  61.067  0.00  0.00    -0.038 C 
ATOM    115  H63 LYS d   1       3.687  28.536  61.411  0.00  0.00     0.036 H 
ATOM    116  H64 LYS d   1       4.831  29.280  60.243  0.00  0.00     0.036 H 
BRANCH 114 117
ATOM    117  CG  LYS d   1       3.018  30.340  60.523  0.00  0.00    -0.061 C 
ATOM    118  H65 LYS d   1       2.684  29.918  59.563  0.00  0.00     0.033 H 
ATOM    119  H66 LYS d   1       3.404  31.358  60.362  0.00  0.00     0.033 H 
BRANCH 117 120
ATOM    120  CD  LYS d   1       1.841  30.413  61.452  0.00  0.00    -0.043 C 
ATOM    121  H67 LYS d   1       1.919  31.323  62.065  0.00  0.00     0.035 H 
ATOM    122  H68 LYS d   1       1.840  29.529  62.106  0.00  0.00     0.035 H 
BRANCH 120 123
ATOM    123  CE  LYS d   1       0.538  30.452  60.655  0.00  0.00     0.080 C 
ATOM    124  H69 LYS d   1       0.616  31.238  59.889  0.00  0.00     0.075 H 
ATOM    125  H70 LYS d   1      -0.289  30.689  61.341  0.00  0.00     0.075 H 
BRANCH 123 126
ATOM    126  NZ  LYS d   1       0.243  29.151  59.979  0.00  0.00    -0.079 N 
ATOM    127  H71 LYS d   1      -0.623  29.227  59.468  0.00  0.00     0.274 HD
ATOM    128  H72 LYS d   1       0.162  28.423  60.672  0.00  0.00     0.274 HD
ATOM    129  H73 LYS d   1       0.991  28.927  59.341  0.00  0.00     0.274 HD
ENDBRANCH 123 126
ENDBRANCH 120 123
ENDBRANCH 117 120
ENDBRANCH 114 117
ENDBRANCH  85 114
ENDBRANCH  83  85
ENDBRANCH  79  81
BRANCH  79 130
ATOM    130  CB  TRP d   1       9.518  29.866  63.190  0.00  0.00    -0.012 C 
ATOM    131  H53 TRP d   1       9.779  30.922  63.029  0.00  0.00     0.044 H 
ATOM    132  H54 TRP d   1      10.438  29.264  63.236  0.00  0.00     0.044 H 
BRANCH 130 133
ATOM    133  CG  TRP d   1       8.804  29.745  64.490  0.00  0.00    -0.028 A 
ATOM    134  CD1 TRP d   1       8.317  30.767  65.259  0.00  0.00    -0.015 A 
ATOM    135  NE1 TRP d   1       7.613  30.263  66.332  0.00  0.00    -0.365 N 
ATOM    136  H55 TRP d   1       8.464  31.826  65.053  0.00  0.00     0.112 H 
ATOM    137  CE2 TRP d   1       7.640  28.895  66.282  0.00  0.00     0.042 A 
ATOM    138  H56 TRP d   1       7.142  30.825  67.055  0.00  0.00     0.165 HD
ATOM    139  CD2 TRP d   1       8.392  28.528  65.135  0.00  0.00    -0.002 A 
ATOM    140  CZ2 TRP d   1       7.070  27.942  67.145  0.00  0.00    -0.056 A 
ATOM    141  CE3 TRP d   1       8.574  27.159  64.851  0.00  0.00    -0.070 A 
ATOM    142  CZ3 TRP d   1       8.001  26.208  65.716  0.00  0.00    -0.082 A 
ATOM    143  H57 TRP d   1       9.144  26.845  63.984  0.00  0.00     0.084 H 
ATOM    144  CH2 TRP d   1       7.260  26.610  66.845  0.00  0.00    -0.081 A 
ATOM    145  H59 TRP d   1       8.132  25.152  65.511  0.00  0.00     0.083 H 
ATOM    146  H60 TRP d   1       6.830  25.855  67.492  0.00  0.00     0.083 H 
ATOM    147  H58 TRP d   1       6.501  28.245  68.016  0.00  0.00     0.086 H 
ENDBRANCH 130 133
ENDBRANCH  79 130
ENDBRANCH  77  79
ENDBRANCH   1  75
BRANCH   1 148
ATOM    148  CB  ARG d   1      12.175  29.779  59.267  0.00  0.00    -0.036 C 
ATOM    149  H40 ARG d   1      12.794  29.319  60.051  0.00  0.00     0.036 H 
ATOM    150  H41 ARG d   1      11.815  30.760  59.612  0.00  0.00     0.036 H 
BRANCH 148 151
ATOM    151  CG  ARG d   1      13.039  29.983  58.011  0.00  0.00    -0.048 C 
ATOM    152  H42 ARG d   1      12.378  30.015  57.132  0.00  0.00     0.035 H 
ATOM    153  H43 ARG d   1      13.730  29.132  57.919  0.00  0.00     0.035 H 
BRANCH 151 154
ATOM    154  CD  ARG d   1      13.850  31.260  58.051  0.00  0.00     0.009 C 
ATOM    155  H44 ARG d   1      14.738  31.135  57.414  0.00  0.00     0.064 H 
ATOM    156  H45 ARG d   1      14.166  31.445  59.088  0.00  0.00     0.064 H 
BRANCH 154 157
ATOM    157  NE  ARG d   1      13.094  32.415  57.579  0.00  0.00    -0.227 N 
ATOM    158  CZ  ARG d   1      13.364  33.679  57.912  0.00  0.00     0.665 C 
ATOM    159  NH1 ARG d   1      14.349  33.956  58.754  0.00  0.00    -0.235 N 
ATOM    160  NH2 ARG d   1      12.635  34.675  57.418  0.00  0.00    -0.235 N 
ATOM    161  H47 ARG d   1      14.551  34.934  59.006  0.00  0.00     0.174 HD
ATOM    162  H48 ARG d   1      14.912  33.193  59.156  0.00  0.00     0.174 HD
ATOM    163  H49 ARG d   1      11.866  34.475  56.763  0.00  0.00     0.174 HD
ATOM    164  H50 ARG d   1      12.839  35.647  57.691  0.00  0.00     0.174 HD
ATOM    165  H46 ARG d   1      12.299  32.244  56.947  0.00  0.00     0.177 HD
ENDBRANCH 154 157
ENDBRANCH 151 154
ENDBRANCH 148 151
ENDBRANCH   1 148
TORSDOF 40
