REMARK  16 active torsions:
REMARK  status: ('A' for Active; 'I' for Inactive)
REMARK    1  A    between atoms: C2_2  and  N1_1 
REMARK    2  A    between atoms: S8_8  and  C5_5 
REMARK    3  A    between atoms: N11_11  and  S8_8 
REMARK    4  A    between atoms: N11_11  and  C12_12 
REMARK    5  A    between atoms: C16_16  and  N11_11 
REMARK    6  A    between atoms: C12_12  and  C13_13 
REMARK    7  A    between atoms: C13_13  and  C14_14 
REMARK    8  A    between atoms: C13_13  and  C15_15 
REMARK    9  A    between atoms: C17_17  and  C16_16 
REMARK   10  A    between atoms: C17_17  and  O18_18 
REMARK   11  A    between atoms: C19_19  and  C17_17 
REMARK   12  A    between atoms: C19_19  and  N20_20 
REMARK   13  A    between atoms: C32_32  and  C19_19 
REMARK       I    between atoms: N20_20  and  C21_21 
REMARK   14  A    between atoms: C21_21  and  O23_23 
REMARK   15  A    between atoms: O23_23  and  C24_24 
REMARK   16  A    between atoms: C38_38  and  C32_32 
ROOT
ATOM      1  C19 017 d   1       2.740   7.272  37.988  0.00  0.00     0.044 C 
ATOM      2  H20 017 d   1       2.437   8.315  37.813  0.00  0.00     0.077 H 
ENDROOT
BRANCH   1   3
ATOM      3  C17 017 d   1       1.552   6.350  37.678  0.00  0.00     0.071 C 
ATOM      4  H18 017 d   1       0.832   6.497  38.497  0.00  0.00     0.088 H 
BRANCH   3   5
ATOM      5  C16 017 d   1       0.805   6.654  36.373  0.00  0.00     0.031 C 
ATOM      6  H16 017 d   1       1.517   6.615  35.536  0.00  0.00     0.069 H 
ATOM      7  H17 017 d   1       0.022   5.896  36.224  0.00  0.00     0.069 H 
BRANCH   5   8
ATOM      8  N11 017 d   1       0.179   7.990  36.410  0.00  0.00    -0.304 N 
BRANCH   8   9
ATOM      9  S8  017 d   1       0.833   9.246  35.487  0.00  0.00     0.260 S 
ATOM     10  O9  017 d   1       2.273   9.054  35.398  0.00  0.00    -0.200 OA
ATOM     11  O10 017 d   1       0.318  10.500  36.033  0.00  0.00    -0.200 OA
BRANCH   9  12
ATOM     12  C5  017 d   1       0.209   9.070  33.802  0.00  0.00     0.079 A 
ATOM     13  C4  017 d   1       1.019   8.366  32.912  0.00  0.00    -0.058 A 
ATOM     14  C3  017 d   1       0.562   8.118  31.617  0.00  0.00    -0.056 A 
ATOM     15  H4  017 d   1       1.996   8.014  33.223  0.00  0.00     0.086 H 
ATOM     16  C2  017 d   1      -0.692   8.564  31.199  0.00  0.00     0.025 A 
ATOM     17  H3  017 d   1       1.191   7.570  30.925  0.00  0.00     0.086 H 
ATOM     18  C7  017 d   1      -1.517   9.276  32.091  0.00  0.00    -0.056 A 
ATOM     19  C6  017 d   1      -1.048   9.519  33.389  0.00  0.00    -0.058 A 
ATOM     20  H6  017 d   1      -2.494   9.629  31.780  0.00  0.00     0.086 H 
ATOM     21  H5  017 d   1      -1.673  10.066  34.086  0.00  0.00     0.086 H 
BRANCH  16  22
ATOM     22  N1  017 d   1      -1.134   8.315  29.919  0.00  0.00    -0.399 N 
ATOM     23  H1  017 d   1      -0.537   7.795  29.260  0.00  0.00     0.156 HD
ATOM     24  H2  017 d   1      -2.062   8.649  29.620  0.00  0.00     0.156 HD
ENDBRANCH  16  22
ENDBRANCH   9  12
ENDBRANCH   8   9
BRANCH   8  25
ATOM     25  C12 017 d   1      -1.277   7.974  36.637  0.00  0.00     0.008 C 
ATOM     26  H7  017 d   1      -1.723   7.231  35.960  0.00  0.00     0.066 H 
ATOM     27  H8  017 d   1      -1.674   8.972  36.399  0.00  0.00     0.066 H 
BRANCH  25  28
ATOM     28  C13 017 d   1      -1.686   7.624  38.070  0.00  0.00    -0.045 C 
ATOM     29  H9  017 d   1      -1.129   6.724  38.369  0.00  0.00     0.041 H 
BRANCH  28  30
ATOM     30  C14 017 d   1      -1.347   8.719  39.073  0.00  0.00    -0.072 C 
ATOM     31  H10 017 d   1      -1.665   8.406  40.078  0.00  0.00     0.028 H 
ATOM     32  H11 017 d   1      -1.870   9.646  38.795  0.00  0.00     0.028 H 
ATOM     33  H12 017 d   1      -0.261   8.895  39.070  0.00  0.00     0.028 H 
ENDBRANCH  28  30
BRANCH  28  34
ATOM     34  C15 017 d   1      -3.171   7.288  38.085  0.00  0.00    -0.072 C 
ATOM     35  H13 017 d   1      -3.375   6.496  37.350  0.00  0.00     0.028 H 
ATOM     36  H14 017 d   1      -3.753   8.185  37.828  0.00  0.00     0.028 H 
ATOM     37  H15 017 d   1      -3.458   6.940  39.088  0.00  0.00     0.028 H 
ENDBRANCH  28  34
ENDBRANCH  25  28
ENDBRANCH   8  25
ENDBRANCH   5   8
ENDBRANCH   3   5
BRANCH   3  38
ATOM     38  O18 017 d   1       1.923   4.968  37.679  0.00  0.00    -0.392 OA
ATOM     39  H19 017 d   1       2.486   4.792  36.934  0.00  0.00     0.210 HD
ENDBRANCH   3  38
ENDBRANCH   1   3
BRANCH   1  40
ATOM     40  N20 017 d   1       3.086   7.099  39.396  0.00  0.00    -0.329 N 
ATOM     41  C21 017 d   1       2.965   7.971  40.401  0.00  0.00     0.361 C 
ATOM     42  O22 017 d   1       2.580   9.122  40.233  0.00  0.00    -0.238 OA
ATOM     43  H21 017 d   1       3.465   6.207  39.641  0.00  0.00     0.165 HD
BRANCH  41  44
ATOM     44  O23 017 d   1       3.320   7.415  41.601  0.00  0.00    -0.296 OA
BRANCH  44  45
ATOM     45  C24 017 d   1       3.332   8.316  42.750  0.00  0.00     0.078 C 
ATOM     46  C25 017 d   1       2.934   7.497  43.995  0.00  0.00     0.048 C 
ATOM     47  O26 017 d   1       4.087   6.685  44.279  0.00  0.00    -0.358 OA
ATOM     48  H23 017 d   1       2.058   6.867  43.782  0.00  0.00     0.078 H 
ATOM     49  H24 017 d   1       2.709   8.162  44.842  0.00  0.00     0.078 H 
ATOM     50  C27 017 d   1       5.235   7.488  43.972  0.00  0.00     0.137 C 
ATOM     51  O28 017 d   1       6.113   6.709  43.221  0.00  0.00    -0.361 OA
ATOM     52  C31 017 d   1       4.777   8.694  43.106  0.00  0.00     0.023 C 
ATOM     53  H25 017 d   1       5.721   7.839  44.895  0.00  0.00     0.129 H 
ATOM     54  C29 017 d   1       6.250   7.235  41.909  0.00  0.00     0.023 C 
ATOM     55  C30 017 d   1       5.800   8.664  41.928  0.00  0.00    -0.035 C 
ATOM     56  H26 017 d   1       5.627   6.658  41.210  0.00  0.00     0.074 H 
ATOM     57  H27 017 d   1       7.303   7.180  41.594  0.00  0.00     0.074 H 
ATOM     58  H28 017 d   1       5.318   8.939  40.978  0.00  0.00     0.037 H 
ATOM     59  H29 017 d   1       6.645   9.342  42.120  0.00  0.00     0.037 H 
ATOM     60  H30 017 d   1       4.812   9.659  43.633  0.00  0.00     0.051 H 
ATOM     61  H22 017 d   1       2.690   9.193  42.581  0.00  0.00     0.088 H 
ENDBRANCH  44  45
ENDBRANCH  41  44
ENDBRANCH   1  40
BRANCH   1  62
ATOM     62  C32 017 d   1       3.967   6.963  37.098  0.00  0.00    -0.020 C 
ATOM     63  H31 017 d   1       3.720   7.168  36.046  0.00  0.00     0.043 H 
ATOM     64  H32 017 d   1       4.247   5.905  37.210  0.00  0.00     0.043 H 
BRANCH  62  65
ATOM     65  C38 017 d   1       5.129   7.846  37.530  0.00  0.00    -0.056 A 
ATOM     66  C33 017 d   1       6.256   7.280  38.161  0.00  0.00    -0.077 A 
ATOM     67  C34 017 d   1       7.303   8.106  38.546  0.00  0.00    -0.082 A 
ATOM     68  H33 017 d   1       6.304   6.213  38.343  0.00  0.00     0.084 H 
ATOM     69  C35 017 d   1       7.245   9.468  38.315  0.00  0.00    -0.083 A 
ATOM     70  H34 017 d   1       8.173   7.680  39.032  0.00  0.00     0.083 H 
ATOM     71  C36 017 d   1       6.125  10.036  37.690  0.00  0.00    -0.082 A 
ATOM     72  H35 017 d   1       8.071  10.101  38.619  0.00  0.00     0.083 H 
ATOM     73  C37 017 d   1       5.067   9.219  37.297  0.00  0.00    -0.077 A 
ATOM     74  H36 017 d   1       6.083  11.105  37.514  0.00  0.00     0.083 H 
ATOM     75  H37 017 d   1       4.199   9.650  36.812  0.00  0.00     0.084 H 
ENDBRANCH  62  65
ENDBRANCH   1  62
TORSDOF 16
