REMARK WARNING: 32 MAX_TORS EXCEEDED!!!
REMARK  58 active torsions:
REMARK  status: ('A' for Active; 'I' for Inactive)
REMARK    1  A    between atoms: N_1  and  CA_2 
REMARK    2  A    between atoms: CA_2  and  C_3 
REMARK    3  A    between atoms: CA_2  and  CB_5 
REMARK       I    between atoms: C_3  and  N_6 
REMARK    4  A    between atoms: CA_7  and  C_8 
REMARK       I    between atoms: C_8  and  N_13 
REMARK    5  A    between atoms: CA_14  and  C_15 
REMARK       I    between atoms: C_15  and  N_20 
REMARK    6  A    between atoms: N_20  and  CA_21 
REMARK    7  A    between atoms: CA_21  and  C_22 
REMARK       I    between atoms: C_22  and  N_24 
REMARK    8  A    between atoms: N_24  and  CA_25 
REMARK    9  A    between atoms: CA_25  and  C_26 
REMARK   10  A    between atoms: CA_25  and  CB_28 
REMARK       I    between atoms: C_26  and  N_31 
REMARK   11  A    between atoms: CB_28  and  OG1_29 
REMARK   12  A    between atoms: CB_28  and  CG2_30 
REMARK   13  A    between atoms: N_31  and  CA_32 
REMARK   14  A    between atoms: CA_32  and  C_33 
REMARK   15  A    between atoms: CA_32  and  CB_35 
REMARK       I    between atoms: C_33  and  N_36 
REMARK   16  A    between atoms: N_36  and  CA_37 
REMARK   17  A    between atoms: CA_37  and  C_38 
REMARK   18  A    between atoms: CA_37  and  CB_40 
REMARK       I    between atoms: C_38  and  N_47 
REMARK   19  A    between atoms: CB_40  and  CG_41 
REMARK   20  A    between atoms: CG_41  and  CD_42 
REMARK   21  A    between atoms: CD_42  and  NE_43 
REMARK       I    between atoms: NE_43  and  CZ_44 
REMARK       I    between atoms: CZ_44  and  NH1_45 
REMARK       I    between atoms: CZ_44  and  NH2_46 
REMARK   22  A    between atoms: N_47  and  CA_48 
REMARK   23  A    between atoms: CA_48  and  C_49 
REMARK   24  A    between atoms: CA_48  and  CB_51 
REMARK       I    between atoms: C_49  and  N_58 
REMARK   25  A    between atoms: CB_51  and  CG_52 
REMARK   26  A    between atoms: CG_52  and  CD_53 
REMARK   27  A    between atoms: CD_53  and  NE_54 
REMARK       I    between atoms: NE_54  and  CZ_55 
REMARK       I    between atoms: CZ_55  and  NH1_56 
REMARK       I    between atoms: CZ_55  and  NH2_57 
REMARK   28  A    between atoms: N_58  and  CA_59 
REMARK   29  A    between atoms: CA_59  and  C_60 
REMARK   30  A    between atoms: CA_59  and  CB_62 
REMARK       I    between atoms: C_60  and  N_67 
REMARK   31  A    between atoms: CB_62  and  CG_63 
REMARK   32  A    between atoms: CG_63  and  CD_64 
REMARK   33  A    between atoms: CD_64  and  CE_65 
REMARK   34  A    between atoms: CE_65  and  NZ_66 
REMARK   35  A    between atoms: N_67  and  CA_68 
REMARK   36  A    between atoms: CA_68  and  C_69 
REMARK   37  A    between atoms: CA_68  and  CB_71 
REMARK       I    between atoms: C_69  and  N_78 
REMARK   38  A    between atoms: CB_71  and  CG_72 
REMARK   39  A    between atoms: CG_72  and  CD_73 
REMARK   40  A    between atoms: CD_73  and  NE_74 
REMARK       I    between atoms: NE_74  and  CZ_75 
REMARK       I    between atoms: CZ_75  and  NH1_76 
REMARK   41  A    between atoms: N_78  and  CA_79 
REMARK   42  A    between atoms: CA_79  and  C_80 
REMARK   43  A    between atoms: CA_79  and  CB_82 
REMARK       I    between atoms: C_80  and  N_87 
REMARK   44  A    between atoms: CB_82  and  CG_83 
REMARK   45  A    between atoms: CG_83  and  CD_84 
REMARK   46  A    between atoms: CD_84  and  CE_85 
REMARK   47  A    between atoms: CE_85  and  NZ_86 
REMARK   48  A    between atoms: N_87  and  CA_88 
REMARK   49  A    between atoms: CA_88  and  C_89 
REMARK   50  A    between atoms: CA_88  and  CB_91 
REMARK       I    between atoms: C_89  and  N_92 
REMARK   51  A    between atoms: N_92  and  CA_93 
REMARK   52  A    between atoms: CA_93  and  C_94 
REMARK   53  A    between atoms: CA_93  and  CB_96 
REMARK       I    between atoms: C_94  and  N_100 
REMARK   54  A    between atoms: CB_96  and  CG_97 
REMARK   55  A    between atoms: N_100  and  CA_101 
REMARK   56  A    between atoms: CA_101  and  C_102 
REMARK   57  A    between atoms: CA_101  and  CB_104 
REMARK   58  A    between atoms: CB_104  and  OG_105 
ROOT
ATOM      1  CA  ARG d   1      -1.429  -2.557  -4.889  0.00  0.00     0.089 C 
ATOM      2  H51 ARG d   1      -2.064  -1.772  -5.327  0.00  0.00     0.087 H 
ENDROOT
BRANCH   1   3
ATOM      3  N   ARG d   1      -2.213  -3.280  -3.887  0.00  0.00    -0.346 N 
ATOM      4  C   ARG d   1      -3.146  -4.171  -4.241  0.00  0.00     0.241 C 
ATOM      5  O   ARG d   1      -3.400  -4.431  -5.416  0.00  0.00    -0.271 OA
ATOM      6  H50 ARG d   1      -2.048  -3.104  -2.917  0.00  0.00     0.163 HD
BRANCH   4   7
ATOM      7  CA  ARG d   1      -3.910  -4.866  -3.113  0.00  0.00     0.089 C 
ATOM      8  H38 ARG d   1      -3.613  -4.413  -2.156  0.00  0.00     0.087 H 
BRANCH   7   9
ATOM      9  N   ARG d   1      -5.351  -4.697  -3.281  0.00  0.00    -0.346 N 
ATOM     10  C   ALA d   1      -6.109  -4.169  -2.324  0.00  0.00     0.240 C 
ATOM     11  O   ALA d   1      -5.657  -3.790  -1.244  0.00  0.00    -0.271 OA
ATOM     12  H37 ARG d   1      -5.779  -4.986  -4.138  0.00  0.00     0.163 HD
BRANCH  10  13
ATOM     13  CA  ALA d   1      -7.602  -4.052  -2.629  0.00  0.00     0.086 C 
ATOM     14  H33 ALA d   1      -7.980  -5.051  -2.894  0.00  0.00     0.086 H 
BRANCH  13  15
ATOM     15  N   ALA d   1      -8.337  -3.577  -1.464  0.00  0.00    -0.346 N 
ATOM     16  C   THR d   1      -9.454  -4.167  -1.049  0.00  0.00     0.243 C 
ATOM     17  O   THR d   1      -9.944  -5.149  -1.608  0.00  0.00    -0.271 OA
ATOM     18  H32 ALA d   1      -7.991  -2.784  -0.962  0.00  0.00     0.163 HD
BRANCH  16  19
ATOM     19  CA  THR d   1     -10.111  -3.557   0.183  0.00  0.00     0.113 C 
ATOM     20  H26 THR d   1     -10.215  -2.473   0.026  0.00  0.00     0.091 H 
BRANCH  19  21
ATOM     21  N   THR d   1     -11.440  -4.109   0.407  0.00  0.00    -0.344 N 
ATOM     22  C   GLY d   1     -12.523  -3.580  -0.154  0.00  0.00     0.236 C 
ATOM     23  O   GLY d   1     -12.485  -2.597  -0.893  0.00  0.00    -0.272 OA
ATOM     24  H25 THR d   1     -11.541  -4.908   0.999  0.00  0.00     0.163 HD
BRANCH  22  25
ATOM     25  CA  GLY d   1     -13.840  -4.262   0.157  0.00  0.00     0.069 C 
ATOM     26  H23 GLY d   1     -13.774  -4.723   1.154  0.00  0.00     0.078 H 
ATOM     27  H24 GLY d   1     -14.640  -3.507   0.154  0.00  0.00     0.078 H 
BRANCH  25  28
ATOM     28  N   GLY d   1     -14.165  -5.291  -0.813  0.00  0.00    -0.351 N 
ATOM     29  C   PRO d   1     -14.591  -6.487  -0.418  0.00  0.00     0.241 C 
ATOM     30  O   PRO d   1     -14.739  -6.791   0.765  0.00  0.00    -0.271 OA
ATOM     31  H22 GLY d   1     -14.068  -5.098  -1.790  0.00  0.00     0.163 HD
BRANCH  29  32
ATOM     32  CA  PRO d   1     -14.895  -7.490  -1.527  0.00  0.00     0.091 C 
ATOM     33  N   PRO d   1     -13.871  -8.534  -1.626  0.00  0.00    -0.337 N 
ATOM     34  C   PRO d   1     -12.627  -8.286  -2.075  0.00  0.00     0.243 C 
ATOM     35  CD  PRO d   1     -14.374  -9.847  -1.182  0.00  0.00    -0.001 C 
ATOM     36  O   PRO d   1     -12.280  -7.160  -2.435  0.00  0.00    -0.271 OA
ATOM     37  CG  PRO d   1     -15.697  -9.519  -0.548  0.00  0.00    -0.048 C 
ATOM     38  H20 PRO d   1     -13.690 -10.304  -0.451  0.00  0.00     0.064 H 
ATOM     39  H21 PRO d   1     -14.505 -10.527  -2.036  0.00  0.00     0.064 H 
ATOM     40  CB  PRO d   1     -16.171  -8.271  -1.208  0.00  0.00    -0.036 C 
ATOM     41  H18 PRO d   1     -16.414 -10.336  -0.716  0.00  0.00     0.035 H 
ATOM     42  H19 PRO d   1     -15.573  -9.356   0.533  0.00  0.00     0.035 H 
ATOM     43  H16 PRO d   1     -16.723  -8.506  -2.130  0.00  0.00     0.036 H 
ATOM     44  H17 PRO d   1     -16.818  -7.696  -0.530  0.00  0.00     0.036 H 
ATOM     45  H15 PRO d   1     -14.992  -6.953  -2.482  0.00  0.00     0.087 H 
BRANCH  34  46
ATOM     46  CA  PRO d   1     -11.645  -9.456  -2.127  0.00  0.00     0.092 C 
ATOM     47  N   PRO d   1     -11.331  -9.867  -3.500  0.00  0.00    -0.337 N 
ATOM     48  C   ALA d   1     -12.190 -10.605  -4.240  0.00  0.00     0.250 C 
ATOM     49  CD  PRO d   1      -9.998  -9.383  -3.922  0.00  0.00    -0.001 C 
ATOM     50  O   ALA d   1     -13.278 -10.961  -3.786  0.00  0.00    -0.271 OA
ATOM     51  CG  PRO d   1      -9.547  -8.532  -2.765  0.00  0.00    -0.048 C 
ATOM     52  H13 PRO d   1     -10.070  -8.786  -4.843  0.00  0.00     0.064 H 
ATOM     53  H14 PRO d   1      -9.308 -10.224  -4.083  0.00  0.00     0.064 H 
ATOM     54  CB  PRO d   1     -10.287  -9.033  -1.576  0.00  0.00    -0.036 C 
ATOM     55  H11 PRO d   1      -8.463  -8.637  -2.613  0.00  0.00     0.035 H 
ATOM     56  H12 PRO d   1      -9.791  -7.475  -2.950  0.00  0.00     0.035 H 
ATOM     57  H9  PRO d   1      -9.765  -9.890  -1.125  0.00  0.00     0.036 H 
ATOM     58  H10 PRO d   1     -10.402  -8.238  -0.825  0.00  0.00     0.036 H 
ATOM     59  H8  PRO d   1     -12.058 -10.300  -1.555  0.00  0.00     0.087 H 
BRANCH  48  60
ATOM     60  CA  ALA d   1     -11.793 -10.998  -5.668  0.00  0.00     0.172 C 
ATOM     61  H4  ALA d   1     -12.512 -11.754  -6.018  0.00  0.00     0.098 H 
BRANCH  60  62
ATOM     62  N   ALA d   1     -11.866  -9.837  -6.594  0.00  0.00    -0.067 N 
ATOM     63  H1  ALA d   1     -11.600 -10.129  -7.521  0.00  0.00     0.275 HD
ATOM     64  H2  ALA d   1     -11.239  -9.114  -6.277  0.00  0.00     0.275 HD
ATOM     65  H3  ALA d   1     -12.809  -9.480  -6.612  0.00  0.00     0.275 HD
ENDBRANCH  60  62
BRANCH  60  66
ATOM     66  CB  ALA d   1     -10.404 -11.622  -5.704  0.00  0.00    -0.042 C 
ATOM     67  H5  ALA d   1     -10.369 -12.478  -5.014  0.00  0.00     0.030 H 
ATOM     68  H6  ALA d   1      -9.658 -10.874  -5.399  0.00  0.00     0.030 H 
ATOM     69  H7  ALA d   1     -10.182 -11.965  -6.725  0.00  0.00     0.030 H 
ENDBRANCH  60  66
ENDBRANCH  48  60
ENDBRANCH  34  46
ENDBRANCH  29  32
ENDBRANCH  25  28
ENDBRANCH  22  25
ENDBRANCH  19  21
BRANCH  19  70
ATOM     70  CB  THR d   1      -9.189  -3.791   1.391  0.00  0.00     0.060 C 
ATOM     71  H27 THR d   1      -9.480  -3.101   2.197  0.00  0.00     0.086 H 
BRANCH  70  72
ATOM     72  OG1 THR d   1      -7.834  -3.528   1.016  0.00  0.00    -0.393 OA
ATOM     73  H28 THR d   1      -7.584  -4.111   0.309  0.00  0.00     0.210 HD
ENDBRANCH  70  72
BRANCH  70  74
ATOM     74  CG2 THR d   1      -9.307  -5.219   1.903  0.00  0.00    -0.050 C 
ATOM     75  H29 THR d   1      -8.637  -5.356   2.765  0.00  0.00     0.031 H 
ATOM     76  H30 THR d   1      -9.024  -5.920   1.104  0.00  0.00     0.031 H 
ATOM     77  H31 THR d   1     -10.345  -5.414   2.210  0.00  0.00     0.031 H 
ENDBRANCH  70  74
ENDBRANCH  19  70
ENDBRANCH  16  19
ENDBRANCH  13  15
BRANCH  13  78
ATOM     78  CB  ALA d   1      -7.834  -3.120  -3.811  0.00  0.00    -0.049 C 
ATOM     79  H34 ALA d   1      -7.275  -3.488  -4.684  0.00  0.00     0.030 H 
ATOM     80  H35 ALA d   1      -7.487  -2.108  -3.554  0.00  0.00     0.030 H 
ATOM     81  H36 ALA d   1      -8.907  -3.090  -4.049  0.00  0.00     0.030 H 
ENDBRANCH  13  78
ENDBRANCH  10  13
ENDBRANCH   7   9
BRANCH   7  82
ATOM     82  CB  ARG d   1      -3.556  -6.355  -3.086  0.00  0.00    -0.036 C 
ATOM     83  H39 ARG d   1      -4.078  -6.822  -2.238  0.00  0.00     0.036 H 
ATOM     84  H40 ARG d   1      -2.469  -6.452  -2.946  0.00  0.00     0.036 H 
BRANCH  82  85
ATOM     85  CG  ARG d   1      -3.945  -7.092  -4.355  0.00  0.00    -0.048 C 
ATOM     86  H41 ARG d   1      -3.384  -6.668  -5.201  0.00  0.00     0.035 H 
ATOM     87  H42 ARG d   1      -5.023  -6.961  -4.528  0.00  0.00     0.035 H 
BRANCH  85  88
ATOM     88  CD  ARG d   1      -3.638  -8.575  -4.252  0.00  0.00     0.009 C 
ATOM     89  H43 ARG d   1      -4.244  -9.009  -3.443  0.00  0.00     0.064 H 
ATOM     90  H44 ARG d   1      -2.571  -8.702  -4.019  0.00  0.00     0.064 H 
BRANCH  88  91
ATOM     91  NE  ARG d   1      -3.937  -9.278  -5.494  0.00  0.00    -0.227 N 
ATOM     92  CZ  ARG d   1      -3.783 -10.586  -5.655  0.00  0.00     0.665 C 
ATOM     93  NH1 ARG d   1      -3.343 -11.333  -4.652  0.00  0.00    -0.235 N 
ATOM     94  NH2 ARG d   1      -4.072 -11.149  -6.820  0.00  0.00    -0.235 N 
ATOM     95  H46 ARG d   1      -3.224 -12.348  -4.779  0.00  0.00     0.174 HD
ATOM     96  H47 ARG d   1      -3.120 -10.898  -3.745  0.00  0.00     0.174 HD
ATOM     97  H48 ARG d   1      -4.414 -10.571  -7.601  0.00  0.00     0.174 HD
ATOM     98  H49 ARG d   1      -3.954 -12.165  -6.944  0.00  0.00     0.174 HD
ATOM     99  H45 ARG d   1      -4.287  -8.728  -6.291  0.00  0.00     0.177 HD
ENDBRANCH  88  91
ENDBRANCH  85  88
ENDBRANCH  82  85
ENDBRANCH   7  82
ENDBRANCH   4   7
ENDBRANCH   1   3
BRANCH   1 100
ATOM    100  C   ARG d   1      -0.968  -3.489  -6.014  0.00  0.00     0.241 C 
ATOM    101  O   ARG d   1      -1.281  -3.271  -7.185  0.00  0.00    -0.271 OA
ATOM    102  N   LYS d   1      -0.233  -4.530  -5.638  0.00  0.00    -0.346 N 
ATOM    103  H63 LYS d   1      -0.021  -4.646  -4.668  0.00  0.00     0.163 HD
BRANCH 102 104
ATOM    104  CA  LYS d   1       0.277  -5.512  -6.592  0.00  0.00     0.089 C 
ATOM    105  H64 LYS d   1      -0.470  -5.663  -7.386  0.00  0.00     0.087 H 
BRANCH 104 106
ATOM    106  C   LYS d   1       0.511  -6.838  -5.875  0.00  0.00     0.241 C 
ATOM    107  O   LYS d   1      -0.098  -7.096  -4.840  0.00  0.00    -0.271 OA
ATOM    108  N   ARG d   1       1.368  -7.695  -6.424  0.00  0.00    -0.346 N 
ATOM    109  H76 ARG d   1       1.810  -7.466  -7.291  0.00  0.00     0.163 HD
BRANCH 108 110
ATOM    110  CA  ARG d   1       1.669  -8.965  -5.774  0.00  0.00     0.089 C 
ATOM    111  H77 ARG d   1       0.768  -9.596  -5.789  0.00  0.00     0.087 H 
BRANCH 110 112
ATOM    112  C   ARG d   1       2.083  -8.717  -4.324  0.00  0.00     0.241 C 
ATOM    113  O   ARG d   1       1.942  -9.588  -3.465  0.00  0.00    -0.271 OA
ATOM    114  N   LYS d   1       2.591  -7.513  -4.066  0.00  0.00    -0.346 N 
ATOM    115  H89 LYS d   1       2.673  -6.852  -4.812  0.00  0.00     0.163 HD
BRANCH 114 116
ATOM    116  CA  LYS d   1       3.031  -7.128  -2.734  0.00  0.00     0.089 C 
ATOM    117  H90 LYS d   1       3.508  -6.139  -2.804  0.00  0.00     0.087 H 
BRANCH 116 118
ATOM    118  C   LYS d   1       4.053  -8.116  -2.190  0.00  0.00     0.241 C 
ATOM    119  O   LYS d   1       3.697  -9.197  -1.718  0.00  0.00    -0.271 OA
ATOM    120  N   ALA d   1       5.323  -7.739  -2.262  0.00  0.00    -0.346 N 
ATOM    121 2H10 ALA d   1       5.548  -6.851  -2.664  0.00  0.00     0.163 HD
BRANCH 120 122
ATOM    122  CA  ALA d   1       6.395  -8.588  -1.769  0.00  0.00     0.086 C 
ATOM    123 3H10 ALA d   1       6.145  -9.635  -1.996  0.00  0.00     0.086 H 
BRANCH 122 124
ATOM    124  C   ALA d   1       6.545  -8.440  -0.260  0.00  0.00     0.240 C 
ATOM    125  O   ALA d   1       6.850  -7.360   0.233  0.00  0.00    -0.271 OA
ATOM    126  N   ASP d   1       6.323  -9.524   0.472  0.00  0.00    -0.346 N 
ATOM    127 7H10 ASP d   1       6.068 -10.379   0.019  0.00  0.00     0.163 HD
BRANCH 126 128
ATOM    128  CA  ASP d   1       6.444  -9.491   1.925  0.00  0.00     0.098 C 
ATOM    129 8H10 ASP d   1       6.906  -8.534   2.211  0.00  0.00     0.088 H 
BRANCH 128 130
ATOM    130  C   ASP d   1       7.335 -10.621   2.422  0.00  0.00     0.241 C 
ATOM    131  O   ASP d   1       6.936 -11.414   3.274  0.00  0.00    -0.271 OA
ATOM    132  N   SER d   1       8.546 -10.688   1.880  0.00  0.00    -0.343 N 
ATOM    133 1H11 SER d   1       8.809 -10.014   1.190  0.00  0.00     0.163 HD
BRANCH 132 134
ATOM    134  CA  SER d   1       9.500 -11.718   2.265  0.00  0.00     0.116 C 
ATOM    135 2H11 SER d   1      10.412 -11.589   1.664  0.00  0.00     0.093 H 
BRANCH 134 136
ATOM    136  C   SER d   1       8.938 -13.111   1.998  0.00  0.00     0.198 C 
ATOM    137  O   SER d   1       9.194 -13.651   0.900  0.00  0.00    -0.646 OA
ATOM    138  OXT SER d   1       8.246 -13.650   2.887  0.00  0.00    -0.646 OA
ENDBRANCH 134 136
BRANCH 134 139
ATOM    139  CB  SER d   1       9.864 -11.575   3.744  0.00  0.00     0.045 C 
ATOM    140 3H11 SER d   1      10.523 -12.406   4.034  0.00  0.00     0.077 H 
ATOM    141 4H11 SER d   1       8.944 -11.610   4.346  0.00  0.00     0.077 H 
BRANCH 139 142
ATOM    142  OG  SER d   1      10.530 -10.350   3.989  0.00  0.00    -0.398 OA
ATOM    143 5H11 SER d   1      10.744 -10.287   4.912  0.00  0.00     0.209 HD
ENDBRANCH 139 142
ENDBRANCH 134 139
ENDBRANCH 132 134
ENDBRANCH 128 130
BRANCH 128 144
ATOM    144  CB  ASP d   1       5.067  -9.577   2.583  0.00  0.00     0.043 C 
ATOM    145 9H10 ASP d   1       4.490  -8.681   2.313  0.00  0.00     0.052 H 
ATOM    146 0H11 ASP d   1       5.199  -9.613   3.675  0.00  0.00     0.052 H 
BRANCH 144 147
ATOM    147  CG  ASP d   1       4.293 -10.804   2.146  0.00  0.00     0.175 C 
ATOM    148  OD1 ASP d   1       3.988 -10.914   0.940  0.00  0.00    -0.648 OA
ATOM    149  OD2 ASP d   1       3.995 -11.657   3.009  0.00  0.00    -0.648 OA
ENDBRANCH 144 147
ENDBRANCH 128 144
ENDBRANCH 126 128
ENDBRANCH 122 124
BRANCH 122 150
ATOM    150  CB  ALA d   1       7.706  -8.240  -2.460  0.00  0.00    -0.049 C 
ATOM    151 4H10 ALA d   1       8.506  -8.890  -2.077  0.00  0.00     0.030 H 
ATOM    152 5H10 ALA d   1       7.959  -7.189  -2.258  0.00  0.00     0.030 H 
ATOM    153 6H10 ALA d   1       7.600  -8.390  -3.545  0.00  0.00     0.030 H 
ENDBRANCH 122 150
ENDBRANCH 120 122
ENDBRANCH 116 118
BRANCH 116 154
ATOM    154  CB  LYS d   1       1.847  -7.024  -1.769  0.00  0.00    -0.038 C 
ATOM    155  H91 LYS d   1       2.242  -6.859  -0.756  0.00  0.00     0.036 H 
ATOM    156  H92 LYS d   1       1.295  -7.975  -1.797  0.00  0.00     0.036 H 
BRANCH 154 157
ATOM    157  CG  LYS d   1       0.875  -5.901  -2.090  0.00  0.00    -0.061 C 
ATOM    158  H93 LYS d   1       0.260  -6.195  -2.954  0.00  0.00     0.033 H 
ATOM    159  H94 LYS d   1       1.445  -4.993  -2.337  0.00  0.00     0.033 H 
BRANCH 157 160
ATOM    160  CD  LYS d   1      -0.037  -5.608  -0.908  0.00  0.00    -0.043 C 
ATOM    161  H95 LYS d   1       0.573  -5.243  -0.068  0.00  0.00     0.035 H 
ATOM    162  H96 LYS d   1      -0.549  -6.536  -0.613  0.00  0.00     0.035 H 
BRANCH 160 163
ATOM    163  CE  LYS d   1      -1.079  -4.557  -1.255  0.00  0.00     0.080 C 
ATOM    164  H97 LYS d   1      -1.717  -4.943  -2.063  0.00  0.00     0.075 H 
ATOM    165  H98 LYS d   1      -0.565  -3.646  -1.597  0.00  0.00     0.075 H 
BRANCH 163 166
ATOM    166  NZ  LYS d   1      -1.936  -4.216  -0.087  0.00  0.00    -0.079 N 
ATOM    167  H99 LYS d   1      -2.611  -3.518  -0.358  0.00  0.00     0.274 HD
ATOM    168 0H10 LYS d   1      -1.361  -3.855   0.658  0.00  0.00     0.274 HD
ATOM    169 1H10 LYS d   1      -2.417  -5.043   0.230  0.00  0.00     0.274 HD
ENDBRANCH 163 166
ENDBRANCH 160 163
ENDBRANCH 157 160
ENDBRANCH 154 157
ENDBRANCH 116 154
ENDBRANCH 114 116
ENDBRANCH 110 112
BRANCH 110 170
ATOM    170  CB  ARG d   1       2.795  -9.688  -6.512  0.00  0.00    -0.036 C 
ATOM    171  H78 ARG d   1       2.513  -9.785  -7.571  0.00  0.00     0.036 H 
ATOM    172  H79 ARG d   1       2.916 -10.688  -6.071  0.00  0.00     0.036 H 
BRANCH 170 173
ATOM    173  CG  ARG d   1       4.127  -8.961  -6.432  0.00  0.00    -0.048 C 
ATOM    174  H80 ARG d   1       4.330  -8.704  -5.382  0.00  0.00     0.035 H 
ATOM    175  H81 ARG d   1       4.067  -8.040  -7.030  0.00  0.00     0.035 H 
BRANCH 173 176
ATOM    176  CD  ARG d   1       5.266  -9.818  -6.959  0.00  0.00     0.009 C 
ATOM    177  H82 ARG d   1       6.200  -9.239  -6.908  0.00  0.00     0.064 H 
ATOM    178  H83 ARG d   1       5.056 -10.085  -8.005  0.00  0.00     0.064 H 
BRANCH 176 179
ATOM    179  NE  ARG d   1       5.428 -11.045  -6.182  0.00  0.00    -0.227 N 
ATOM    180  CZ  ARG d   1       6.516 -11.808  -6.226  0.00  0.00     0.665 C 
ATOM    181  NH1 ARG d   1       7.538 -11.466  -6.999  0.00  0.00    -0.235 N 
ATOM    182  NH2 ARG d   1       6.583 -12.911  -5.495  0.00  0.00    -0.235 N 
ATOM    183  H85 ARG d   1       8.380 -12.059  -7.032  0.00  0.00     0.174 HD
ATOM    184  H86 ARG d   1       7.490 -10.608  -7.567  0.00  0.00     0.174 HD
ATOM    185  H87 ARG d   1       5.791 -13.179  -4.894  0.00  0.00     0.174 HD
ATOM    186  H88 ARG d   1       7.427 -13.500  -5.528  0.00  0.00     0.174 HD
ATOM    187  H84 ARG d   1       4.656 -11.335  -5.565  0.00  0.00     0.177 HD
ENDBRANCH 176 179
ENDBRANCH 173 176
ENDBRANCH 170 173
ENDBRANCH 110 170
ENDBRANCH 108 110
ENDBRANCH 104 106
BRANCH 104 188
ATOM    188  CB  LYS d   1       1.575  -5.003  -7.227  0.00  0.00    -0.038 C 
ATOM    189  H65 LYS d   1       1.941  -5.767  -7.929  0.00  0.00     0.036 H 
ATOM    190  H66 LYS d   1       2.317  -4.853  -6.429  0.00  0.00     0.036 H 
BRANCH 188 191
ATOM    191  CG  LYS d   1       1.411  -3.695  -7.983  0.00  0.00    -0.061 C 
ATOM    192  H67 LYS d   1       1.023  -2.930  -7.294  0.00  0.00     0.033 H 
ATOM    193  H68 LYS d   1       0.696  -3.845  -8.805  0.00  0.00     0.033 H 
BRANCH 191 194
ATOM    194  CD  LYS d   1       2.734  -3.215  -8.560  0.00  0.00    -0.043 C 
ATOM    195  H69 LYS d   1       3.136  -3.993  -9.226  0.00  0.00     0.035 H 
ATOM    196  H70 LYS d   1       3.440  -3.037  -7.735  0.00  0.00     0.035 H 
BRANCH 194 197
ATOM    197  CE  LYS d   1       2.565  -1.928  -9.351  0.00  0.00     0.080 C 
ATOM    198  H71 LYS d   1       1.833  -2.098 -10.154  0.00  0.00     0.075 H 
ATOM    199  H72 LYS d   1       3.534  -1.651  -9.791  0.00  0.00     0.075 H 
BRANCH 197 200
ATOM    200  NZ  LYS d   1       2.088  -0.807  -8.495  0.00  0.00    -0.079 N 
ATOM    201  H73 LYS d   1       1.989   0.025  -9.055  0.00  0.00     0.274 HD
ATOM    202  H74 LYS d   1       2.756  -0.639  -7.759  0.00  0.00     0.274 HD
ATOM    203  H75 LYS d   1       1.196  -1.048  -8.091  0.00  0.00     0.274 HD
ENDBRANCH 197 200
ENDBRANCH 194 197
ENDBRANCH 191 194
ENDBRANCH 188 191
ENDBRANCH 104 188
ENDBRANCH 102 104
ENDBRANCH   1 100
BRANCH   1 204
ATOM    204  CB  ARG d   1      -0.217  -1.894  -4.228  0.00  0.00    -0.036 C 
ATOM    205  H52 ARG d   1       0.444  -2.684  -3.843  0.00  0.00     0.036 H 
ATOM    206  H53 ARG d   1      -0.573  -1.275  -3.392  0.00  0.00     0.036 H 
BRANCH 204 207
ATOM    207  CG  ARG d   1       0.587  -1.012  -5.169  0.00  0.00    -0.048 C 
ATOM    208  H54 ARG d   1       1.060  -1.645  -5.935  0.00  0.00     0.035 H 
ATOM    209  H55 ARG d   1       1.365  -0.491  -4.592  0.00  0.00     0.035 H 
BRANCH 207 210
ATOM    210  CD  ARG d   1      -0.293   0.020  -5.856  0.00  0.00     0.009 C 
ATOM    211  H56 ARG d   1      -0.857   0.573  -5.090  0.00  0.00     0.064 H 
ATOM    212  H57 ARG d   1      -0.995  -0.499  -6.525  0.00  0.00     0.064 H 
BRANCH 210 213
ATOM    213  NE  ARG d   1       0.493   0.968  -6.641  0.00  0.00    -0.227 N 
ATOM    214  CZ  ARG d   1      -0.042   1.887  -7.437  0.00  0.00     0.665 C 
ATOM    215  NH1 ARG d   1      -1.360   1.979  -7.555  0.00  0.00    -0.235 N 
ATOM    216  NH2 ARG d   1       0.740   2.713  -8.117  0.00  0.00    -0.235 N 
ATOM    217  H59 ARG d   1      -1.773   2.692  -8.173  0.00  0.00     0.174 HD
ATOM    218  H60 ARG d   1      -1.970   1.337  -7.029  0.00  0.00     0.174 HD
ATOM    219  H61 ARG d   1       1.764   2.644  -8.027  0.00  0.00     0.174 HD
ATOM    220  H62 ARG d   1       0.324   3.424  -8.735  0.00  0.00     0.174 HD
ATOM    221  H58 ARG d   1       1.520   0.921  -6.574  0.00  0.00     0.177 HD
ENDBRANCH 210 213
ENDBRANCH 207 210
ENDBRANCH 204 207
ENDBRANCH   1 204
TORSDOF 58
