REMARK  6 active torsions:
REMARK  status: ('A' for Active; 'I' for Inactive)
REMARK    1  A    between atoms: C4_4  and  C11_14 
REMARK    2  A    between atoms: C7_10  and  N13_16 
REMARK    3  A    between atoms: N13_16  and  C12_15 
REMARK    4  A    between atoms: C12_15  and  C15_21 
REMARK    5  A    between atoms: N13_16  and  C14_17 
REMARK    6  A    between atoms: C14_17  and  C16_25 
ROOT
ATOM      1  N1  LGD d   1       1.934  25.852   4.677  0.00  0.00    -0.323 N 
ATOM      2  C2  LGD d   1       3.321  25.626   4.765  0.00  0.00     0.246 A 
ATOM      3  C3  LGD d   1       4.231  26.740   4.930  0.00  0.00    -0.002 A 
ATOM      4  C4  LGD d   1       3.716  28.113   5.001  0.00  0.00     0.065 A 
ATOM      5  C5  LGD d   1       2.260  28.329   4.903  0.00  0.00     0.008 A 
ATOM      6  C6  LGD d   1       1.635  29.637   4.955  0.00  0.00    -0.044 A 
ATOM      7  C7  LGD d   1       0.199  29.840   4.868  0.00  0.00     0.031 A 
ATOM      8  C8  LGD d   1      -0.640  28.627   4.717  0.00  0.00    -0.055 A 
ATOM      9  C9  LGD d   1      -0.061  27.306   4.650  0.00  0.00    -0.054 A 
ATOM     10  C10 LGD d   1       1.369  27.143   4.738  0.00  0.00     0.046 A 
ATOM     11  O21 LGD d   1       3.734  24.479   4.706  0.00  0.00    -0.268 OA
ATOM     12  H1  LGD d   1       1.325  25.066   4.567  0.00  0.00     0.169 HD
ATOM     13  H2  LGD d   1       5.302  26.559   5.002  0.00  0.00     0.093 H 
ATOM     14  H3  LGD d   1       2.272  30.507   5.064  0.00  0.00     0.088 H 
ATOM     15  H4  LGD d   1      -1.717  28.735   4.655  0.00  0.00     0.087 H 
ATOM     16  H5  LGD d   1      -0.700  26.438   4.534  0.00  0.00     0.087 H 
ENDROOT
BRANCH   7  17
ATOM     17  N13 LGD d   1      -0.362  31.267   4.937  0.00  0.00    -0.364 N 
BRANCH  17  18
ATOM     18  C12 LGD d   1      -1.855  31.567   4.915  0.00  0.00     0.086 C 
ATOM     19  H6  LGD d   1      -2.354  30.899   4.197  0.00  0.00     0.077 H 
ATOM     20  H7  LGD d   1      -2.016  32.613   4.615  0.00  0.00     0.077 H 
BRANCH  18  21
ATOM     21  C15 LGD d   1      -2.397  31.355   6.224  0.00  0.00     0.403 C 
ATOM     22  F4  LGD d   1      -3.640  31.712   5.947  0.00  0.00    -0.169 F 
ATOM     23  F5  LGD d   1      -2.516  30.168   6.651  0.00  0.00    -0.169 F 
ATOM     24  F6  LGD d   1      -1.925  32.057   7.265  0.00  0.00    -0.169 F 
ENDBRANCH  18  21
ENDBRANCH  17  18
BRANCH  17  25
ATOM     25  C14 LGD d   1       0.507  32.456   4.794  0.00  0.00     0.086 C 
ATOM     26  H8  LGD d   1       1.488  32.131   5.170  0.00  0.00     0.077 H 
ATOM     27  H9  LGD d   1       0.078  33.199   5.483  0.00  0.00     0.077 H 
BRANCH  25  28
ATOM     28  C16 LGD d   1       0.766  33.105   3.747  0.00  0.00     0.403 C 
ATOM     29  F7  LGD d   1       0.408  34.303   4.128  0.00  0.00    -0.169 F 
ATOM     30  F8  LGD d   1       1.979  33.186   3.467  0.00  0.00    -0.169 F 
ATOM     31  F9  LGD d   1       0.147  32.842   2.591  0.00  0.00    -0.169 F 
ENDBRANCH  25  28
ENDBRANCH  17  25
ENDBRANCH   7  17
BRANCH   4  32
ATOM     32  C11 LGD d   1       4.760  29.324   5.199  0.00  0.00     0.418 C 
ATOM     33  F1  LGD d   1       4.496  29.901   6.380  0.00  0.00    -0.166 F 
ATOM     34  F2  LGD d   1       6.042  28.846   5.256  0.00  0.00    -0.166 F 
ATOM     35  F3  LGD d   1       4.651  30.295   4.288  0.00  0.00    -0.166 F 
ENDBRANCH   4  32
TORSDOF 6
