REMARK  20 active torsions:
REMARK  status: ('A' for Active; 'I' for Inactive)
REMARK    1  A    between atoms: C1_1  and  O1_48 
REMARK    2  A    between atoms: C43_43  and  C3_3 
REMARK    3  A    between atoms: C4_4  and  O12_59 
REMARK    4  A    between atoms: C7_7  and  C14_14 
REMARK    5  A    between atoms: C8_8  and  O2_49 
REMARK    6  A    between atoms: C12_12  and  C13_13 
REMARK    7  A    between atoms: C16_16  and  C30_30 
REMARK    8  A    between atoms: C20_20  and  C31_31 
REMARK    9  A    between atoms: C21_21  and  O10_57 
REMARK   10  A    between atoms: C22_22  and  C32_32 
REMARK   11  A    between atoms: C23_23  and  O9_56 
REMARK   12  A    between atoms: C24_24  and  C33_33 
REMARK   13  A    between atoms: C25_25  and  O7_54 
REMARK   14  A    between atoms: C26_26  and  C34_34 
REMARK   15  A    between atoms: C27_27  and  O6_53 
REMARK   16  A    between atoms: C35_35  and  C36_36 
REMARK   17  A    between atoms: O7_54  and  C35_35 
REMARK   18  A    between atoms: O6_53  and  C37_37 
REMARK   19  A    between atoms: N4_47  and  C38_38 
REMARK   20  A    between atoms: N2_45  and  N3_46 
ROOT
ATOM      1  C1  RFP d   1     -12.194   6.934 -21.130  0.00  0.00     0.107 A 
ATOM      2  C2  RFP d   1     -12.805   8.162 -20.879  0.00  0.00     0.084 A 
ATOM      3  C3  RFP d   1     -12.259   9.014 -19.925  0.00  0.00     0.047 A 
ATOM      4  C4  RFP d   1     -11.088   8.660 -19.233  0.00  0.00     0.092 A 
ATOM      5  C5  RFP d   1      -9.315   6.929 -18.786  0.00  0.00     0.064 A 
ATOM      6  C6  RFP d   1      -8.838   5.669 -19.014  0.00  0.00     0.096 A 
ATOM      7  C7  RFP d   1      -9.367   4.842 -19.982  0.00  0.00     0.007 A 
ATOM      8  C8  RFP d   1     -10.452   5.285 -20.676  0.00  0.00     0.088 A 
ATOM      9  C9  RFP d   1     -11.044   6.545 -20.422  0.00  0.00     0.047 A 
ATOM     10  C10 RFP d   1     -10.472   7.400 -19.461  0.00  0.00     0.031 A 
ATOM     11  C11 RFP d   1      -8.491   7.483 -17.663  0.00  0.00     0.225 C 
ATOM     12  C12 RFP d   1      -7.611   6.368 -17.145  0.00  0.00     0.237 C 
ATOM     13  C15 RFP d   1     -14.311   9.460 -22.307  0.00  0.00     0.251 C 
ATOM     14  C16 RFP d   1     -15.655   9.543 -22.908  0.00  0.00     0.006 C 
ATOM     15  C17 RFP d   1     -16.819   9.221 -22.316  0.00  0.00    -0.072 C 
ATOM     16  C18 RFP d   1     -17.006   8.791 -20.905  0.00  0.00    -0.085 C 
ATOM     17  C19 RFP d   1     -18.238   8.388 -20.538  0.00  0.00    -0.097 C 
ATOM     18  C20 RFP d   1     -18.732   7.874 -19.159  0.00  0.00    -0.016 C 
ATOM     19  C21 RFP d   1     -17.547   7.246 -18.374  0.00  0.00     0.047 C 
ATOM     20  C22 RFP d   1     -17.937   6.756 -16.961  0.00  0.00    -0.007 C 
ATOM     21  C23 RFP d   1     -16.770   6.087 -16.232  0.00  0.00     0.046 C 
ATOM     22  C24 RFP d   1     -15.459   6.954 -16.195  0.00  0.00    -0.006 C 
ATOM     23  C25 RFP d   1     -14.340   6.200 -15.388  0.00  0.00     0.059 C 
ATOM     24  C26 RFP d   1     -12.934   6.819 -15.398  0.00  0.00    -0.003 C 
ATOM     25  C27 RFP d   1     -11.915   5.864 -14.704  0.00  0.00     0.061 C 
ATOM     26  C28 RFP d   1     -10.441   6.359 -14.702  0.00  0.00    -0.054 C 
ATOM     27  C29 RFP d   1      -9.580   5.749 -15.568  0.00  0.00     0.015 C 
ATOM     28  N1  RFP d   1     -13.984   8.407 -21.559  0.00  0.00    -0.320 N 
ATOM     29  O3  RFP d   1      -7.745   5.356 -18.242  0.00  0.00    -0.305 OA
ATOM     30  O4  RFP d   1      -8.621   8.580 -17.098  0.00  0.00    -0.286 OA
ATOM     31  O5  RFP d   1      -8.144   6.086 -15.763  0.00  0.00    -0.319 OA
ATOM     32  O11 RFP d   1     -13.446  10.265 -22.522  0.00  0.00    -0.268 OA
ATOM     33  H7  RFP d   1     -17.715   9.281 -22.932  0.00  0.00     0.084 H 
ATOM     34  H8  RFP d   1     -16.180   8.801 -20.196  0.00  0.00     0.083 H 
ATOM     35  H9  RFP d   1     -18.995   8.429 -21.320  0.00  0.00     0.077 H 
ATOM     36  H10 RFP d   1     -19.513   7.113 -19.303  0.00  0.00     0.049 H 
ATOM     37  H11 RFP d   1     -16.773   8.020 -18.267  0.00  0.00     0.084 H 
ATOM     38  H12 RFP d   1     -18.238   7.638 -16.377  0.00  0.00     0.047 H 
ATOM     39  H13 RFP d   1     -17.083   5.910 -15.192  0.00  0.00     0.084 H 
ATOM     40  H14 RFP d   1     -15.103   7.114 -17.223  0.00  0.00     0.047 H 
ATOM     41  H15 RFP d   1     -14.277   5.168 -15.764  0.00  0.00     0.085 H 
ATOM     42  H16 RFP d   1     -12.941   7.792 -14.884  0.00  0.00     0.047 H 
ATOM     43  H17 RFP d   1     -12.218   5.746 -13.653  0.00  0.00     0.090 H 
ATOM     44  H18 RFP d   1     -10.110   7.157 -14.039  0.00  0.00     0.083 H 
ATOM     45  H19 RFP d   1      -9.982   4.939 -16.174  0.00  0.00     0.122 H 
ATOM     46  H53 RFP d   1     -14.685   7.699 -21.479  0.00  0.00     0.169 HD
ENDROOT
BRANCH   3  47
ATOM     47  C43 RFP d   1     -12.970  10.275 -19.710  0.00  0.00     0.036 C 
ATOM     48  N2  RFP d   1     -12.278  11.357 -19.820  0.00  0.00    -0.189 NA
ATOM     49  H52 RFP d   1     -14.032  10.298 -19.469  0.00  0.00     0.118 H 
BRANCH  48  50
ATOM     50  N3  RFP d   1     -12.897  12.620 -19.588  0.00  0.00    -0.302 N 
ATOM     51  C40 RFP d   1     -12.732  13.746 -20.503  0.00  0.00     0.034 C 
ATOM     52  C39 RFP d   1     -11.860  14.691 -19.684  0.00  0.00     0.099 C 
ATOM     53  H46 RFP d   1     -12.227  13.438 -21.430  0.00  0.00     0.069 H 
ATOM     54  H47 RFP d   1     -13.700  14.207 -20.749  0.00  0.00     0.069 H 
ATOM     55  N4  RFP d   1     -11.575  13.946 -18.458  0.00  0.00    -0.072 N 
ATOM     56  H44 RFP d   1     -12.400  15.622 -19.458  0.00  0.00     0.078 H 
ATOM     57  H45 RFP d   1     -10.930  14.928 -20.221  0.00  0.00     0.078 H 
ATOM     58  C42 RFP d   1     -12.669  13.691 -17.534  0.00  0.00     0.099 C 
ATOM     59  H54 RFP d   1     -11.357  14.804 -17.976  0.00  0.00     0.279 HD
ATOM     60  C41 RFP d   1     -13.641  12.820 -18.345  0.00  0.00     0.034 C 
ATOM     61  H50 RFP d   1     -12.312  13.154 -16.643  0.00  0.00     0.078 H 
ATOM     62  H51 RFP d   1     -13.149  14.632 -17.227  0.00  0.00     0.078 H 
ATOM     63  H48 RFP d   1     -14.591  13.343 -18.527  0.00  0.00     0.069 H 
ATOM     64  H49 RFP d   1     -13.840  11.864 -17.839  0.00  0.00     0.069 H 
BRANCH  55  65
ATOM     65  C38 RFP d   1     -10.221  13.448 -18.184  0.00  0.00     0.066 C 
ATOM     66  H41 RFP d   1      -9.548  13.748 -19.001  0.00  0.00     0.068 H 
ATOM     67  H42 RFP d   1     -10.242  12.351 -18.110  0.00  0.00     0.068 H 
ATOM     68  H43 RFP d   1      -9.859  13.873 -17.236  0.00  0.00     0.068 H 
ENDBRANCH  55  65
ENDBRANCH  48  50
ENDBRANCH   3  47
BRANCH   4  69
ATOM     69  O12 RFP d   1     -10.554   9.530 -18.327  0.00  0.00    -0.359 OA
ATOM     70  H59 RFP d   1     -10.541   9.123 -17.469  0.00  0.00     0.217 HD
ENDBRANCH   4  69
BRANCH   1  71
ATOM     71  O1  RFP d   1     -12.832   6.135 -22.073  0.00  0.00    -0.357 OA
ATOM     72  H55 RFP d   1     -13.119   5.329 -21.661  0.00  0.00     0.217 HD
ENDBRANCH   1  71
BRANCH   8  73
ATOM     73  O2  RFP d   1     -10.963   4.469 -21.626  0.00  0.00    -0.359 OA
ATOM     74  H56 RFP d   1     -11.863   4.258 -21.409  0.00  0.00     0.217 HD
ENDBRANCH   8  73
BRANCH  14  75
ATOM     75  C30 RFP d   1     -15.722  10.013 -24.336  0.00  0.00    -0.046 C 
ATOM     76  H20 RFP d   1     -14.707  10.241 -24.695  0.00  0.00     0.033 H 
ATOM     77  H21 RFP d   1     -16.344  10.918 -24.395  0.00  0.00     0.033 H 
ATOM     78  H22 RFP d   1     -16.163   9.223 -24.962  0.00  0.00     0.033 H 
ENDBRANCH  14  75
BRANCH   7  79
ATOM     79  C14 RFP d   1      -8.742   3.496 -20.260  0.00  0.00    -0.046 C 
ATOM     80  H4  RFP d   1      -7.884   3.344 -19.588  0.00  0.00     0.033 H 
ATOM     81  H5  RFP d   1      -8.400   3.459 -21.305  0.00  0.00     0.033 H 
ATOM     82  H6  RFP d   1      -9.486   2.704 -20.089  0.00  0.00     0.033 H 
ENDBRANCH   7  79
BRANCH  12  83
ATOM     83  C13 RFP d   1      -6.149   6.743 -16.949  0.00  0.00    -0.017 C 
ATOM     84  H1  RFP d   1      -5.594   5.871 -16.572  0.00  0.00     0.035 H 
ATOM     85  H2  RFP d   1      -6.076   7.566 -16.223  0.00  0.00     0.035 H 
ATOM     86  H3  RFP d   1      -5.720   7.063 -17.910  0.00  0.00     0.035 H 
ENDBRANCH  12  83
BRANCH  18  87
ATOM     87  C31 RFP d   1     -19.316   9.073 -18.400  0.00  0.00    -0.067 C 
ATOM     88  H23 RFP d   1     -20.151   9.499 -18.975  0.00  0.00     0.028 H 
ATOM     89  H24 RFP d   1     -18.536   9.837 -18.265  0.00  0.00     0.028 H 
ATOM     90  H25 RFP d   1     -19.679   8.742 -17.416  0.00  0.00     0.028 H 
ENDBRANCH  18  87
BRANCH  19  91
ATOM     91  O10 RFP d   1     -16.993   6.143 -19.083  0.00  0.00    -0.394 OA
ATOM     92  H58 RFP d   1     -16.745   6.422 -19.957  0.00  0.00     0.210 HD
ENDBRANCH  19  91
BRANCH  25  93
ATOM     93  O6  RFP d   1     -12.040   4.593 -15.372  0.00  0.00    -0.386 OA
BRANCH  93  94
ATOM     94  C37 RFP d   1     -11.722   3.493 -14.542  0.00  0.00     0.005 C 
ATOM     95  H38 RFP d   1     -11.838   2.559 -15.111  0.00  0.00     0.066 H 
ATOM     96  H39 RFP d   1     -12.399   3.480 -13.675  0.00  0.00     0.066 H 
ATOM     97  H40 RFP d   1     -10.682   3.584 -14.194  0.00  0.00     0.066 H 
ENDBRANCH  93  94
ENDBRANCH  25  93
BRANCH  20  98
ATOM     98  C32 RFP d   1     -19.147   5.775 -17.011  0.00  0.00    -0.068 C 
ATOM     99  H26 RFP d   1     -19.987   6.255 -17.535  0.00  0.00     0.028 H 
ATOM    100  H27 RFP d   1     -19.453   5.518 -15.986  0.00  0.00     0.028 H 
ATOM    101  H28 RFP d   1     -18.855   4.860 -17.547  0.00  0.00     0.028 H 
ENDBRANCH  20  98
BRANCH  24 102
ATOM    102  C34 RFP d   1     -12.552   6.992 -16.866  0.00  0.00    -0.068 C 
ATOM    103  H32 RFP d   1     -13.271   7.666 -17.355  0.00  0.00     0.028 H 
ATOM    104  H33 RFP d   1     -12.568   6.013 -17.367  0.00  0.00     0.028 H 
ATOM    105  H34 RFP d   1     -11.542   7.422 -16.934  0.00  0.00     0.028 H 
ENDBRANCH  24 102
BRANCH  21 106
ATOM    106  O9  RFP d   1     -16.483   4.798 -16.859  0.00  0.00    -0.395 OA
ATOM    107  H57 RFP d   1     -16.171   4.941 -17.745  0.00  0.00     0.210 HD
ENDBRANCH  21 106
BRANCH  23 108
ATOM    108  O7  RFP d   1     -14.736   6.219 -13.985  0.00  0.00    -0.315 OA
BRANCH 108 109
ATOM    109  C35 RFP d   1     -15.096   5.024 -13.327  0.00  0.00     0.255 C 
ATOM    110  O8  RFP d   1     -14.976   3.959 -13.958  0.00  0.00    -0.266 OA
BRANCH 109 111
ATOM    111  C36 RFP d   1     -15.522   5.206 -11.892  0.00  0.00     0.004 C 
ATOM    112  H35 RFP d   1     -15.783   4.229 -11.460  0.00  0.00     0.041 H 
ATOM    113  H36 RFP d   1     -16.398   5.871 -11.851  0.00  0.00     0.041 H 
ATOM    114  H37 RFP d   1     -14.696   5.652 -11.318  0.00  0.00     0.041 H 
ENDBRANCH 109 111
ENDBRANCH 108 109
ENDBRANCH  23 108
BRANCH  22 115
ATOM    115  C33 RFP d   1     -15.786   8.323 -15.562  0.00  0.00    -0.068 C 
ATOM    116  H29 RFP d   1     -16.570   8.821 -16.151  0.00  0.00     0.028 H 
ATOM    117  H30 RFP d   1     -14.881   8.948 -15.553  0.00  0.00     0.028 H 
ATOM    118  H31 RFP d   1     -16.140   8.175 -14.531  0.00  0.00     0.028 H 
ENDBRANCH  22 115
TORSDOF 20
