REMARK  1 active torsions:
REMARK  status: ('A' for Active; 'I' for Inactive)
REMARK    1  A    between atoms: C1_1  and  C2_2 
ROOT
ATOM      1  C1  NON d   1      21.563  -8.115  19.210  0.00  0.00     0.279 C 
ATOM      2  O1  NON d   1      22.215  -7.173  18.667  0.00  0.00    -0.639 OA
ATOM      3  O3  NON d   1      22.123  -8.978  19.929  0.00  0.00    -0.639 OA
ENDROOT
BRANCH   1   4
ATOM      4  C2  NON d   1      20.100  -8.218  19.021  0.00  0.00     0.279 C 
ATOM      5  O2  NON d   1      19.509  -7.423  18.252  0.00  0.00    -0.639 OA
ATOM      6  O4  NON d   1      19.454  -9.096  19.648  0.00  0.00    -0.639 OA
ENDBRANCH   1   4
TORSDOF 1
