REMARK  8 active torsions:
REMARK  status: ('A' for Active; 'I' for Inactive)
REMARK    1  A    between atoms: C16_24  and  C2_3 
REMARK    2  A    between atoms: C3_5  and  C4_6 
REMARK    3  A    between atoms: C5_7  and  C16_24 
REMARK    4  A    between atoms: C6_9  and  N_10 
REMARK    5  A    between atoms: N_10  and  S1_11 
REMARK    6  A    between atoms: S1_11  and  C7_12 
REMARK    7  A    between atoms: C10_15  and  C13_18 
REMARK    8  A    between atoms: C15_21  and  O2_23 
ROOT
ATOM      1  C5  RNA d   1       7.342  32.273  72.190  0.00  0.00     0.045 A 
ATOM      2  S   RNA d   1       7.892  33.102  73.624  0.00  0.00    -0.051 SA
ATOM      3  C6  RNA d   1       6.273  33.641  73.859  0.00  0.00     0.183 A 
ATOM      4  C15 RNA d   1       5.991  32.452  71.992  0.00  0.00     0.178 A 
ATOM      5  N1  RNA d   1       5.372  33.228  72.931  0.00  0.00    -0.199 NA
ENDROOT
BRANCH   3   6
ATOM      6  N   RNA d   1       5.920  34.461  74.950  0.00  0.00    -0.258 N 
ATOM      7  H6  RNA d   1       4.987  34.408  75.305  0.00  0.00     0.181 HD
BRANCH   6   8
ATOM      8  S1  RNA d   1       7.017  35.544  75.695  0.00  0.00     0.264 S 
ATOM      9  O14 RNA d   1       8.128  34.637  76.379  0.00  0.00    -0.200 OA
ATOM     10  O1  RNA d   1       6.255  36.367  76.821  0.00  0.00    -0.200 OA
BRANCH   8  11
ATOM     11  C7  RNA d   1       7.724  36.604  74.517  0.00  0.00     0.080 A 
ATOM     12  C8  RNA d   1       9.083  36.452  74.165  0.00  0.00    -0.060 A 
ATOM     13  C9  RNA d   1       9.646  37.333  73.198  0.00  0.00    -0.076 A 
ATOM     14  H7  RNA d   1       9.688  35.678  74.623  0.00  0.00     0.085 H 
ATOM     15  C10 RNA d   1       8.847  38.355  72.594  0.00  0.00    -0.062 A 
ATOM     16  H8  RNA d   1      10.688  37.229  72.917  0.00  0.00     0.084 H 
ATOM     17  C11 RNA d   1       7.473  38.487  72.967  0.00  0.00    -0.076 A 
ATOM     18  C12 RNA d   1       6.909  37.609  73.934  0.00  0.00    -0.060 A 
ATOM     19  H9  RNA d   1       6.860  39.257  72.512  0.00  0.00     0.084 H 
ATOM     20  H10 RNA d   1       5.869  37.706  74.222  0.00  0.00     0.085 H 
BRANCH  15  21
ATOM     21  C13 RNA d   1       9.449  39.310  71.556  0.00  0.00    -0.051 C 
ATOM     22  H11 RNA d   1      10.508  39.059  71.397  0.00  0.00     0.033 H 
ATOM     23  H12 RNA d   1       9.368  40.345  71.920  0.00  0.00     0.033 H 
ATOM     24  H13 RNA d   1       8.903  39.211  70.606  0.00  0.00     0.033 H 
ENDBRANCH  15  21
ENDBRANCH   8  11
ENDBRANCH   6   8
ENDBRANCH   3   6
BRANCH   1  25
ATOM     25  C16 RNA d   1       8.309  31.459  71.300  0.00  0.00     0.014 C 
ATOM     26  H15 RNA d   1       7.713  30.778  70.675  0.00  0.00     0.051 H 
ATOM     27  H16 RNA d   1       8.860  32.161  70.656  0.00  0.00     0.051 H 
BRANCH  25  28
ATOM     28  C2  RNA d   1       9.317  30.633  72.076  0.00  0.00     0.058 A 
ATOM     29  C1  RNA d   1       9.054  29.650  73.031  0.00  0.00    -0.052 A 
ATOM     30  C   RNA d   1      10.266  29.162  73.488  0.00  0.00    -0.052 A 
ATOM     31  H2  RNA d   1       8.068  29.324  73.359  0.00  0.00     0.087 H 
ATOM     32  C3  RNA d   1      11.280  29.838  72.819  0.00  0.00     0.049 A 
ATOM     33  H1  RNA d   1      10.401  28.385  74.239  0.00  0.00     0.087 H 
ATOM     34  O   RNA d   1      10.692  30.738  71.950  0.00  0.00    -0.320 OA
BRANCH  32  35
ATOM     35  C4  RNA d   1      12.771  29.650  72.996  0.00  0.00    -0.031 C 
ATOM     36  H3  RNA d   1      13.309  30.333  72.322  0.00  0.00     0.036 H 
ATOM     37  H4  RNA d   1      13.041  28.611  72.756  0.00  0.00     0.036 H 
ATOM     38  H5  RNA d   1      13.047  29.869  74.038  0.00  0.00     0.036 H 
ENDBRANCH  32  35
ENDBRANCH  25  28
ENDBRANCH   1  25
BRANCH   4  39
ATOM     39  O2  RNA d   1       5.298  31.902  70.930  0.00  0.00    -0.344 OA
ATOM     40  H14 RNA d   1       5.896  31.399  70.390  0.00  0.00     0.219 HD
ENDBRANCH   4  39
TORSDOF 8
