REMARK  8 active torsions:
REMARK  status: ('A' for Active; 'I' for Inactive)
REMARK    1  A    between atoms: C6_6  and  C8_8 
REMARK    2  A    between atoms: C8_8  and  C9_9 
REMARK    3  A    between atoms: C8_8  and  N12_12 
REMARK    4  A    between atoms: N12_12  and  C13_13 
REMARK    5  A    between atoms: C15_15  and  C19_19 
REMARK    6  A    between atoms: C19_19  and  C20_20 
REMARK    7  A    between atoms: C23_23  and  C25_25 
REMARK    8  A    between atoms: C25_25  and  C26_26 
ROOT
ATOM      1  C13 VRX d   1       6.370  34.099  75.606  0.00  0.00     0.172 A 
ATOM      2  S14 VRX d   1       7.964  33.543  75.253  0.00  0.00    -0.047 SA
ATOM      3  C15 VRX d   1       7.300  32.327  74.252  0.00  0.00     0.081 A 
ATOM      4  C16 VRX d   1       5.808  32.389  74.237  0.00  0.00     0.286 A 
ATOM      5  N17 VRX d   1       5.358  33.440  75.034  0.00  0.00    -0.184 NA
ATOM      6  O18 VRX d   1       5.089  31.628  73.613  0.00  0.00    -0.265 OA
ENDROOT
BRANCH   1   7
ATOM      7  N12 VRX d   1       6.102  35.211  76.466  0.00  0.00    -0.351 N 
ATOM      8  H6  VRX d   1       5.122  35.497  76.601  0.00  0.00     0.163 HD
BRANCH   7   9
ATOM      9  C8  VRX d   1       7.175  35.986  77.185  0.00  0.00     0.121 C 
ATOM     10  H5  VRX d   1       7.818  35.252  77.693  0.00  0.00     0.097 H 
BRANCH   9  11
ATOM     11  C6  VRX d   1       8.085  36.834  76.236  0.00  0.00    -0.025 A 
ATOM     12  C1  VRX d   1       9.505  36.653  76.244  0.00  0.00    -0.071 A 
ATOM     13  C2  VRX d   1      10.328  37.395  75.365  0.00  0.00    -0.045 A 
ATOM     14  H1  VRX d   1       9.953  35.942  76.929  0.00  0.00     0.084 H 
ATOM     15  C3  VRX d   1       9.764  38.384  74.522  0.00  0.00     0.116 A 
ATOM     16  H2  VRX d   1      11.395  37.206  75.336  0.00  0.00     0.088 H 
ATOM     17  C4  VRX d   1       8.363  38.584  74.500  0.00  0.00    -0.045 A 
ATOM     18  F   VRX d   1      10.582  39.160  73.756  0.00  0.00    -0.206 F 
ATOM     19  C5  VRX d   1       7.519  37.795  75.332  0.00  0.00    -0.071 A 
ATOM     20  H3  VRX d   1       7.933  39.337  73.850  0.00  0.00     0.088 H 
ATOM     21  H4  VRX d   1       6.443  37.920  75.283  0.00  0.00     0.084 H 
ENDBRANCH   9  11
BRANCH   9  22
ATOM     22  C9  VRX d   1       6.569  36.918  78.259  0.00  0.00     0.201 C 
ATOM     23  O10 VRX d   1       5.308  37.367  77.964  0.00  0.00    -0.646 OA
ATOM     24  O11 VRX d   1       7.158  37.234  79.279  0.00  0.00    -0.646 OA
ENDBRANCH   9  22
ENDBRANCH   7   9
ENDBRANCH   1   7
BRANCH   3  25
ATOM     25  C19 VRX d   1       8.161  31.327  73.492  0.00  0.00    -0.028 C 
ATOM     26  H7  VRX d   1       7.612  30.603  72.892  0.00  0.00     0.090 H 
BRANCH  25  27
ATOM     27  C20 VRX d   1       9.666  31.193  73.449  0.00  0.00     0.077 A 
ATOM     28  C21 VRX d   1      10.604  31.710  74.338  0.00  0.00    -0.048 A 
ATOM     29  C22 VRX d   1      11.855  31.314  73.912  0.00  0.00    -0.052 A 
ATOM     30  H8  VRX d   1      10.389  32.319  75.215  0.00  0.00     0.087 H 
ATOM     31  C23 VRX d   1      11.696  30.545  72.770  0.00  0.00     0.053 A 
ATOM     32  H9  VRX d   1      12.802  31.562  74.389  0.00  0.00     0.087 H 
ATOM     33  O24 VRX d   1      10.350  30.489  72.493  0.00  0.00    -0.315 OA
BRANCH  31  34
ATOM     34  C25 VRX d   1      12.771  29.860  71.942  0.00  0.00    -0.024 C 
ATOM     35  H10 VRX d   1      12.411  28.861  71.656  0.00  0.00     0.042 H 
ATOM     36  H11 VRX d   1      13.678  29.761  72.556  0.00  0.00     0.042 H 
BRANCH  34  37
ATOM     37  C26 VRX d   1      13.125  30.636  70.669  0.00  0.00    -0.071 C 
ATOM     38  H12 VRX d   1      13.905  30.094  70.114  0.00  0.00     0.028 H 
ATOM     39  H13 VRX d   1      13.496  31.636  70.940  0.00  0.00     0.028 H 
ATOM     40  H14 VRX d   1      12.229  30.736  70.039  0.00  0.00     0.028 H 
ENDBRANCH  34  37
ENDBRANCH  31  34
ENDBRANCH  25  27
ENDBRANCH   3  25
TORSDOF 8
