REMARK  5 active torsions:
REMARK  status: ('A' for Active; 'I' for Inactive)
REMARK    1  A    between atoms: C10_2  and  C11_3 
REMARK       I    between atoms: C10_2  and  N11_5 
REMARK    2  A    between atoms: C11_3  and  C51_4 
REMARK    3  A    between atoms: N11_5  and  C9_6 
REMARK    4  A    between atoms: C6_12  and  N1_16 
REMARK    5  A    between atoms: N1_16  and  C5_17 
ROOT
ATOM      1  C9  RBS d   1       8.928  -8.293  -2.592  0.00  0.00     0.035 A 
ATOM      2  C8  RBS d   1       8.428  -7.444  -3.596  0.00  0.00    -0.041 A 
ATOM      3  C13 RBS d   1      10.285  -8.639  -2.605  0.00  0.00    -0.055 A 
ATOM      4  C17 RBS d   1      11.126  -8.147  -3.605  0.00  0.00    -0.052 A 
ATOM      5  C18 RBS d   1      10.619  -7.297  -4.591  0.00  0.00     0.072 A 
ATOM      6  C7  RBS d   1       9.268  -6.946  -4.597  0.00  0.00     0.041 A 
ATOM      7  C6  RBS d   1       8.802  -6.094  -5.613  0.00  0.00     0.142 A 
ATOM      8  N3  RBS d   1       9.679  -5.654  -6.543  0.00  0.00    -0.224 NA
ATOM      9  C19 RBS d   1      10.971  -6.012  -6.510  0.00  0.00     0.089 A 
ATOM     10  N2  RBS d   1      11.445  -6.814  -5.552  0.00  0.00    -0.241 NA
ATOM     11  H7  RBS d   1       7.379  -7.172  -3.594  0.00  0.00     0.088 H 
ATOM     12  H8  RBS d   1      10.684  -9.291  -1.836  0.00  0.00     0.087 H 
ATOM     13  H9  RBS d   1      12.174  -8.425  -3.616  0.00  0.00     0.087 H 
ATOM     14  H10 RBS d   1      11.644  -5.644  -7.276  0.00  0.00     0.146 H 
ENDROOT
BRANCH   7  15
ATOM     15  N1  RBS d   1       7.487  -5.729  -5.662  0.00  0.00    -0.340 N 
ATOM     16  H11 RBS d   1       6.885  -6.117  -4.921  0.00  0.00     0.167 HD
BRANCH  15  17
ATOM     17  C5  RBS d   1       6.870  -4.919  -6.564  0.00  0.00     0.033 A 
ATOM     18  C4  RBS d   1       7.536  -4.337  -7.640  0.00  0.00    -0.057 A 
ATOM     19  C3  RBS d   1       6.846  -3.516  -8.529  0.00  0.00    -0.081 A 
ATOM     20  H12 RBS d   1       8.594  -4.523  -7.786  0.00  0.00     0.086 H 
ATOM     21  C22 RBS d   1       5.477  -3.284  -8.355  0.00  0.00    -0.083 A 
ATOM     22  H16 RBS d   1       7.371  -3.055  -9.358  0.00  0.00     0.083 H 
ATOM     23  C21 RBS d   1       4.808  -3.861  -7.272  0.00  0.00    -0.081 A 
ATOM     24  H15 RBS d   1       4.938  -2.659  -9.057  0.00  0.00     0.083 H 
ATOM     25  C20 RBS d   1       5.510  -4.672  -6.379  0.00  0.00    -0.057 A 
ATOM     26  H14 RBS d   1       3.749  -3.680  -7.126  0.00  0.00     0.083 H 
ATOM     27  H13 RBS d   1       4.994  -5.114  -5.534  0.00  0.00     0.086 H 
ENDBRANCH  15  17
ENDBRANCH   7  15
BRANCH   1  28
ATOM     28  N11 RBS d   1       8.157  -8.816  -1.589  0.00  0.00    -0.327 N 
ATOM     29  C10 RBS d   1       6.860  -8.561  -1.385  0.00  0.00     0.221 C 
ATOM     30  O61 RBS d   1       6.173  -7.901  -2.152  0.00  0.00    -0.273 OA
ATOM     31  H6  RBS d   1       8.603  -9.445  -0.952  0.00  0.00     0.169 HD
BRANCH  29  32
ATOM     32  C11 RBS d   1       6.297  -9.046  -0.051  0.00  0.00     0.006 C 
ATOM     33  H1  RBS d   1       6.857  -9.939   0.262  0.00  0.00     0.046 H 
ATOM     34  H2  RBS d   1       5.238  -9.308  -0.191  0.00  0.00     0.046 H 
BRANCH  32  35
ATOM     35  C51 RBS d   1       6.398  -7.991   1.058  0.00  0.00    -0.068 C 
ATOM     36  H3  RBS d   1       5.978  -8.397   1.990  0.00  0.00     0.028 H 
ATOM     37  H4  RBS d   1       5.835  -7.094   0.763  0.00  0.00     0.028 H 
ATOM     38  H5  RBS d   1       7.454  -7.726   1.216  0.00  0.00     0.028 H 
ENDBRANCH  32  35
ENDBRANCH  29  32
ENDBRANCH   1  28
TORSDOF 5
