REMARK  5 active torsions:
REMARK  status: ('A' for Active; 'I' for Inactive)
REMARK    1  A    between atoms: C1_1  and  C7_20 
REMARK    2  A    between atoms: C12_8  and  C14_10 
REMARK    3  A    between atoms: C7_20  and  N2_21 
REMARK    4  A    between atoms: C17_26  and  C18_27 
REMARK    5  A    between atoms: C18_27  and  N3_28 
ROOT
ATOM      1  C14 422 d   1      16.478  -0.774   9.470  0.00  0.00     0.116 A 
ATOM      2  C15 422 d   1      15.432  -1.403  10.256  0.00  0.00     0.025 A 
ATOM      3  C16 422 d   1      14.266  -0.537  10.157  0.00  0.00     0.064 A 
ATOM      4  N17 422 d   1      14.602   0.496   9.368  0.00  0.00    -0.277 N 
ATOM      5  N18 422 d   1      15.911   0.400   8.984  0.00  0.00    -0.171 NA
ATOM      6  C19 422 d   1      15.309  -2.619  11.116  0.00  0.00    -0.067 A 
ATOM      7  C20 422 d   1      14.044  -2.912  11.844  0.00  0.00    -0.062 A 
ATOM      8  C21 422 d   1      12.916  -1.955  11.709  0.00  0.00     0.046 A 
ATOM      9  C22 422 d   1      12.996  -0.751  10.854  0.00  0.00    -0.035 A 
ATOM     10  C23 422 d   1      11.715  -2.203  12.479  0.00  0.00     0.099 C 
ATOM     11  N1  422 d   1      10.735  -2.422  13.066  0.00  0.00    -0.191 NA
ATOM     12  H6  422 d   1      13.963   1.255   9.091  0.00  0.00     0.189 HD
ATOM     13  H7  422 d   1      16.151  -3.296  11.211  0.00  0.00     0.085 H 
ATOM     14  H8  422 d   1      13.948  -3.801  12.457  0.00  0.00     0.085 H 
ATOM     15  H9  422 d   1      12.162  -0.066  10.749  0.00  0.00     0.089 H 
ENDROOT
BRANCH   1  16
ATOM     16  C12 422 d   1      17.937  -1.178   9.258  0.00  0.00     0.065 A 
ATOM     17  C11 422 d   1      18.583  -2.373   9.744  0.00  0.00    -0.043 A 
ATOM     18  C3  422 d   1      19.942  -2.205   9.266  0.00  0.00    -0.007 A 
ATOM     19  H4  422 d   1      18.158  -3.192  10.322  0.00  0.00     0.088 H 
ATOM     20  C2  422 d   1      21.109  -3.057   9.429  0.00  0.00    -0.063 A 
ATOM     21  C4  422 d   1      20.060  -0.941   8.504  0.00  0.00     0.043 A 
ATOM     22  C1  422 d   1      22.383  -2.635   8.810  0.00  0.00    -0.032 A 
ATOM     23  H1  422 d   1      21.046  -3.981   9.992  0.00  0.00     0.085 H 
ATOM     24  C6  422 d   1      22.520  -1.385   8.040  0.00  0.00    -0.073 A 
ATOM     25  C5  422 d   1      21.328  -0.522   7.888  0.00  0.00    -0.056 A 
ATOM     26  H3  422 d   1      23.469  -1.106   7.597  0.00  0.00     0.084 H 
ATOM     27  H2  422 d   1      21.388   0.406   7.331  0.00  0.00     0.087 H 
ATOM     28  N13 422 d   1      18.769  -0.361   8.581  0.00  0.00    -0.354 N 
ATOM     29  H5  422 d   1      18.505   0.550   8.179  0.00  0.00     0.166 HD
BRANCH  22  30
ATOM     30  C7  422 d   1      23.643  -3.495   8.956  0.00  0.00     0.107 C 
ATOM     31  H10 422 d   1      23.737  -3.772  10.016  0.00  0.00     0.083 H 
ATOM     32  H11 422 d   1      24.504  -2.878   8.661  0.00  0.00     0.083 H 
BRANCH  30  33
ATOM     33  N2  422 d   1      23.691  -4.748   8.156  0.00  0.00    -0.067 N 
ATOM     34  C8  422 d   1      22.791  -4.867   6.989  0.00  0.00     0.084 C 
ATOM     35  C13 422 d   1      22.770  -6.318   6.522  0.00  0.00    -0.037 C 
ATOM     36  H13 422 d   1      23.156  -4.223   6.175  0.00  0.00     0.076 H 
ATOM     37  H14 422 d   1      21.775  -4.557   7.274  0.00  0.00     0.076 H 
ATOM     38  C17 422 d   1      24.138  -6.835   6.079  0.00  0.00    -0.028 C 
ATOM     39  H19 422 d   1      22.075  -6.401   5.673  0.00  0.00     0.036 H 
ATOM     40  H20 422 d   1      22.412  -6.946   7.351  0.00  0.00     0.036 H 
ATOM     41  C10 422 d   1      25.058  -6.609   7.279  0.00  0.00    -0.037 C 
ATOM     42  H21 422 d   1      24.498  -6.274   5.204  0.00  0.00     0.042 H 
ATOM     43  C9  422 d   1      25.075  -5.165   7.776  0.00  0.00     0.084 C 
ATOM     44  H17 422 d   1      24.720  -7.256   8.102  0.00  0.00     0.036 H 
ATOM     45  H18 422 d   1      26.082  -6.889   6.989  0.00  0.00     0.036 H 
ATOM     46  H15 422 d   1      25.734  -5.088   8.653  0.00  0.00     0.076 H 
ATOM     47  H16 422 d   1      25.449  -4.508   6.977  0.00  0.00     0.076 H 
ATOM     48  H12 422 d   1      23.366  -5.454   8.797  0.00  0.00     0.280 HD
BRANCH  38  49
ATOM     49  C18 422 d   1      24.068  -8.327   5.737  0.00  0.00     0.083 C 
ATOM     50  H22 422 d   1      23.720  -8.895   6.612  0.00  0.00     0.075 H 
ATOM     51  H23 422 d   1      25.063  -8.688   5.438  0.00  0.00     0.075 H 
BRANCH  49  52
ATOM     52  N3  422 d   1      23.119  -8.495   4.622  0.00  0.00    -0.079 N 
ATOM     53  H24 422 d   1      23.056  -9.471   4.379  0.00  0.00     0.274 HD
ATOM     54  H25 422 d   1      23.442  -7.970   3.824  0.00  0.00     0.274 HD
ATOM     55  H26 422 d   1      22.210  -8.159   4.901  0.00  0.00     0.274 HD
ENDBRANCH  49  52
ENDBRANCH  38  49
ENDBRANCH  30  33
ENDBRANCH  22  30
ENDBRANCH   1  16
TORSDOF 5
