REMARK  5 active torsions:
REMARK  status: ('A' for Active; 'I' for Inactive)
REMARK    1  A    between atoms: C13_9  and  C16_11 
REMARK    2  A    between atoms: C26_18  and  C31_20 
REMARK    3  A    between atoms: C31_20  and  N32_21 
REMARK    4  A    between atoms: C37_24  and  C48_27 
REMARK    5  A    between atoms: C48_27  and  N50_28 
ROOT
ATOM      1  C16 373 d   1      18.338  -1.400   9.411  0.00  0.00     0.049 A 
ATOM      2  N17 373 d   1      19.162  -0.523   8.681  0.00  0.00    -0.355 N 
ATOM      3  C18 373 d   1      20.442  -1.046   8.626  0.00  0.00     0.043 A 
ATOM      4  C19 373 d   1      20.448  -2.304   9.366  0.00  0.00    -0.007 A 
ATOM      5  C20 373 d   1      19.149  -2.468   9.866  0.00  0.00    -0.044 A 
ATOM      6  C24 373 d   1      21.622  -0.515   7.961  0.00  0.00    -0.056 A 
ATOM      7  C25 373 d   1      22.872  -1.280   8.041  0.00  0.00    -0.073 A 
ATOM      8  C26 373 d   1      22.862  -2.550   8.794  0.00  0.00    -0.032 A 
ATOM      9  C27 373 d   1      21.670  -3.064   9.457  0.00  0.00    -0.063 A 
ATOM     10  H7  373 d   1      18.861   0.365   8.256  0.00  0.00     0.166 HD
ATOM     11  H8  373 d   1      18.816  -3.286  10.503  0.00  0.00     0.088 H 
ATOM     12  H9  373 d   1      21.579   0.423   7.420  0.00  0.00     0.087 H 
ATOM     13  H10 373 d   1      23.776  -0.923   7.561  0.00  0.00     0.084 H 
ATOM     14  H11 373 d   1      21.701  -3.998  10.007  0.00  0.00     0.085 H 
ENDROOT
BRANCH   8  15
ATOM     15  C31 373 d   1      24.075  -3.447   8.837  0.00  0.00     0.107 C 
ATOM     16  H12 373 d   1      24.025  -4.100   9.721  0.00  0.00     0.083 H 
ATOM     17  H13 373 d   1      24.989  -2.837   8.883  0.00  0.00     0.083 H 
BRANCH  15  18
ATOM     18  N32 373 d   1      24.080  -4.269   7.604  0.00  0.00    -0.067 N 
ATOM     19  C35 373 d   1      25.294  -3.933   6.836  0.00  0.00     0.084 C 
ATOM     20  C36 373 d   1      25.112  -4.500   5.437  0.00  0.00    -0.037 C 
ATOM     21  H15 373 d   1      26.178  -4.382   7.313  0.00  0.00     0.076 H 
ATOM     22  H16 373 d   1      25.419  -2.841   6.787  0.00  0.00     0.076 H 
ATOM     23  C37 373 d   1      24.964  -6.013   5.477  0.00  0.00    -0.028 C 
ATOM     24  H17 373 d   1      25.990  -4.240   4.827  0.00  0.00     0.036 H 
ATOM     25  H18 373 d   1      24.209  -4.062   4.986  0.00  0.00     0.036 H 
ATOM     26  C38 373 d   1      23.794  -6.383   6.410  0.00  0.00    -0.037 C 
ATOM     27  H19 373 d   1      25.890  -6.465   5.863  0.00  0.00     0.042 H 
ATOM     28  C39 373 d   1      24.010  -5.747   7.784  0.00  0.00     0.084 C 
ATOM     29  H20 373 d   1      23.743  -7.477   6.517  0.00  0.00     0.036 H 
ATOM     30  H21 373 d   1      22.852  -6.013   5.980  0.00  0.00     0.036 H 
ATOM     31  H22 373 d   1      23.172  -6.002   8.449  0.00  0.00     0.076 H 
ATOM     32  H23 373 d   1      24.950  -6.114   8.221  0.00  0.00     0.076 H 
ATOM     33  H14 373 d   1      23.272  -4.000   7.064  0.00  0.00     0.280 HD
BRANCH  23  34
ATOM     34  C48 373 d   1      24.710  -6.523   4.034  0.00  0.00     0.083 C 
ATOM     35  H24 373 d   1      23.766  -6.103   3.657  0.00  0.00     0.075 H 
ATOM     36  H25 373 d   1      24.648  -7.621   4.038  0.00  0.00     0.075 H 
BRANCH  34  37
ATOM     37  N50 373 d   1      25.824  -6.095   3.162  0.00  0.00    -0.079 N 
ATOM     38  H26 373 d   1      25.662  -6.425   2.223  0.00  0.00     0.274 HD
ATOM     39  H27 373 d   1      26.689  -6.480   3.509  0.00  0.00     0.274 HD
ATOM     40  H28 373 d   1      25.881  -5.089   3.159  0.00  0.00     0.274 HD
ENDBRANCH  34  37
ENDBRANCH  23  34
ENDBRANCH  15  18
ENDBRANCH   8  15
BRANCH   1  41
ATOM     41  C13 373 d   1      16.885  -1.213   9.695  0.00  0.00     0.059 A 
ATOM     42  C12 373 d   1      16.149  -0.056   9.086  0.00  0.00     0.258 A 
ATOM     43  N11 373 d   1      14.854   0.186   9.396  0.00  0.00    -0.322 N 
ATOM     44  O1  373 d   1      16.775   0.652   8.304  0.00  0.00    -0.267 OA
ATOM     45  C6  373 d   1      14.143  -0.603  10.254  0.00  0.00     0.045 A 
ATOM     46  H5  373 d   1      14.400   0.974   8.980  0.00  0.00     0.169 HD
ATOM     47  C1  373 d   1      14.808  -1.750  10.844  0.00  0.00    -0.008 A 
ATOM     48  C5  373 d   1      12.800  -0.221  10.616  0.00  0.00    -0.056 A 
ATOM     49  C2  373 d   1      14.131  -2.590  11.812  0.00  0.00    -0.071 A 
ATOM     50  C14 373 d   1      16.201  -2.040  10.516  0.00  0.00    -0.053 A 
ATOM     51  C3  373 d   1      12.772  -2.219  12.180  0.00  0.00    -0.082 A 
ATOM     52  H1  373 d   1      14.616  -3.458  12.244  0.00  0.00     0.084 H 
ATOM     53  C4  373 d   1      12.132  -1.035  11.615  0.00  0.00    -0.081 A 
ATOM     54  H2  373 d   1      12.226  -2.833  12.886  0.00  0.00     0.083 H 
ATOM     55  H3  373 d   1      11.138  -0.758  11.948  0.00  0.00     0.083 H 
ATOM     56  H6  373 d   1      16.688  -2.921  10.932  0.00  0.00     0.086 H 
ATOM     57  H4  373 d   1      12.312   0.634  10.163  0.00  0.00     0.086 H 
ENDBRANCH   1  41
TORSDOF 5
