REMARK  4 active torsions:
REMARK  status: ('A' for Active; 'I' for Inactive)
REMARK    1  A    between atoms: C14_16  and  C1_2 
REMARK    2  A    between atoms: C22_24  and  C4_6 
REMARK    3  A    between atoms: C11_13  and  C13_15 
REMARK    4  A    between atoms: C13_15  and  N24_27 
ROOT
ATOM      1  C4  306 d   1      18.566  -1.424   9.276  0.00  0.00     0.049 A 
ATOM      2  C5  306 d   1      19.398  -2.486   9.731  0.00  0.00    -0.044 A 
ATOM      3  N6  306 d   1      19.317  -0.560   8.562  0.00  0.00    -0.355 N 
ATOM      4  C7  306 d   1      20.663  -2.275   9.200  0.00  0.00    -0.007 A 
ATOM      5  C8  306 d   1      20.614  -1.018   8.418  0.00  0.00     0.043 A 
ATOM      6  C9  306 d   1      21.769  -0.510   7.692  0.00  0.00    -0.056 A 
ATOM      7  C10 306 d   1      23.017  -1.270   7.727  0.00  0.00    -0.073 A 
ATOM      8  C11 306 d   1      23.058  -2.523   8.497  0.00  0.00    -0.032 A 
ATOM      9  C12 306 d   1      21.902  -3.018   9.244  0.00  0.00    -0.063 A 
ATOM     10  H4  306 d   1      19.098  -3.311  10.376  0.00  0.00     0.088 H 
ATOM     11  H5  306 d   1      18.969   0.328   8.174  0.00  0.00     0.166 HD
ATOM     12  H6  306 d   1      21.704   0.417   7.134  0.00  0.00     0.087 H 
ATOM     13  H7  306 d   1      23.894  -0.918   7.197  0.00  0.00     0.084 H 
ATOM     14  H8  306 d   1      21.974  -3.931   9.824  0.00  0.00     0.085 H 
ENDROOT
BRANCH   1  15
ATOM     15  C22 306 d   1      17.121  -1.275   9.578  0.00  0.00     0.059 A 
ATOM     16  C21 306 d   1      16.400  -0.101   8.961  0.00  0.00     0.258 A 
ATOM     17  N20 306 d   1      15.092   0.131   9.287  0.00  0.00    -0.322 N 
ATOM     18  O   306 d   1      16.931   0.671   8.169  0.00  0.00    -0.267 OA
ATOM     19  C19 306 d   1      14.378  -0.709  10.109  0.00  0.00     0.045 A 
ATOM     20  H14 306 d   1      14.639   0.941   8.914  0.00  0.00     0.169 HD
ATOM     21  C16 306 d   1      13.044  -0.315  10.399  0.00  0.00    -0.056 A 
ATOM     22  C18 306 d   1      15.032  -1.876  10.676  0.00  0.00    -0.007 A 
ATOM     23  C15 306 d   1      12.346  -1.141  11.320  0.00  0.00    -0.070 A 
ATOM     24  H12 306 d   1      12.589   0.559   9.947  0.00  0.00     0.087 H 
ATOM     25  C14 306 d   1      12.927  -2.354  11.892  0.00  0.00    -0.022 A 
ATOM     26  H11 306 d   1      11.340  -0.860  11.611  0.00  0.00     0.084 H 
ATOM     27  C17 306 d   1      14.298  -2.725  11.570  0.00  0.00    -0.060 A 
ATOM     28  H13 306 d   1      14.750  -3.615  11.993  0.00  0.00     0.086 H 
ATOM     29  C23 306 d   1      16.378  -2.141  10.437  0.00  0.00    -0.053 A 
ATOM     30  H15 306 d   1      16.860  -3.001  10.901  0.00  0.00     0.086 H 
BRANCH  25  31
ATOM     31  C1  306 d   1      12.070  -3.215  12.791  0.00  0.00     0.010 C 
ATOM     32  C   306 d   1      12.416  -4.435  13.423  0.00  0.00     0.034 C 
ATOM     33  N3  306 d   1      11.324  -5.003  13.982  0.00  0.00    -0.187 NA
ATOM     34  H1  306 d   1      13.420  -4.856  13.454  0.00  0.00     0.118 H 
ATOM     35  N   306 d   1      10.304  -4.105  13.920  0.00  0.00    -0.289 N 
ATOM     36  C2  306 d   1      10.699  -3.086  13.105  0.00  0.00     0.008 C 
ATOM     37  H3  306 d   1       9.397  -4.181  14.402  0.00  0.00     0.188 HD
ATOM     38  H2  306 d   1      10.051  -2.287  12.748  0.00  0.00     0.115 H 
ENDBRANCH  25  31
ENDBRANCH   1  15
BRANCH   8  39
ATOM     39  C13 306 d   1      24.303  -3.397   8.460  0.00  0.00     0.107 C 
ATOM     40  H9  306 d   1      24.224  -4.150   9.258  0.00  0.00     0.083 H 
ATOM     41  H10 306 d   1      25.181  -2.760   8.642  0.00  0.00     0.083 H 
BRANCH  39  42
ATOM     42  N24 306 d   1      24.493  -4.103   7.164  0.00  0.00    -0.067 N 
ATOM     43  C25 306 d   1      25.453  -5.223   7.265  0.00  0.00     0.084 C 
ATOM     44  C26 306 d   1      25.625  -5.900   5.894  0.00  0.00    -0.042 C 
ATOM     45  H17 306 d   1      25.077  -5.960   7.990  0.00  0.00     0.076 H 
ATOM     46  H18 306 d   1      26.426  -4.838   7.605  0.00  0.00     0.076 H 
ATOM     47  C27 306 d   1      24.287  -6.430   5.379  0.00  0.00    -0.062 C 
ATOM     48  H19 306 d   1      26.331  -6.738   5.991  0.00  0.00     0.035 H 
ATOM     49  H20 306 d   1      26.023  -5.167   5.177  0.00  0.00     0.035 H 
ATOM     50  C28 306 d   1      23.344  -5.242   5.269  0.00  0.00    -0.042 C 
ATOM     51  H21 306 d   1      23.879  -7.171   6.083  0.00  0.00     0.033 H 
ATOM     52  H22 306 d   1      24.421  -6.897   4.392  0.00  0.00     0.033 H 
ATOM     53  C29 306 d   1      23.200  -4.596   6.645  0.00  0.00     0.084 C 
ATOM     54  H23 306 d   1      22.360  -5.583   4.917  0.00  0.00     0.035 H 
ATOM     55  H24 306 d   1      23.754  -4.510   4.558  0.00  0.00     0.035 H 
ATOM     56  H25 306 d   1      22.502  -3.749   6.568  0.00  0.00     0.076 H 
ATOM     57  H26 306 d   1      22.797  -5.341   7.346  0.00  0.00     0.076 H 
ATOM     58  H16 306 d   1      24.864  -3.437   6.504  0.00  0.00     0.280 HD
ENDBRANCH  39  42
ENDBRANCH   8  39
TORSDOF 4
