REMARK  9 active torsions:
REMARK  status: ('A' for Active; 'I' for Inactive)
REMARK    1  A    between atoms: C5_3  and  C7_7 
REMARK    2  A    between atoms: C9_11  and  N13_13 
REMARK    3  A    between atoms: N13_13  and  C14_14 
REMARK    4  A    between atoms: C19_15  and  C20_37 
REMARK    5  A    between atoms: C16_18  and  N21_20 
REMARK       I    between atoms: N21_20  and  C22_21 
REMARK    6  A    between atoms: C22_21  and  C23_22 
REMARK    7  A    between atoms: C27_25  and  C46_28 
REMARK    8  A    between atoms: C46_28  and  N48_29 
REMARK    9  A    between atoms: N51_32  and  C54_33 
ROOT
ATOM      1  N21 STI d   1      12.659  14.735  18.814  0.00  0.00    -0.323 N 
ATOM      2  C22 STI d   1      12.589  15.682  17.851  0.00  0.00     0.256 C 
ATOM      3  O29 STI d   1      13.399  15.803  16.931  0.00  0.00    -0.267 OA
ATOM      4  H11 STI d   1      12.071  14.807  19.619  0.00  0.00     0.169 HD
ENDROOT
BRANCH   1   5
ATOM      5  C16 STI d   1      13.560  13.633  18.698  0.00  0.00     0.037 A 
ATOM      6  C17 STI d   1      13.451  12.699  19.699  0.00  0.00    -0.057 A 
ATOM      7  C18 STI d   1      14.285  11.539  19.714  0.00  0.00    -0.073 A 
ATOM      8  H9  STI d   1      12.722  12.844  20.488  0.00  0.00     0.086 H 
ATOM      9  C19 STI d   1      15.234  11.305  18.732  0.00  0.00    -0.035 A 
ATOM     10  H8  STI d   1      14.172  10.820  20.518  0.00  0.00     0.084 H 
ATOM     11  C14 STI d   1      15.346  12.271  17.710  0.00  0.00     0.057 A 
ATOM     12  C15 STI d   1      14.506  13.401  17.688  0.00  0.00    -0.030 A 
ATOM     13  H10 STI d   1      14.592  14.108  16.871  0.00  0.00     0.090 H 
BRANCH   9  14
ATOM     14  C20 STI d   1      16.075  10.053  18.815  0.00  0.00    -0.049 C 
ATOM     15  H31 STI d   1      16.772  10.023  17.965  0.00  0.00     0.033 H 
ATOM     16  H32 STI d   1      15.421   9.169  18.785  0.00  0.00     0.033 H 
ATOM     17  H33 STI d   1      16.645  10.056  19.756  0.00  0.00     0.033 H 
ENDBRANCH   9  14
BRANCH  11  18
ATOM     18  N13 STI d   1      16.254  12.125  16.695  0.00  0.00    -0.188 N 
ATOM     19  H7  STI d   1      15.951  11.831  15.755  0.00  0.00     0.184 HD
BRANCH  18  20
ATOM     20  C9  STI d   1      17.593  12.383  16.962  0.00  0.00     0.727 A 
ATOM     21  N10 STI d   1      18.047  12.944  18.070  0.00  0.00    -0.075 NA
ATOM     22  C11 STI d   1      19.347  13.177  18.235  0.00  0.00     0.023 A 
ATOM     23  C12 STI d   1      20.266  12.828  17.228  0.00  0.00    -0.036 A 
ATOM     24  H6  STI d   1      19.700  13.638  19.150  0.00  0.00     0.115 H 
ATOM     25  C7  STI d   1      19.778  12.261  16.119  0.00  0.00     0.089 A 
ATOM     26  H5  STI d   1      21.328  13.011  17.346  0.00  0.00     0.089 H 
ATOM     27  N8  STI d   1      18.433  12.021  15.977  0.00  0.00    -0.062 NA
BRANCH  25  28
ATOM     28  C5  STI d   1      20.668  11.809  14.959  0.00  0.00     0.011 A 
ATOM     29  C6  STI d   1      22.036  12.177  14.839  0.00  0.00    -0.068 A 
ATOM     30  C1  STI d   1      22.827  11.725  13.780  0.00  0.00    -0.065 A 
ATOM     31  H2  STI d   1      22.476  12.825  15.588  0.00  0.00     0.085 H 
ATOM     32  C2  STI d   1      22.176  10.931  12.842  0.00  0.00     0.002 A 
ATOM     33  H1  STI d   1      23.878  11.976  13.695  0.00  0.00     0.085 H 
ATOM     34  N3  STI d   1      20.892  10.570  12.904  0.00  0.00    -0.272 NA
ATOM     35  H4  STI d   1      22.755  10.578  11.996  0.00  0.00     0.114 H 
ATOM     36  C4  STI d   1      20.140  11.001  13.947  0.00  0.00     0.014 A 
ATOM     37  H3  STI d   1      19.097  10.710  13.998  0.00  0.00     0.116 H 
ENDBRANCH  25  28
ENDBRANCH  18  20
ENDBRANCH  11  18
ENDBRANCH   1   5
BRANCH   2  38
ATOM     38  C23 STI d   1      11.455  16.642  17.900  0.00  0.00     0.032 A 
ATOM     39  C25 STI d   1      11.079  17.330  16.713  0.00  0.00    -0.067 A 
ATOM     40  C26 STI d   1      10.006  18.285  16.678  0.00  0.00    -0.074 A 
ATOM     41  H12 STI d   1      11.624  17.126  15.798  0.00  0.00     0.085 H 
ATOM     42  C27 STI d   1       9.298  18.536  17.869  0.00  0.00    -0.033 A 
ATOM     43  H13 STI d   1       9.748  18.799  15.759  0.00  0.00     0.084 H 
ATOM     44  C28 STI d   1       9.662  17.854  19.065  0.00  0.00    -0.074 A 
ATOM     45  C29 STI d   1      10.736  16.908  19.112  0.00  0.00    -0.067 A 
ATOM     46  H14 STI d   1       9.106  18.058  19.973  0.00  0.00     0.084 H 
ATOM     47  H15 STI d   1      10.998  16.407  20.037  0.00  0.00     0.085 H 
BRANCH  42  48
ATOM     48  C46 STI d   1       8.196  19.529  17.832  0.00  0.00     0.107 C 
ATOM     49  H16 STI d   1       7.238  18.990  17.796  0.00  0.00     0.083 H 
ATOM     50  H17 STI d   1       8.306  20.143  16.926  0.00  0.00     0.083 H 
BRANCH  48  51
ATOM     51  N48 STI d   1       8.191  20.406  18.988  0.00  0.00    -0.064 N 
ATOM     52  C53 STI d   1       9.455  21.152  19.106  0.00  0.00     0.106 C 
ATOM     53  C52 STI d   1       9.448  22.049  20.402  0.00  0.00     0.105 C 
ATOM     54  H19 STI d   1       9.580  21.794  18.222  0.00  0.00     0.078 H 
ATOM     55  H20 STI d   1      10.291  20.440  19.163  0.00  0.00     0.078 H 
ATOM     56  N51 STI d   1       8.150  22.812  20.447  0.00  0.00    -0.072 N 
ATOM     57  H21 STI d   1      10.292  22.754  20.370  0.00  0.00     0.078 H 
ATOM     58  H22 STI d   1       9.535  21.412  21.295  0.00  0.00     0.078 H 
ATOM     59  C50 STI d   1       6.928  22.029  20.380  0.00  0.00     0.105 C 
ATOM     60  H23 STI d   1       8.138  23.427  19.648  0.00  0.00     0.279 HD
ATOM     61  C49 STI d   1       6.952  21.230  19.053  0.00  0.00     0.106 C 
ATOM     62  H27 STI d   1       6.054  22.697  20.399  0.00  0.00     0.078 H 
ATOM     63  H28 STI d   1       6.880  21.337  21.233  0.00  0.00     0.078 H 
ATOM     64  H29 STI d   1       6.072  20.572  19.006  0.00  0.00     0.078 H 
ATOM     65  H30 STI d   1       6.933  21.929  18.204  0.00  0.00     0.078 H 
ATOM     66  H18 STI d   1       8.156  19.805  19.797  0.00  0.00     0.280 HD
BRANCH  56  67
ATOM     67  C54 STI d   1       8.183  23.619  21.640  0.00  0.00     0.066 C 
ATOM     68  H24 STI d   1       7.251  24.198  21.717  0.00  0.00     0.068 H 
ATOM     69  H25 STI d   1       9.039  24.308  21.593  0.00  0.00     0.068 H 
ATOM     70  H26 STI d   1       8.284  22.968  22.521  0.00  0.00     0.068 H 
ENDBRANCH  56  67
ENDBRANCH  48  51
ENDBRANCH  42  48
ENDBRANCH   2  38
TORSDOF 9
