REMARK  9 active torsions:
REMARK  status: ('A' for Active; 'I' for Inactive)
REMARK    1  A    between atoms: C01_13  and  C12_1 
REMARK       I    between atoms: C12_1  and  N13_20 
REMARK    2  A    between atoms: N13_20  and  C16_2 
REMARK    3  A    between atoms: C19_3  and  C24_6 
REMARK    4  A    between atoms: C24_6  and  C30_7 
REMARK    5  A    between atoms: C30_7  and  C31_8 
REMARK    6  A    between atoms: C32_9  and  C33_10 
REMARK    7  A    between atoms: N11_19  and  C32_9 
REMARK    8  A    between atoms: C06_18  and  N11_19 
REMARK    9  A    between atoms: C18_23  and  C23_24 
ROOT
ATOM      1  C12 GIN d   1      17.242  46.032  56.825  0.00  0.00     0.258 C 
ATOM      2  N13 GIN d   1      16.350  46.594  57.657  0.00  0.00    -0.323 N 
ATOM      3  O14 GIN d   1      17.680  46.571  55.784  0.00  0.00    -0.267 OA
ATOM      4  H20 GIN d   1      16.102  46.091  58.485  0.00  0.00     0.169 HD
ENDROOT
BRANCH   1   5
ATOM      5  C01 GIN d   1      17.695  44.669  57.248  0.00  0.00     0.058 A 
ATOM      6  C02 GIN d   1      16.912  43.922  58.150  0.00  0.00    -0.066 A 
ATOM      7  C03 GIN d   1      17.314  42.643  58.580  0.00  0.00    -0.082 A 
ATOM      8  H15 GIN d   1      15.983  44.340  58.520  0.00  0.00     0.085 H 
ATOM      9  C04 GIN d   1      18.509  42.073  58.098  0.00  0.00    -0.081 A 
ATOM     10  H16 GIN d   1      16.701  42.094  59.285  0.00  0.00     0.083 H 
ATOM     11  C05 GIN d   1      19.299  42.813  57.160  0.00  0.00    -0.057 A 
ATOM     12  H17 GIN d   1      18.825  41.091  58.431  0.00  0.00     0.083 H 
ATOM     13  C06 GIN d   1      18.895  44.091  56.741  0.00  0.00     0.044 A 
ATOM     14  H18 GIN d   1      20.215  42.384  56.771  0.00  0.00     0.086 H 
BRANCH  13  15
ATOM     15  N11 GIN d   1      19.670  44.825  55.806  0.00  0.00    -0.385 N 
ATOM     16  H19 GIN d   1      19.172  45.430  55.137  0.00  0.00     0.160 HD
BRANCH  15  17
ATOM     17  C32 GIN d   1      21.133  44.778  55.730  0.00  0.00     0.018 C 
ATOM     18  H10 GIN d   1      21.525  45.765  55.443  0.00  0.00     0.071 H 
ATOM     19  H11 GIN d   1      21.549  44.488  56.706  0.00  0.00     0.071 H 
BRANCH  17  20
ATOM     20  C33 GIN d   1      21.520  43.722  54.654  0.00  0.00    -0.026 A 
ATOM     21  C34 GIN d   1      22.903  43.514  54.343  0.00  0.00    -0.085 A 
ATOM     22  C35 GIN d   1      23.297  42.608  53.413  0.00  0.00     0.027 A 
ATOM     23  H12 GIN d   1      23.658  44.099  54.867  0.00  0.00     0.078 H 
ATOM     24  C36 GIN d   1      22.346  41.803  52.668  0.00  0.00     0.246 A 
ATOM     25  H13 GIN d   1      23.957  41.899  53.935  0.00  0.00     0.053 H 
ATOM     26  H14 GIN d   1      23.878  43.168  52.665  0.00  0.00     0.053 H 
ATOM     27  N37 GIN d   1      21.010  42.049  53.014  0.00  0.00    -0.226 NA
ATOM     28  O41 GIN d   1      22.673  40.964  51.860  0.00  0.00    -0.271 OA
ATOM     29  C38 GIN d   1      20.599  42.981  53.971  0.00  0.00     0.013 A 
ATOM     30  H22 GIN d   1      19.538  43.117  54.173  0.00  0.00     0.115 H 
ENDBRANCH  17  20
ENDBRANCH  15  17
ENDBRANCH  13  15
ENDBRANCH   1   5
BRANCH   2  31
ATOM     31  C16 GIN d   1      15.747  47.832  57.443  0.00  0.00     0.035 A 
ATOM     32  C21 GIN d   1      15.509  48.722  58.536  0.00  0.00    -0.057 A 
ATOM     33  C20 GIN d   1      14.859  49.964  58.307  0.00  0.00    -0.074 A 
ATOM     34  H2  GIN d   1      15.824  48.450  59.537  0.00  0.00     0.086 H 
ATOM     35  C19 GIN d   1      14.409  50.360  56.983  0.00  0.00    -0.043 A 
ATOM     36  H1  GIN d   1      14.694  50.635  59.142  0.00  0.00     0.084 H 
ATOM     37  C18 GIN d   1      14.663  49.488  55.900  0.00  0.00     0.056 A 
ATOM     38  C17 GIN d   1      15.311  48.224  56.163  0.00  0.00    -0.042 A 
ATOM     39  H21 GIN d   1      15.469  47.544  55.334  0.00  0.00     0.088 H 
BRANCH  35  40
ATOM     40  C24 GIN d   1      13.703  51.703  56.842  0.00  0.00    -0.041 C 
ATOM     41  H3  GIN d   1      13.835  52.065  55.812  0.00  0.00     0.040 H 
ATOM     42  H4  GIN d   1      14.159  52.417  57.543  0.00  0.00     0.040 H 
BRANCH  40  43
ATOM     43  C30 GIN d   1      12.160  51.606  57.150  0.00  0.00    -0.065 C 
ATOM     44  H5  GIN d   1      12.012  51.213  58.167  0.00  0.00     0.032 H 
ATOM     45  H6  GIN d   1      11.682  50.932  56.424  0.00  0.00     0.032 H 
BRANCH  43  46
ATOM     46  C31 GIN d   1      11.528  53.013  57.043  0.00  0.00    -0.076 C 
ATOM     47  H7  GIN d   1      10.451  52.948  57.258  0.00  0.00     0.027 H 
ATOM     48  H8  GIN d   1      11.677  53.405  56.026  0.00  0.00     0.027 H 
ATOM     49  H9  GIN d   1      12.007  53.686  57.769  0.00  0.00     0.027 H 
ENDBRANCH  43  46
ENDBRANCH  40  43
ENDBRANCH  35  40
BRANCH  37  50
ATOM     50  C23 GIN d   1      14.236  49.809  54.450  0.00  0.00     0.418 C 
ATOM     51  F27 GIN d   1      14.514  48.811  53.593  0.00  0.00    -0.166 F 
ATOM     52  F28 GIN d   1      12.966  50.055  54.275  0.00  0.00    -0.166 F 
ATOM     53  F29 GIN d   1      14.862  50.867  53.981  0.00  0.00    -0.166 F 
ENDBRANCH  37  50
ENDBRANCH   2  31
TORSDOF 9
