REMARK  7 active torsions:
REMARK  status: ('A' for Active; 'I' for Inactive)
REMARK    1  A    between atoms: CAB_1  and  OAQ_2 
REMARK    2  A    between atoms: OAQ_2  and  CBF_3 
REMARK    3  A    between atoms: CBD_4  and  NAO_5 
REMARK    4  A    between atoms: NAO_5  and  CAA_6 
REMARK    5  A    between atoms: CBE_8  and  NBG_22 
REMARK    6  A    between atoms: CBI_10  and  CAC_11 
REMARK    7  A    between atoms: CBI_10  and  NBH_12 
ROOT
ATOM      1  CBF 4ST d   1      25.082   4.032  27.776  0.00  0.00     0.113 C 
ATOM      2  CBD 4ST d   1      25.090   4.773  29.114  0.00  0.00     0.134 C 
ATOM      3  CAN 4ST d   1      26.385   5.605  29.134  0.00  0.00     0.005 C 
ATOM      4  CBE 4ST d   1      27.535   4.687  28.654  0.00  0.00     0.115 C 
ATOM      5  OAR 4ST d   1      27.265   3.274  28.459  0.00  0.00    -0.333 OA
ATOM      6  CBI 4ST d   1      26.159   2.889  27.624  0.00  0.00     0.168 C 
ATOM      7  H4  4ST d   1      24.113   3.515  27.705  0.00  0.00     0.094 H 
ATOM      8  H5  4ST d   1      25.139   4.042  29.935  0.00  0.00     0.088 H 
ATOM      9  H11 4ST d   1      26.588   5.959  30.155  0.00  0.00     0.042 H 
ATOM     10  H12 4ST d   1      26.287   6.468  28.459  0.00  0.00     0.042 H 
ATOM     11  H13 4ST d   1      28.216   4.715  29.517  0.00  0.00     0.118 H 
ENDROOT
BRANCH   2  12
ATOM     12  NAO 4ST d   1      23.828   5.541  29.276  0.00  0.00    -0.072 N 
ATOM     13  H6  4ST d   1      23.122   5.014  28.787  0.00  0.00     0.277 HD
ATOM     14  H7  4ST d   1      23.979   6.419  28.804  0.00  0.00     0.277 HD
BRANCH  12  15
ATOM     15  CAA 4ST d   1      23.236   5.886  30.583  0.00  0.00     0.065 C 
ATOM     16  H8  4ST d   1      22.307   6.455  30.426  0.00  0.00     0.067 H 
ATOM     17  H9  4ST d   1      23.947   6.497  31.158  0.00  0.00     0.067 H 
ATOM     18  H10 4ST d   1      23.012   4.964  31.139  0.00  0.00     0.067 H 
ENDBRANCH  12  15
ENDBRANCH   2  12
BRANCH   1  19
ATOM     19  OAQ 4ST d   1      25.080   5.052  26.758  0.00  0.00    -0.384 OA
BRANCH  19  20
ATOM     20  CAB 4ST d   1      24.560   4.758  25.465  0.00  0.00     0.005 C 
ATOM     21  H1  4ST d   1      24.641   5.650  24.826  0.00  0.00     0.066 H 
ATOM     22  H2  4ST d   1      23.504   4.464  25.553  0.00  0.00     0.066 H 
ATOM     23  H3  4ST d   1      25.134   3.933  25.018  0.00  0.00     0.066 H 
ENDBRANCH  19  20
ENDBRANCH   1  19
BRANCH   6  24
ATOM     24  CAC 4ST d   1      25.767   1.588  28.354  0.00  0.00    -0.028 C 
ATOM     25  H14 4ST d   1      26.556   0.835  28.210  0.00  0.00     0.034 H 
ATOM     26  H15 4ST d   1      24.819   1.209  27.945  0.00  0.00     0.034 H 
ATOM     27  H16 4ST d   1      25.647   1.792  29.428  0.00  0.00     0.034 H 
ENDBRANCH   6  24
BRANCH   6  28
ATOM     28  NBH 4ST d   1      26.659   2.665  26.247  0.00  0.00    -0.308 N 
ATOM     29  CAY 4ST d   1      26.251   1.760  25.235  0.00  0.00     0.049 A 
ATOM     30  CAH 4ST d   1      25.255   0.728  25.186  0.00  0.00    -0.056 A 
ATOM     31  CAX 4ST d   1      27.011   1.935  24.122  0.00  0.00     0.004 A 
ATOM     32  CAF 4ST d   1      25.063  -0.078  24.014  0.00  0.00    -0.081 A 
ATOM     33  H17 4ST d   1      24.632   0.553  26.056  0.00  0.00     0.087 H 
ATOM     34  CAE 4ST d   1      25.863   0.151  22.866  0.00  0.00    -0.082 A 
ATOM     35  H18 4ST d   1      24.310  -0.858  24.007  0.00  0.00     0.083 H 
ATOM     36  CAG 4ST d   1      26.855   1.173  22.927  0.00  0.00    -0.070 A 
ATOM     37  H19 4ST d   1      25.724  -0.436  21.965  0.00  0.00     0.083 H 
ATOM     38  H20 4ST d   1      27.488   1.370  22.069  0.00  0.00     0.084 H 
ATOM     39  CBA 4ST d   1      27.927   3.002  24.392  0.00  0.00     0.015 A 
ATOM     40  CBC 4ST d   1      27.699   3.458  25.741  0.00  0.00     0.077 A 
ATOM     41  CAU 4ST d   1      28.946   3.650  23.658  0.00  0.00    -0.010 A 
ATOM     42  CBB 4ST d   1      28.431   4.475  26.290  0.00  0.00     0.077 A 
ATOM     43  NBG 4ST d   1      28.370   5.096  27.533  0.00  0.00    -0.320 N 
ATOM     44  CAZ 4ST d   1      29.473   5.161  25.562  0.00  0.00     0.018 A 
ATOM     45  CAV 4ST d   1      29.326   6.082  27.612  0.00  0.00     0.022 A 
ATOM     46  CAL 4ST d   1      29.605   6.968  28.813  0.00  0.00    -0.026 C 
ATOM     47  CAT 4ST d   1      30.017   6.167  26.456  0.00  0.00    -0.022 A 
ATOM     48  CAJ 4ST d   1      30.214   8.311  28.377  0.00  0.00    -0.060 C 
ATOM     49  H21 4ST d   1      30.310   6.454  29.483  0.00  0.00     0.042 H 
ATOM     50  H22 4ST d   1      28.662   7.157  29.347  0.00  0.00     0.042 H 
ATOM     51  CAI 4ST d   1      31.413   8.124  27.424  0.00  0.00    -0.061 C 
ATOM     52  H23 4ST d   1      30.554   8.853  29.272  0.00  0.00     0.033 H 
ATOM     53  H24 4ST d   1      29.441   8.900  27.862  0.00  0.00     0.033 H 
ATOM     54  CAK 4ST d   1      31.121   7.174  26.228  0.00  0.00    -0.038 C 
ATOM     55  H25 4ST d   1      32.253   7.708  28.000  0.00  0.00     0.033 H 
ATOM     56  H26 4ST d   1      31.695   9.109  27.024  0.00  0.00     0.033 H 
ATOM     57  H27 4ST d   1      32.044   6.620  26.001  0.00  0.00     0.040 H 
ATOM     58  H28 4ST d   1      30.842   7.793  25.363  0.00  0.00     0.040 H 
ATOM     59  CAW 4ST d   1      29.680   4.697  24.228  0.00  0.00     0.054 A 
ATOM     60  CAS 4ST d   1      30.619   5.142  23.223  0.00  0.00     0.253 A 
ATOM     61  NAP 4ST d   1      30.418   4.380  22.131  0.00  0.00    -0.353 N 
ATOM     62  OAD 4ST d   1      31.430   6.054  23.367  0.00  0.00    -0.268 OA
ATOM     63  CAM 4ST d   1      29.363   3.368  22.235  0.00  0.00     0.021 A 
ATOM     64  H31 4ST d   1      30.957   4.498  21.297  0.00  0.00     0.163 HD
ATOM     65  H29 4ST d   1      28.546   3.542  21.519  0.00  0.00     0.071 H 
ATOM     66  H30 4ST d   1      29.751   2.346  22.108  0.00  0.00     0.071 H 
ENDBRANCH   6  28
TORSDOF 7
