REMARK  5 active torsions:
REMARK  status: ('A' for Active; 'I' for Inactive)
REMARK    1  A    between atoms: N11_22  and  C13_3 
REMARK    2  A    between atoms: C09_24  and  C19_6 
REMARK    3  A    between atoms: N08_16  and  C27_8 
REMARK    4  A    between atoms: C29_13  and  C34_11 
REMARK    5  A    between atoms: C04_17  and  N08_16 
ROOT
ATOM      1  C10 JIN d   1      18.718  14.507   3.584  0.00  0.00    -0.052 A 
ATOM      2  C12 JIN d   1      17.605  16.133   4.930  0.00  0.00     0.260 A 
ATOM      3  C04 JIN d   1      15.136  12.713   3.087  0.00  0.00     0.728 A 
ATOM      4  N03 JIN d   1      16.163  12.126   2.521  0.00  0.00    -0.074 NA
ATOM      5  C02 JIN d   1      17.384  12.685   2.640  0.00  0.00     0.035 A 
ATOM      6  N05 JIN d   1      15.183  13.830   3.831  0.00  0.00    -0.044 NA
ATOM      7  C06 JIN d   1      16.392  14.407   3.986  0.00  0.00     0.163 A 
ATOM      8  N11 JIN d   1      16.441  15.494   4.744  0.00  0.00    -0.301 N 
ATOM      9  O14 JIN d   1      17.586  17.153   5.621  0.00  0.00    -0.267 OA
ATOM     10  C09 JIN d   1      18.791  15.681   4.335  0.00  0.00     0.047 A 
ATOM     11  C01 JIN d   1      17.506  13.853   3.414  0.00  0.00     0.030 A 
ATOM     12  H1  JIN d   1      19.619  14.101   3.128  0.00  0.00     0.086 H 
ATOM     13  H14 JIN d   1      18.247  12.247   2.153  0.00  0.00     0.117 H 
ENDROOT
BRANCH   3  14
ATOM     14  N08 JIN d   1      13.988  12.055   2.867  0.00  0.00    -0.188 N 
ATOM     15  H13 JIN d   1      14.070  11.126   2.429  0.00  0.00     0.184 HD
BRANCH  14  16
ATOM     16  C27 JIN d   1      12.721  12.478   3.158  0.00  0.00     0.050 A 
ATOM     17  C28 JIN d   1      11.693  11.786   2.486  0.00  0.00    -0.048 A 
ATOM     18  C29 JIN d   1      10.339  12.155   2.688  0.00  0.00    -0.021 A 
ATOM     19  H11 JIN d   1      11.938  10.971   1.814  0.00  0.00     0.087 H 
ATOM     20  C30 JIN d   1       9.942  13.081   3.623  0.00  0.00     0.122 A 
ATOM     21  C31 JIN d   1      10.927  13.709   4.343  0.00  0.00    -0.043 A 
ATOM     22  F35 JIN d   1       8.671  13.363   3.887  0.00  0.00    -0.206 F 
ATOM     23  C26 JIN d   1      12.282  13.403   4.121  0.00  0.00    -0.054 A 
ATOM     24  H7  JIN d   1      10.659  14.448   5.090  0.00  0.00     0.088 H 
ATOM     25  H12 JIN d   1      13.027  13.908   4.725  0.00  0.00     0.087 H 
BRANCH  18  26
ATOM     26  C34 JIN d   1       9.222  11.461   1.955  0.00  0.00    -0.048 C 
ATOM     27  H8  JIN d   1       9.645  10.745   1.235  0.00  0.00     0.033 H 
ATOM     28  H9  JIN d   1       8.617  12.206   1.418  0.00  0.00     0.033 H 
ATOM     29  H10 JIN d   1       8.588  10.924   2.676  0.00  0.00     0.033 H 
ENDBRANCH  18  26
ENDBRANCH  14  16
ENDBRANCH   3  14
BRANCH   8  30
ATOM     30  C13 JIN d   1      15.153  16.002   5.311  0.00  0.00    -0.009 C 
ATOM     31  H2  JIN d   1      15.347  16.902   5.913  0.00  0.00     0.057 H 
ATOM     32  H3  JIN d   1      14.701  15.226   5.946  0.00  0.00     0.057 H 
ATOM     33  H4  JIN d   1      14.464  16.252   4.490  0.00  0.00     0.057 H 
ENDBRANCH   8  30
BRANCH  10  34
ATOM     34  C19 JIN d   1      20.129  16.320   4.503  0.00  0.00     0.023 A 
ATOM     35  C20 JIN d   1      20.867  16.145   5.645  0.00  0.00     0.046 A 
ATOM     36  C15 JIN d   1      22.052  16.867   5.863  0.00  0.00    -0.061 A 
ATOM     37 CL5  JIN d   1      20.377  14.917   6.850  0.00  0.00    -0.083 Cl
ATOM     38  C16 JIN d   1      22.456  17.838   4.911  0.00  0.00    -0.080 A 
ATOM     39  H5  JIN d   1      22.651  16.684   6.748  0.00  0.00     0.086 H 
ATOM     40  C17 JIN d   1      21.711  18.023   3.711  0.00  0.00    -0.061 A 
ATOM     41  H6  JIN d   1      23.336  18.442   5.098  0.00  0.00     0.083 H 
ATOM     42  C18 JIN d   1      20.538  17.263   3.544  0.00  0.00     0.046 A 
ATOM     43  H15 JIN d   1      22.036  18.725   2.952  0.00  0.00     0.086 H 
ATOM     44 CL4  JIN d   1      19.697  17.581   2.047  0.00  0.00    -0.083 Cl
ENDBRANCH  10  34
TORSDOF 5
