REMARK  5 active torsions:
REMARK  status: ('A' for Active; 'I' for Inactive)
REMARK    1  A    between atoms: C21_3  and  N19_21 
REMARK    2  A    between atoms: O31_24  and  C32_7 
REMARK    3  A    between atoms: C05_14  and  C02_11 
REMARK    4  A    between atoms: N15_18  and  C08_16 
REMARK       I    between atoms: C17_19  and  N15_18 
REMARK       I    between atoms: N19_21  and  C17_19 
REMARK    5  A    between atoms: C26_22  and  O31_24 
ROOT
ATOM      1  C21 KIN d   1      48.074  23.685  43.300  0.00  0.00     0.036 A 
ATOM      2  C22 KIN d   1      49.295  23.619  42.598  0.00  0.00    -0.054 A 
ATOM      3  C24 KIN d   1      49.823  22.392  42.151  0.00  0.00    -0.048 A 
ATOM      4  C27 KIN d   1      47.923  21.253  43.113  0.00  0.00    -0.048 A 
ATOM      5  C26 KIN d   1      49.148  21.195  42.423  0.00  0.00     0.076 A 
ATOM      6  C29 KIN d   1      47.394  22.485  43.554  0.00  0.00    -0.054 A 
ATOM      7  H3  KIN d   1      49.840  24.534  42.398  0.00  0.00     0.087 H 
ATOM      8  H4  KIN d   1      50.754  22.374  41.595  0.00  0.00     0.087 H 
ATOM      9  H5  KIN d   1      47.377  20.337  43.309  0.00  0.00     0.087 H 
ATOM     10  H12 KIN d   1      46.454  22.504  44.094  0.00  0.00     0.087 H 
ENDROOT
BRANCH   1  11
ATOM     11  N19 KIN d   1      47.543  24.900  43.787  0.00  0.00    -0.309 N 
ATOM     12  C17 KIN d   1      47.731  26.046  43.103  0.00  0.00     0.325 C 
ATOM     13  N15 KIN d   1      47.207  27.122  43.738  0.00  0.00    -0.309 N 
ATOM     14  O18 KIN d   1      48.339  26.107  41.995  0.00  0.00    -0.247 OA
ATOM     15  H10 KIN d   1      46.691  26.991  44.585  0.00  0.00     0.170 HD
ATOM     16  H11 KIN d   1      47.026  24.910  44.643  0.00  0.00     0.170 HD
BRANCH  13  17
ATOM     17  C08 KIN d   1      47.380  28.435  43.218  0.00  0.00     0.037 A 
ATOM     18  C06 KIN d   1      47.565  28.697  41.848  0.00  0.00    -0.043 A 
ATOM     19  C05 KIN d   1      47.736  30.013  41.368  0.00  0.00     0.050 A 
ATOM     20  H8  KIN d   1      47.576  27.871  41.147  0.00  0.00     0.088 H 
ATOM     21  C13 KIN d   1      47.718  31.087  42.271  0.00  0.00    -0.068 A 
ATOM     22  C11 KIN d   1      47.541  30.844  43.637  0.00  0.00    -0.080 A 
ATOM     23  H2  KIN d   1      47.841  32.102  41.911  0.00  0.00     0.084 H 
ATOM     24  C09 KIN d   1      47.391  29.528  44.107  0.00  0.00    -0.057 A 
ATOM     25  H1  KIN d   1      47.520  31.673  44.335  0.00  0.00     0.083 H 
ATOM     26  H9  KIN d   1      47.282  29.351  45.171  0.00  0.00     0.086 H 
BRANCH  19  27
ATOM     27  C02 KIN d   1      47.965  30.239  39.894  0.00  0.00     0.417 C 
ATOM     28  F01 KIN d   1      47.904  31.570  39.528  0.00  0.00    -0.166 F 
ATOM     29  F03 KIN d   1      49.224  29.768  39.602  0.00  0.00    -0.166 F 
ATOM     30  F04 KIN d   1      47.053  29.538  39.139  0.00  0.00    -0.166 F 
ENDBRANCH  19  27
ENDBRANCH  13  17
ENDBRANCH   1  11
BRANCH   5  31
ATOM     31  O31 KIN d   1      49.628  19.991  42.013  0.00  0.00    -0.311 OA
BRANCH  31  32
ATOM     32  C32 KIN d   1      49.406  19.547  40.752  0.00  0.00     0.078 A 
ATOM     33  C33 KIN d   1      48.303  19.987  40.007  0.00  0.00    -0.033 A 
ATOM     34  C35 KIN d   1      48.136  19.521  38.713  0.00  0.00     0.004 A 
ATOM     35  H6  KIN d   1      47.591  20.682  40.437  0.00  0.00     0.090 H 
ATOM     36  N37 KIN d   1      48.979  18.665  38.129  0.00  0.00    -0.273 NA
ATOM     37  H7  KIN d   1      47.279  19.868  38.147  0.00  0.00     0.114 H 
ATOM     38  C38 KIN d   1      50.028  18.237  38.841  0.00  0.00     0.004 A 
ATOM     39  C40 KIN d   1      50.288  18.648  40.143  0.00  0.00    -0.033 A 
ATOM     40  H13 KIN d   1      50.710  17.533  38.378  0.00  0.00     0.114 H 
ATOM     41  H14 KIN d   1      51.157  18.279  40.676  0.00  0.00     0.090 H 
ENDBRANCH  31  32
ENDBRANCH   5  31
TORSDOF 5
