REMARK  8 active torsions:
REMARK  status: ('A' for Active; 'I' for Inactive)
REMARK    1  A    between atoms: N1_1  and  C2_2 
REMARK    2  A    between atoms: C17_17  and  N1_1 
REMARK    3  A    between atoms: C2_2  and  C26_26 
REMARK    4  A    between atoms: N5_5  and  C18_18 
REMARK    5  A    between atoms: C8_8  and  C24_24 
REMARK       I    between atoms: C15_15  and  N9_9 
REMARK    6  A    between atoms: C10_10  and  C13_13 
REMARK    7  A    between atoms: C15_15  and  C17_17 
REMARK    8  A    between atoms: C20_20  and  C27_27 
ROOT
ATOM      1  C24 AXD d   1      30.861   8.825  63.348  0.00  0.00    -0.092 C 
ATOM      2  C25 AXD d   1      31.761   9.335  62.736  0.00  0.00    -0.152 C 
ATOM      3  H24 AXD d   1      32.552   9.783  62.198  0.00  0.00     0.166 H 
ENDROOT
BRANCH   1   4
ATOM      4  C8  AXD d   1      29.717   8.134  64.000  0.00  0.00     0.074 C 
ATOM      5  N9  AXD d   1      29.449   6.800  63.388  0.00  0.00    -0.326 N 
ATOM      6  C10 AXD d   1      28.171   6.789  62.668  0.00  0.00     0.047 C 
ATOM      7  C15 AXD d   1      30.228   5.660  63.478  0.00  0.00     0.247 C 
ATOM      8  C11 AXD d   1      27.407   7.868  63.444  0.00  0.00    -0.039 C 
ATOM      9  H12 AXD d   1      27.685   5.805  62.745  0.00  0.00     0.081 H 
ATOM     10  C12 AXD d   1      28.464   8.947  63.638  0.00  0.00    -0.034 C 
ATOM     11  H13 AXD d   1      27.049   7.484  64.411  0.00  0.00     0.036 H 
ATOM     12  H14 AXD d   1      26.554   8.247  62.862  0.00  0.00     0.036 H 
ATOM     13  H15 AXD d   1      28.618   9.522  62.713  0.00  0.00     0.037 H 
ATOM     14  H16 AXD d   1      28.186   9.632  64.453  0.00  0.00     0.037 H 
ATOM     15  O16 AXD d   1      29.949   4.609  62.928  0.00  0.00    -0.271 OA
ATOM     16  H11 AXD d   1      29.873   8.055  65.086  0.00  0.00     0.093 H 
BRANCH   6  17
ATOM     17  C13 AXD d   1      28.272   7.194  61.165  0.00  0.00    -0.005 C 
ATOM     18  N14 AXD d   1      29.450   7.433  60.569  0.00  0.00    -0.314 NA
ATOM     19  H18 AXD d   1      29.479   7.693  59.596  0.00  0.00     0.185 HD
ATOM     20  H17 AXD d   1      27.357   7.286  60.581  0.00  0.00     0.110 H 
ENDBRANCH   6  17
BRANCH   7  21
ATOM     21  C17 AXD d   1      31.507   5.703  64.353  0.00  0.00     0.155 C 
ATOM     22  H19 AXD d   1      32.017   6.661  64.174  0.00  0.00     0.090 H 
ATOM     23  H20 AXD d   1      31.206   5.640  65.409  0.00  0.00     0.090 H 
BRANCH  21  24
ATOM     24  N1  AXD d   1      32.449   4.621  64.077  0.00  0.00    -0.058 N 
ATOM     25  H1  AXD d   1      32.900   4.401  64.951  0.00  0.00     0.278 HD
ATOM     26  H2  AXD d   1      31.901   3.832  63.773  0.00  0.00     0.278 HD
BRANCH  24  27
ATOM     27  C2  AXD d   1      33.532   4.800  63.072  0.00  0.00     0.125 C 
ATOM     28  C3  AXD d   1      34.347   3.498  63.016  0.00  0.00    -0.019 C 
ATOM     29  C4  AXD d   1      35.471   3.608  61.970  0.00  0.00    -0.001 C 
ATOM     30  H3  AXD d   1      33.681   2.666  62.745  0.00  0.00     0.039 H 
ATOM     31  H4  AXD d   1      34.790   3.306  64.004  0.00  0.00     0.039 H 
ATOM     32  N5  AXD d   1      34.924   4.011  60.613  0.00  0.00    -0.366 N 
ATOM     33  H5  AXD d   1      35.972   2.633  61.879  0.00  0.00     0.064 H 
ATOM     34  H6  AXD d   1      36.197   4.364  62.303  0.00  0.00     0.064 H 
ATOM     35  C6  AXD d   1      34.050   5.227  60.573  0.00  0.00    -0.001 C 
ATOM     36  C7  AXD d   1      32.960   5.084  61.634  0.00  0.00    -0.019 C 
ATOM     37  H7  AXD d   1      33.589   5.318  59.579  0.00  0.00     0.064 H 
ATOM     38  H8  AXD d   1      34.653   6.123  60.781  0.00  0.00     0.064 H 
ATOM     39  H9  AXD d   1      32.379   6.017  61.666  0.00  0.00     0.039 H 
ATOM     40  H10 AXD d   1      32.301   4.251  61.349  0.00  0.00     0.039 H 
BRANCH  32  41
ATOM     41  C18 AXD d   1      35.217   3.284  59.447  0.00  0.00     0.126 A 
ATOM     42  C19 AXD d   1      36.046   2.143  59.493  0.00  0.00    -0.022 A 
ATOM     43  C20 AXD d   1      36.332   1.421  58.323  0.00  0.00     0.045 A 
ATOM     44  H21 AXD d   1      36.465   1.821  60.439  0.00  0.00     0.091 H 
ATOM     45  C21 AXD d   1      35.780   1.853  57.077  0.00  0.00    -0.049 A 
ATOM     46  C22 AXD d   1      34.957   3.009  57.079  0.00  0.00     0.005 A 
ATOM     47  H22 AXD d   1      35.984   1.314  56.159  0.00  0.00     0.087 H 
ATOM     48  N23 AXD d   1      34.687   3.709  58.234  0.00  0.00    -0.243 NA
ATOM     49  H23 AXD d   1      34.528   3.351  56.144  0.00  0.00     0.114 H 
BRANCH  43  50
ATOM     50  C27 AXD d   1      37.210   0.241  58.429  0.00  0.00     0.209 C 
ATOM     51  O28 AXD d   1      37.677  -0.069  59.554  0.00  0.00    -0.644 OA
ATOM     52  O29 AXD d   1      37.472  -0.419  57.409  0.00  0.00    -0.644 OA
ENDBRANCH  43  50
ENDBRANCH  32  41
BRANCH  27  53
ATOM     53  C26 AXD d   1      34.465   5.974  63.535  0.00  0.00    -0.045 C 
ATOM     54  H25 AXD d   1      35.270   6.115  62.798  0.00  0.00     0.030 H 
ATOM     55  H26 AXD d   1      34.903   5.730  64.514  0.00  0.00     0.030 H 
ATOM     56  H27 AXD d   1      33.877   6.900  63.617  0.00  0.00     0.030 H 
ENDBRANCH  27  53
ENDBRANCH  24  27
ENDBRANCH  21  24
ENDBRANCH   7  21
ENDBRANCH   1   4
TORSDOF 8
