REMARK  19 active torsions:
REMARK  status: ('A' for Active; 'I' for Inactive)
REMARK    1  A    between atoms: S8_2  and  C5_4 
REMARK    2  A    between atoms: S8_2  and  N11_12 
REMARK    3  A    between atoms: C2_7  and  O19_8 
REMARK    4  A    between atoms: O19_8  and  C18_9 
REMARK    5  A    between atoms: N11_12  and  C12_13 
REMARK    6  A    between atoms: N11_12  and  C16_17 
REMARK    7  A    between atoms: C12_13  and  C13_14 
REMARK    8  A    between atoms: C13_14  and  C14_15 
REMARK    9  A    between atoms: C13_14  and  C15_16 
REMARK   10  A    between atoms: C16_17  and  C17_18 
REMARK   11  A    between atoms: C17_18  and  O18_19 
REMARK   12  A    between atoms: C17_18  and  C19_20 
REMARK   13  A    between atoms: C19_20  and  C32_21 
REMARK   14  A    between atoms: C19_20  and  N20_28 
REMARK   15  A    between atoms: C32_21  and  C38_22 
REMARK       I    between atoms: N20_28  and  C21_29 
REMARK   16  A    between atoms: C21_29  and  C29_31 
REMARK   17  A    between atoms: N24_36  and  C43_37 
REMARK   18  A    between atoms: C41_42  and  C46_43 
REMARK   19  A    between atoms: C46_43  and  C47_45 
ROOT
ATOM      1  C19 MUT d   1      19.395  29.167  14.120  0.00  0.00     0.042 C 
ATOM      2  H21 MUT d   1      19.314  30.135  13.603  0.00  0.00     0.077 H 
ENDROOT
BRANCH   1   3
ATOM      3  C17 MUT d   1      19.830  29.452  15.571  0.00  0.00     0.067 C 
ATOM      4  H19 MUT d   1      20.872  29.805  15.554  0.00  0.00     0.088 H 
BRANCH   3   5
ATOM      5  C16 MUT d   1      18.936  30.552  16.162  0.00  0.00     0.019 C 
ATOM      6  H17 MUT d   1      17.880  30.286  16.008  0.00  0.00     0.061 H 
ATOM      7  H18 MUT d   1      19.137  30.645  17.239  0.00  0.00     0.061 H 
BRANCH   5   8
ATOM      8  N11 MUT d   1      19.218  31.838  15.499  0.00  0.00    -0.204 NA
BRANCH   8   9
ATOM      9  S8  MUT d   1      17.942  32.507  14.763  0.00  0.00     0.243 S 
ATOM     10  O9  MUT d   1      18.471  33.379  13.733  0.00  0.00    -0.206 OA
ATOM     11  O10 MUT d   1      17.176  31.447  14.162  0.00  0.00    -0.206 OA
BRANCH   9  12
ATOM     12  C5  MUT d   1      17.035  33.396  15.781  0.00  0.00     0.074 A 
ATOM     13  C4  MUT d   1      17.294  34.762  15.963  0.00  0.00    -0.058 A 
ATOM     14  C3  MUT d   1      16.562  35.543  16.859  0.00  0.00    -0.049 A 
ATOM     15  H1  MUT d   1      18.088  35.226  15.390  0.00  0.00     0.086 H 
ATOM     16  C2  MUT d   1      15.567  34.944  17.651  0.00  0.00     0.068 A 
ATOM     17  H2  MUT d   1      16.760  36.605  16.944  0.00  0.00     0.087 H 
ATOM     18  C7  MUT d   1      15.320  33.579  17.507  0.00  0.00    -0.049 A 
ATOM     19  C6  MUT d   1      16.055  32.813  16.588  0.00  0.00    -0.058 A 
ATOM     20  H6  MUT d   1      14.554  33.105  18.110  0.00  0.00     0.087 H 
ATOM     21  H7  MUT d   1      15.858  31.750  16.503  0.00  0.00     0.086 H 
BRANCH  16  22
ATOM     22  O19 MUT d   1      14.856  35.651  18.586  0.00  0.00    -0.356 OA
BRANCH  22  23
ATOM     23  C18 MUT d   1      15.038  37.055  18.795  0.00  0.00     0.010 C 
ATOM     24  H3  MUT d   1      14.361  37.398  19.592  0.00  0.00     0.066 H 
ATOM     25  H4  MUT d   1      14.813  37.596  17.864  0.00  0.00     0.066 H 
ATOM     26  H5  MUT d   1      16.080  37.250  19.090  0.00  0.00     0.066 H 
ENDBRANCH  22  23
ENDBRANCH  16  22
ENDBRANCH   9  12
ENDBRANCH   8   9
BRANCH   8  27
ATOM     27  C12 MUT d   1      19.988  32.799  16.332  0.00  0.00    -0.004 C 
ATOM     28  H8  MUT d   1      19.613  32.766  17.366  0.00  0.00     0.058 H 
ATOM     29  H9  MUT d   1      19.860  33.814  15.928  0.00  0.00     0.058 H 
BRANCH  27  30
ATOM     30  C13 MUT d   1      21.474  32.433  16.321  0.00  0.00    -0.049 C 
ATOM     31  H10 MUT d   1      21.565  31.425  16.752  0.00  0.00     0.040 H 
BRANCH  30  32
ATOM     32  C14 MUT d   1      22.063  32.393  14.912  0.00  0.00    -0.072 C 
ATOM     33  H11 MUT d   1      23.129  32.126  14.967  0.00  0.00     0.028 H 
ATOM     34  H12 MUT d   1      21.957  33.382  14.442  0.00  0.00     0.028 H 
ATOM     35  H13 MUT d   1      21.528  31.642  14.312  0.00  0.00     0.028 H 
ENDBRANCH  30  32
BRANCH  30  36
ATOM     36  C15 MUT d   1      22.299  33.386  17.177  0.00  0.00    -0.072 C 
ATOM     37  H14 MUT d   1      21.881  33.420  18.194  0.00  0.00     0.028 H 
ATOM     38  H15 MUT d   1      22.272  34.393  16.735  0.00  0.00     0.028 H 
ATOM     39  H16 MUT d   1      23.340  33.033  17.220  0.00  0.00     0.028 H 
ENDBRANCH  30  36
ENDBRANCH  27  30
ENDBRANCH   8  27
ENDBRANCH   5   8
ENDBRANCH   3   5
BRANCH   3  40
ATOM     40  O18 MUT d   1      19.760  28.294  16.423  0.00  0.00    -0.392 OA
ATOM     41  H20 MUT d   1      20.063  28.524  17.294  0.00  0.00     0.210 HD
ENDBRANCH   3  40
ENDBRANCH   1   3
BRANCH   1  42
ATOM     42  C32 MUT d   1      18.056  28.415  14.007  0.00  0.00    -0.020 C 
ATOM     43  H22 MUT d   1      17.248  29.049  14.401  0.00  0.00     0.043 H 
ATOM     44  H23 MUT d   1      18.110  27.485  14.591  0.00  0.00     0.043 H 
BRANCH  42  45
ATOM     45  C38 MUT d   1      17.768  28.079  12.548  0.00  0.00    -0.056 A 
ATOM     46  C33 MUT d   1      17.954  26.785  12.051  0.00  0.00    -0.077 A 
ATOM     47  C34 MUT d   1      17.722  26.483  10.718  0.00  0.00    -0.082 A 
ATOM     48  H24 MUT d   1      18.287  26.002  12.722  0.00  0.00     0.084 H 
ATOM     49  C35 MUT d   1      17.276  27.474   9.847  0.00  0.00    -0.083 A 
ATOM     50  H25 MUT d   1      17.888  25.476  10.354  0.00  0.00     0.083 H 
ATOM     51  C36 MUT d   1      17.094  28.761  10.334  0.00  0.00    -0.082 A 
ATOM     52  H26 MUT d   1      17.075  27.244   8.807  0.00  0.00     0.083 H 
ATOM     53  C37 MUT d   1      17.335  29.066  11.675  0.00  0.00    -0.077 A 
ATOM     54  H27 MUT d   1      16.759  29.543   9.662  0.00  0.00     0.083 H 
ATOM     55  H28 MUT d   1      17.183  30.077  12.035  0.00  0.00     0.084 H 
ENDBRANCH  42  45
ENDBRANCH   1  42
BRANCH   1  56
ATOM     56  N20 MUT d   1      20.340  28.300  13.395  0.00  0.00    -0.351 N 
ATOM     57  C21 MUT d   1      21.039  28.755  12.351  0.00  0.00     0.249 C 
ATOM     58  O22 MUT d   1      21.042  29.931  12.026  0.00  0.00    -0.271 OA
ATOM     59  H29 MUT d   1      20.461  27.352  13.690  0.00  0.00     0.163 HD
BRANCH  57  60
ATOM     60  C29 MUT d   1      21.848  27.784  11.528  0.00  0.00     0.142 C 
ATOM     61  O28 MUT d   1      21.836  26.469  12.084  0.00  0.00    -0.287 OA
ATOM     62  C26 MUT d   1      21.458  25.568  11.016  0.00  0.00     0.368 C 
ATOM     63  O27 MUT d   1      21.527  24.366  11.213  0.00  0.00    -0.238 OA
ATOM     64  N24 MUT d   1      21.132  26.245   9.910  0.00  0.00    -0.291 N 
ATOM     65  C25 MUT d   1      21.206  27.688  10.121  0.00  0.00     0.038 C 
ATOM     66  H31 MUT d   1      21.839  28.170   9.361  0.00  0.00     0.069 H 
ATOM     67  H32 MUT d   1      20.205  28.144  10.108  0.00  0.00     0.069 H 
ATOM     68  H30 MUT d   1      22.885  28.144  11.453  0.00  0.00     0.102 H 
BRANCH  64  69
ATOM     69  C43 MUT d   1      20.779  25.665   8.659  0.00  0.00     0.040 A 
ATOM     70  C44 MUT d   1      21.218  24.393   8.284  0.00  0.00    -0.057 A 
ATOM     71  C45 MUT d   1      20.849  23.824   7.061  0.00  0.00    -0.080 A 
ATOM     72  H33 MUT d   1      21.859  23.834   8.956  0.00  0.00     0.086 H 
ATOM     73  C40 MUT d   1      20.040  24.523   6.178  0.00  0.00    -0.069 A 
ATOM     74  H34 MUT d   1      21.197  22.831   6.802  0.00  0.00     0.083 H 
ATOM     75  C41 MUT d   1      19.597  25.799   6.528  0.00  0.00     0.011 A 
ATOM     76  H35 MUT d   1      19.756  24.084   5.229  0.00  0.00     0.085 H 
ATOM     77  C42 MUT d   1      19.968  26.358   7.750  0.00  0.00    -0.043 A 
ATOM     78  H36 MUT d   1      19.621  27.353   8.003  0.00  0.00     0.088 H 
BRANCH  75  79
ATOM     79  C46 MUT d   1      18.697  26.594   5.576  0.00  0.00     0.155 C 
ATOM     80  O45 MUT d   1      18.309  27.706   5.908  0.00  0.00    -0.293 OA
BRANCH  79  81
ATOM     81  C47 MUT d   1      18.295  25.990   4.265  0.00  0.00    -0.017 C 
ATOM     82  H37 MUT d   1      17.654  26.697   3.717  0.00  0.00     0.038 H 
ATOM     83  H38 MUT d   1      17.741  25.057   4.446  0.00  0.00     0.038 H 
ATOM     84  H39 MUT d   1      19.194  25.773   3.670  0.00  0.00     0.038 H 
ENDBRANCH  79  81
ENDBRANCH  75  79
ENDBRANCH  64  69
ENDBRANCH  57  60
ENDBRANCH   1  56
TORSDOF 19
