REMARK  3 active torsions:
REMARK  status: ('A' for Active; 'I' for Inactive)
REMARK    1  A    between atoms: C8_4  and  O9_12 
REMARK    2  A    between atoms: C14_16  and  C16_17 
REMARK    3  A    between atoms: C19_19  and  O20_20 
ROOT
ATOM      1  C4  I0G d   1      77.037  39.863  67.579  0.00  0.00    -0.020 C 
ATOM      2  C6  I0G d   1      77.880  40.890  68.352  0.00  0.00    -0.018 A 
ATOM      3  C7  I0G d   1      78.787  41.732  67.642  0.00  0.00    -0.042 A 
ATOM      4  C8  I0G d   1      79.573  42.683  68.347  0.00  0.00     0.066 A 
ATOM      5  C10 I0G d   1      79.457  42.788  69.749  0.00  0.00    -0.048 A 
ATOM      6  C24 I0G d   1      74.727  40.646  67.134  0.00  0.00    -0.064 C 
ATOM      7  C1  I0G d   1      74.729  39.897  68.492  0.00  0.00    -0.058 C 
ATOM      8  C2  I0G d   1      76.049  39.064  68.511  0.00  0.00    -0.017 C 
ATOM      9  C11 I0G d   1      78.565  41.963  70.442  0.00  0.00    -0.048 A 
ATOM     10  C12 I0G d   1      77.774  41.012  69.753  0.00  0.00     0.076 A 
ATOM     11  O13 I0G d   1      76.920  40.250  70.514  0.00  0.00    -0.340 OA
ATOM     12  C14 I0G d   1      76.642  38.949  69.962  0.00  0.00     0.074 C 
ATOM     13  C23 I0G d   1      76.143  40.540  66.529  0.00  0.00    -0.057 C 
ATOM     14  H1  I0G d   1      77.722  39.160  67.083  0.00  0.00     0.048 H 
ATOM     15  H2  I0G d   1      78.876  41.646  66.565  0.00  0.00     0.088 H 
ATOM     16  H3  I0G d   1      80.060  43.509  70.290  0.00  0.00     0.087 H 
ATOM     17  H7  I0G d   1      74.466  41.703  67.291  0.00  0.00     0.033 H 
ATOM     18  H8  I0G d   1      73.995  40.185  66.454  0.00  0.00     0.033 H 
ATOM     19  H9  I0G d   1      73.855  39.233  68.565  0.00  0.00     0.033 H 
ATOM     20  H10 I0G d   1      74.716  40.614  69.326  0.00  0.00     0.033 H 
ATOM     21  H11 I0G d   1      75.870  38.055  68.112  0.00  0.00     0.045 H 
ATOM     22  H13 I0G d   1      78.478  42.053  71.519  0.00  0.00     0.087 H 
ATOM     23  H14 I0G d   1      77.592  38.401  69.880  0.00  0.00     0.092 H 
ATOM     24  H17 I0G d   1      76.116  39.935  65.611  0.00  0.00     0.034 H 
ATOM     25  H18 I0G d   1      76.529  41.543  66.296  0.00  0.00     0.034 H 
ENDROOT
BRANCH  12  26
ATOM     26  C16 I0G d   1      75.734  38.170  70.962  0.00  0.00    -0.028 A 
ATOM     27  C17 I0G d   1      75.674  38.571  72.330  0.00  0.00    -0.072 A 
ATOM     28  C18 I0G d   1      74.862  37.862  73.241  0.00  0.00    -0.050 A 
ATOM     29  H4  I0G d   1      76.253  39.422  72.670  0.00  0.00     0.084 H 
ATOM     30  C19 I0G d   1      74.102  36.748  72.796  0.00  0.00     0.065 A 
ATOM     31  H15 I0G d   1      74.819  38.168  74.280  0.00  0.00     0.087 H 
ATOM     32  C21 I0G d   1      74.155  36.351  71.450  0.00  0.00    -0.050 A 
ATOM     33  C22 I0G d   1      74.964  37.052  70.538  0.00  0.00    -0.072 A 
ATOM     34  H5  I0G d   1      73.571  35.502  71.113  0.00  0.00     0.087 H 
ATOM     35  H6  I0G d   1      75.001  36.737  69.501  0.00  0.00     0.084 H 
BRANCH  30  36
ATOM     36  O20 I0G d   1      73.332  36.065  73.660  0.00  0.00    -0.361 OA
ATOM     37  H16 I0G d   1      73.875  35.708  74.353  0.00  0.00     0.217 HD
ENDBRANCH  30  36
ENDBRANCH  12  26
BRANCH   4  38
ATOM     38  O9  I0G d   1      80.440  43.498  67.688  0.00  0.00    -0.361 OA
ATOM     39  H12 I0G d   1      80.405  43.309  66.758  0.00  0.00     0.217 HD
ENDBRANCH   4  38
TORSDOF 3
