REMARK  7 active torsions:
REMARK  status: ('A' for Active; 'I' for Inactive)
REMARK    1  A    between atoms: C2_3  and  N11_9 
REMARK    2  A    between atoms: C16_12  and  N21_15 
REMARK    3  A    between atoms: N21_15  and  C22_16 
REMARK    4  A    between atoms: N21_15  and  C23_17 
REMARK    5  A    between atoms: C22_16  and  C24_25 
REMARK    6  A    between atoms: C24_25  and  C27_26 
REMARK    7  A    between atoms: C27_26  and  N30_27 
ROOT
ATOM      1  N21 222 d   1      20.094  13.390  31.255  0.00  0.00    -0.329 N 
ENDROOT
BRANCH   1   2
ATOM      2  C16 222 d   1      20.467  12.016  30.959  0.00  0.00     0.151 A 
ATOM      3  C15 222 d   1      19.918  10.689  30.411  0.00  0.00    -0.032 A 
ATOM      4  C14 222 d   1      20.724   9.595  30.321  0.00  0.00    -0.012 A 
ATOM      5  H6  222 d   1      18.879  10.623  30.093  0.00  0.00     0.089 H 
ATOM      6  C13 222 d   1      22.156   9.674  30.759  0.00  0.00     0.268 A 
ATOM      7  H5  222 d   1      20.327   8.659  29.930  0.00  0.00     0.092 H 
ATOM      8  N11 222 d   1      22.598  10.933  31.256  0.00  0.00    -0.194 N 
ATOM      9  O18 222 d   1      22.820   8.669  30.657  0.00  0.00    -0.266 OA
ATOM     10  N17 222 d   1      21.827  11.987  31.346  0.00  0.00    -0.146 NA
BRANCH   8  11
ATOM     11  C2  222 d   1      23.890  11.041  31.676  0.00  0.00     0.084 A 
ATOM     12  C1  222 d   1      24.896  11.667  30.846  0.00  0.00    -0.053 A 
ATOM     13  C6  222 d   1      26.256  11.756  31.312  0.00  0.00    -0.081 A 
ATOM     14  H1  222 d   1      24.627  12.068  29.876  0.00  0.00     0.087 H 
ATOM     15  C5  222 d   1      26.621  11.216  32.610  0.00  0.00    -0.081 A 
ATOM     16  H4  222 d   1      27.010  12.228  30.692  0.00  0.00     0.083 H 
ATOM     17  C4  222 d   1      25.616  10.588  33.442  0.00  0.00    -0.060 A 
ATOM     18  H3  222 d   1      27.646  11.283  32.956  0.00  0.00     0.083 H 
ATOM     19  C3  222 d   1      24.268  10.507  32.972  0.00  0.00     0.062 A 
ATOM     20  H2  222 d   1      25.883  10.183  34.412  0.00  0.00     0.086 H 
ATOM     21 CL1  222 d   1      23.068   9.746  33.990  0.00  0.00    -0.082 Cl
ENDBRANCH   8  11
ENDBRANCH   1   2
BRANCH   1  22
ATOM     22  C22 222 d   1      20.769  14.636  31.596  0.00  0.00     0.003 C 
ATOM     23  H7  222 d   1      20.153  15.451  31.188  0.00  0.00     0.065 H 
ATOM     24  H8  222 d   1      21.741  14.619  31.082  0.00  0.00     0.065 H 
BRANCH  22  25
ATOM     25  C24 222 d   1      21.046  14.982  33.030  0.00  0.00    -0.034 C 
ATOM     26  H12 222 d   1      21.506  14.094  33.488  0.00  0.00     0.037 H 
ATOM     27  H13 222 d   1      20.073  15.177  33.504  0.00  0.00     0.037 H 
BRANCH  25  28
ATOM     28  C27 222 d   1      21.939  16.159  33.364  0.00  0.00     0.007 C 
ATOM     29  H14 222 d   1      21.954  16.298  34.455  0.00  0.00     0.065 H 
ATOM     30  H15 222 d   1      21.533  17.062  32.885  0.00  0.00     0.065 H 
BRANCH  28  31
ATOM     31  N30 222 d   1      23.322  15.944  32.889  0.00  0.00    -0.280 N 
ATOM     32  C43 222 d   1      23.828  16.365  31.682  0.00  0.00     0.261 A 
ATOM     33  C44 222 d   1      25.218  15.950  31.664  0.00  0.00     0.048 A 
ATOM     34  O55 222 d   1      23.215  16.973  30.804  0.00  0.00    -0.267 OA
ATOM     35  C45 222 d   1      25.486  15.298  32.862  0.00  0.00     0.048 A 
ATOM     36  C47 222 d   1      26.207  16.136  30.677  0.00  0.00    -0.067 A 
ATOM     37  C46 222 d   1      24.258  15.286  33.641  0.00  0.00     0.261 A 
ATOM     38  C50 222 d   1      26.760  14.773  33.164  0.00  0.00    -0.067 A 
ATOM     39  O56 222 d   1      24.069  14.805  34.758  0.00  0.00    -0.267 OA
ATOM     40  C49 222 d   1      27.783  14.945  32.193  0.00  0.00    -0.082 A 
ATOM     41  H19 222 d   1      26.951  14.259  34.099  0.00  0.00     0.085 H 
ATOM     42  C48 222 d   1      27.505  15.622  30.952  0.00  0.00    -0.082 A 
ATOM     43  H18 222 d   1      28.779  14.564  32.387  0.00  0.00     0.083 H 
ATOM     44  H17 222 d   1      28.294  15.741  30.219  0.00  0.00     0.083 H 
ATOM     45  H16 222 d   1      25.988  16.649  29.748  0.00  0.00     0.085 H 
ENDBRANCH  28  31
ENDBRANCH  25  28
ENDBRANCH  22  25
ENDBRANCH   1  22
BRANCH   1  46
ATOM     46  C23 222 d   1      18.661  13.446  31.183  0.00  0.00     0.058 A 
ATOM     47  C33 222 d   1      18.049  14.045  29.990  0.00  0.00    -0.052 A 
ATOM     48  C34 222 d   1      16.627  14.146  29.860  0.00  0.00    -0.043 A 
ATOM     49  H9  222 d   1      18.685  14.417  29.195  0.00  0.00     0.087 H 
ATOM     50  C35 222 d   1      15.791  13.657  30.905  0.00  0.00     0.118 A 
ATOM     51  H10 222 d   1      16.190  14.591  28.974  0.00  0.00     0.088 H 
ATOM     52  C36 222 d   1      16.313  13.058  32.103  0.00  0.00    -0.022 A 
ATOM     53  F42 222 d   1      14.487  13.771  30.754  0.00  0.00    -0.206 F 
ATOM     54  C37 222 d   1      17.738  12.955  32.244  0.00  0.00     0.063 A 
ATOM     55  H11 222 d   1      15.649  12.694  32.879  0.00  0.00     0.090 H 
ATOM     56 CL2  222 d   1      18.310  12.247  33.711  0.00  0.00    -0.082 Cl
ENDBRANCH   1  46
TORSDOF 7
