REMARK  3 active torsions:
REMARK  status: ('A' for Active; 'I' for Inactive)
REMARK    1  A    between atoms: C8_4  and  O9_12 
REMARK    2  A    between atoms: C14_16  and  C16_17 
REMARK    3  A    between atoms: C19_19  and  O20_20 
ROOT
ATOM      1  C4  I0G d   1      33.777  -5.135  12.681  0.00  0.00    -0.020 C 
ATOM      2  C6  I0G d   1      32.829  -6.253  12.281  0.00  0.00    -0.018 A 
ATOM      3  C7  I0G d   1      32.024  -6.873  13.273  0.00  0.00    -0.042 A 
ATOM      4  C8  I0G d   1      31.123  -7.944  12.931  0.00  0.00     0.066 A 
ATOM      5  C10 I0G d   1      31.047  -8.362  11.576  0.00  0.00    -0.048 A 
ATOM      6  C24 I0G d   1      32.911  -2.927  12.041  0.00  0.00    -0.064 C 
ATOM      7  C1  I0G d   1      33.713  -3.503  10.861  0.00  0.00    -0.058 C 
ATOM      8  C2  I0G d   1      34.602  -4.589  11.467  0.00  0.00    -0.017 C 
ATOM      9  C11 I0G d   1      31.846  -7.728  10.619  0.00  0.00    -0.048 A 
ATOM     10  C12 I0G d   1      32.737  -6.667  10.966  0.00  0.00     0.076 A 
ATOM     11  O13 I0G d   1      33.491  -6.094   9.958  0.00  0.00    -0.340 OA
ATOM     12  C14 I0G d   1      34.788  -5.682  10.428  0.00  0.00     0.074 C 
ATOM     13  C23 I0G d   1      32.960  -3.963  13.194  0.00  0.00    -0.057 C 
ATOM     14  H1  I0G d   1      34.460  -5.500  13.462  0.00  0.00     0.048 H 
ATOM     15  H2  I0G d   1      32.088  -6.536  14.301  0.00  0.00     0.088 H 
ATOM     16  H3  I0G d   1      30.377  -9.164  11.287  0.00  0.00     0.087 H 
ATOM     17  H7  I0G d   1      31.868  -2.754  11.737  0.00  0.00     0.033 H 
ATOM     18  H8  I0G d   1      33.359  -1.978  12.371  0.00  0.00     0.033 H 
ATOM     19  H9  I0G d   1      34.327  -2.719  10.394  0.00  0.00     0.033 H 
ATOM     20  H10 I0G d   1      33.036  -3.935  10.110  0.00  0.00     0.033 H 
ATOM     21  H11 I0G d   1      35.575  -4.189  11.789  0.00  0.00     0.045 H 
ATOM     22  H13 I0G d   1      31.787  -8.051   9.586  0.00  0.00     0.087 H 
ATOM     23  H14 I0G d   1      35.296  -6.535  10.902  0.00  0.00     0.092 H 
ATOM     24  H17 I0G d   1      33.440  -3.523  14.081  0.00  0.00     0.034 H 
ATOM     25  H18 I0G d   1      31.943  -4.292  13.453  0.00  0.00     0.034 H 
ENDROOT
BRANCH  12  26
ATOM     26  C16 I0G d   1      35.613  -5.226   9.230  0.00  0.00    -0.028 A 
ATOM     27  C17 I0G d   1      36.818  -4.870   9.330  0.00  0.00    -0.072 A 
ATOM     28  C18 I0G d   1      37.596  -4.478   8.257  0.00  0.00    -0.050 A 
ATOM     29  H4  I0G d   1      37.270  -4.871  10.315  0.00  0.00     0.084 H 
ATOM     30  C19 I0G d   1      37.165  -4.431   7.076  0.00  0.00     0.065 A 
ATOM     31  H15 I0G d   1      38.627  -4.198   8.442  0.00  0.00     0.087 H 
ATOM     32  C21 I0G d   1      35.945  -4.791   6.973  0.00  0.00    -0.050 A 
ATOM     33  C22 I0G d   1      35.171  -5.181   8.057  0.00  0.00    -0.072 A 
ATOM     34  H5  I0G d   1      35.490  -4.792   5.989  0.00  0.00     0.087 H 
ATOM     35  H6  I0G d   1      34.138  -5.459   7.882  0.00  0.00     0.084 H 
BRANCH  30  36
ATOM     36  O20 I0G d   1      37.948  -4.035   6.005  0.00  0.00    -0.361 OA
ATOM     37  H16 I0G d   1      38.252  -3.146   6.148  0.00  0.00     0.217 HD
ENDBRANCH  30  36
ENDBRANCH  12  26
BRANCH   4  38
ATOM     38  O9  I0G d   1      30.319  -8.576  13.908  0.00  0.00    -0.361 OA
ATOM     39  H12 I0G d   1      30.487  -8.184  14.757  0.00  0.00     0.217 HD
ENDBRANCH   4  38
TORSDOF 3
