REMARK  3 active torsions:
REMARK  status: ('A' for Active; 'I' for Inactive)
REMARK    1  A    between atoms: C15_12  and  C7_4 
REMARK    2  A    between atoms: C8_5  and  C17_21 
REMARK    3  A    between atoms: C18_24  and  C19_14 
ROOT
ATOM      1  C1  6C3 d   1       8.699  25.935   7.889  0.00  0.00     0.042 A 
ATOM      2  C2  6C3 d   1       7.898  26.687   6.972  0.00  0.00    -0.020 A 
ATOM      3  C3  6C3 d   1       7.668  26.107   5.679  0.00  0.00    -0.053 A 
ATOM      4  C7  6C3 d   1       7.292  28.022   7.390  0.00  0.00     0.017 A 
ATOM      5  C8  6C3 d   1       7.542  28.490   8.737  0.00  0.00     0.084 A 
ATOM      6  C9  6C3 d   1       8.425  27.620   9.667  0.00  0.00     0.233 A 
ATOM      7  C4  6C3 d   1       8.209  24.847   5.341  0.00  0.00     0.034 A 
ATOM      8  C5  6C3 d   1       9.000  24.120   6.257  0.00  0.00    -0.060 A 
ATOM      9  C6  6C3 d   1       9.249  24.662   7.536  0.00  0.00    -0.055 A 
ATOM     10  N1  6C3 d   1       8.922  26.432   9.173  0.00  0.00    -0.326 N 
ATOM     11 CL1  6C3 d   1       7.872  24.194   3.803  0.00  0.00    -0.084 Cl
ATOM     12  O1  6C3 d   1       8.718  27.950  10.833  0.00  0.00    -0.272 OA
ATOM     13  H1  6C3 d   1       7.070  26.644   4.951  0.00  0.00     0.087 H 
ATOM     14  H2  6C3 d   1       6.372  27.523   7.729  0.00  0.00     0.057 H 
ATOM     15  H3  6C3 d   1       8.396  29.077   8.368  0.00  0.00     0.067 H 
ATOM     16  H13 6C3 d   1       9.412  23.156   5.981  0.00  0.00     0.086 H 
ATOM     17  H14 6C3 d   1       9.855  24.115   8.249  0.00  0.00     0.087 H 
ATOM     18  H15 6C3 d   1       9.489  25.882   9.786  0.00  0.00     0.169 HD
ENDROOT
BRANCH   4  19
ATOM     19  C15 6C3 d   1       6.495  28.807   6.375  0.00  0.00    -0.048 A 
ATOM     20  C10 6C3 d   1       5.073  28.724   6.335  0.00  0.00    -0.076 A 
ATOM     21  C11 6C3 d   1       4.354  29.476   5.379  0.00  0.00    -0.082 A 
ATOM     22  H4  6C3 d   1       4.545  28.087   7.035  0.00  0.00     0.084 H 
ATOM     23  C12 6C3 d   1       5.036  30.298   4.450  0.00  0.00    -0.083 A 
ATOM     24  H5  6C3 d   1       3.272  29.423   5.357  0.00  0.00     0.083 H 
ATOM     25  C13 6C3 d   1       6.445  30.372   4.471  0.00  0.00    -0.082 A 
ATOM     26  H6  6C3 d   1       4.475  30.872   3.721  0.00  0.00     0.083 H 
ATOM     27  C14 6C3 d   1       7.174  29.630   5.425  0.00  0.00    -0.076 A 
ATOM     28  H7  6C3 d   1       6.967  30.998   3.756  0.00  0.00     0.083 H 
ATOM     29  H8  6C3 d   1       8.257  29.685   5.437  0.00  0.00     0.084 H 
ENDBRANCH   4  19
BRANCH   5  30
ATOM     30  C17 6C3 d   1       6.991  29.697   9.458  0.00  0.00     0.095 A 
ATOM     31  C16 6C3 d   1       6.092  30.585   8.863  0.00  0.00    -0.026 A 
ATOM     32  C18 6C3 d   1       5.772  31.557   9.821  0.00  0.00     0.060 A 
ATOM     33  H9  6C3 d   1       5.711  30.532   7.844  0.00  0.00     0.090 H 
ATOM     34  N2  6C3 d   1       6.437  31.347  10.959  0.00  0.00    -0.133 NA
ATOM     35  O2  6C3 d   1       7.185  30.210  10.736  0.00  0.00    -0.217 OA
BRANCH  32  36
ATOM     36  C19 6C3 d   1       4.747  32.622   9.732  0.00  0.00    -0.033 C 
ATOM     37  H10 6C3 d   1       4.754  33.215  10.658  0.00  0.00     0.035 H 
ATOM     38  H11 6C3 d   1       3.755  32.166   9.596  0.00  0.00     0.035 H 
ATOM     39  H12 6C3 d   1       4.971  33.276   8.876  0.00  0.00     0.035 H 
ENDBRANCH  32  36
ENDBRANCH   5  30
TORSDOF 3
