REMARK  6 active torsions:
REMARK  status: ('A' for Active; 'I' for Inactive)
REMARK    1  A    between atoms: C1_1  and  N1_18 
REMARK    2  A    between atoms: C11_8  and  C12_9 
REMARK    3  A    between atoms: C4_15  and  C13_10 
REMARK    4  A    between atoms: C13_10  and  O1_19 
REMARK    5  A    between atoms: C15_12  and  C14_11 
REMARK       I    between atoms: C14_11  and  N2_20 
REMARK    6  A    between atoms: N2_20  and  C6_17 
ROOT
ATOM      1  C15 5CN d   1       7.448  25.614   7.357  0.00  0.00     0.144 A 
ATOM      2  C16 5CN d   1       8.285  24.552   7.649  0.00  0.00    -0.041 A 
ATOM      3  C19 5CN d   1       7.010  23.900   4.300  0.00  0.00     0.125 C 
ATOM      4  C17 5CN d   1       8.266  23.688   6.517  0.00  0.00    -0.037 A 
ATOM      5  C18 5CN d   1       7.418  24.279   5.603  0.00  0.00     0.156 A 
ATOM      6  O3  5CN d   1       6.918  25.440   6.094  0.00  0.00    -0.294 OA
ATOM      7  N3  5CN d   1       6.683  23.601   3.228  0.00  0.00    -0.189 NA
ATOM      8  H17 5CN d   1       8.850  24.405   8.568  0.00  0.00     0.088 H 
ATOM      9  H21 5CN d   1       8.810  22.752   6.397  0.00  0.00     0.089 H 
ENDROOT
BRANCH   1  10
ATOM     10  C14 5CN d   1       7.069  26.794   8.131  0.00  0.00     0.280 C 
ATOM     11  N2  5CN d   1       6.197  27.613   7.430  0.00  0.00    -0.319 N 
ATOM     12  H20 5CN d   1       6.000  27.289   6.505  0.00  0.00     0.169 HD
ATOM     13  O2  5CN d   1       7.478  26.985   9.280  0.00  0.00    -0.265 OA
BRANCH  11  14
ATOM     14  C6  5CN d   1       5.530  28.816   7.763  0.00  0.00     0.062 A 
ATOM     15  C1  5CN d   1       4.821  29.492   6.694  0.00  0.00     0.057 A 
ATOM     16  C2  5CN d   1       4.066  30.667   7.019  0.00  0.00    -0.054 A 
ATOM     17  C3  5CN d   1       4.010  31.171   8.345  0.00  0.00    -0.072 A 
ATOM     18  H1  5CN d   1       3.525  31.183   6.234  0.00  0.00     0.087 H 
ATOM     19  C4  5CN d   1       4.712  30.516   9.396  0.00  0.00    -0.033 A 
ATOM     20  H2  5CN d   1       3.429  32.061   8.559  0.00  0.00     0.084 H 
ATOM     21  C5  5CN d   1       5.468  29.342   9.098  0.00  0.00    -0.047 A 
ATOM     22  H18 5CN d   1       6.005  28.838   9.894  0.00  0.00     0.088 H 
BRANCH  15  23
ATOM     23  N1  5CN d   1       4.890  29.102   5.331  0.00  0.00    -0.379 N 
ATOM     24  C8  5CN d   1       6.200  29.300   4.626  0.00  0.00    -0.004 C 
ATOM     25  C7  5CN d   1       6.308  28.520   3.306  0.00  0.00    -0.047 C 
ATOM     26  H5  5CN d   1       6.320  30.372   4.409  0.00  0.00     0.064 H 
ATOM     27  H6  5CN d   1       7.009  28.968   5.294  0.00  0.00     0.064 H 
ATOM     28  C11 5CN d   1       5.038  28.628   2.468  0.00  0.00    -0.055 C 
ATOM     29  H3  5CN d   1       6.492  27.460   3.535  0.00  0.00     0.035 H 
ATOM     30  H4  5CN d   1       7.151  28.922   2.725  0.00  0.00     0.035 H 
ATOM     31  C10 5CN d   1       3.857  28.041   3.260  0.00  0.00    -0.047 C 
ATOM     32  H11 5CN d   1       4.835  29.687   2.249  0.00  0.00     0.039 H 
ATOM     33  C9  5CN d   1       3.620  28.770   4.602  0.00  0.00    -0.004 C 
ATOM     34  H9  5CN d   1       2.947  28.124   2.648  0.00  0.00     0.035 H 
ATOM     35  H10 5CN d   1       4.064  26.981   3.467  0.00  0.00     0.035 H 
ATOM     36  H7  5CN d   1       3.006  28.124   5.247  0.00  0.00     0.064 H 
ATOM     37  H8  5CN d   1       3.079  29.706   4.400  0.00  0.00     0.064 H 
BRANCH  28  38
ATOM     38  C12 5CN d   1       5.224  27.874   1.154  0.00  0.00    -0.073 C 
ATOM     39  H12 5CN d   1       6.071  28.305   0.601  0.00  0.00     0.028 H 
ATOM     40  H13 5CN d   1       4.309  27.960   0.549  0.00  0.00     0.028 H 
ATOM     41  H14 5CN d   1       5.426  26.814   1.365  0.00  0.00     0.028 H 
ENDBRANCH  28  38
ENDBRANCH  15  23
BRANCH  19  42
ATOM     42  C13 5CN d   1       4.658  31.047  10.801  0.00  0.00     0.041 C 
ATOM     43  H15 5CN d   1       4.769  32.141  10.790  0.00  0.00     0.081 H 
ATOM     44  H16 5CN d   1       5.467  30.602  11.398  0.00  0.00     0.081 H 
BRANCH  42  45
ATOM     45  O1  5CN d   1       3.393  30.696  11.364  0.00  0.00    -0.396 OA
ATOM     46  H19 5CN d   1       2.698  31.080  10.843  0.00  0.00     0.209 HD
ENDBRANCH  42  45
ENDBRANCH  19  42
ENDBRANCH  11  14
ENDBRANCH   1  10
TORSDOF 6
