REMARK  6 active torsions:
REMARK  status: ('A' for Active; 'I' for Inactive)
REMARK    1  A    between atoms: C1_1  and  N1_18 
REMARK    2  A    between atoms: C11_8  and  C12_9 
REMARK    3  A    between atoms: C4_15  and  C13_10 
REMARK    4  A    between atoms: C13_10  and  O1_19 
REMARK    5  A    between atoms: C15_12  and  C14_11 
REMARK       I    between atoms: C14_11  and  N2_20 
REMARK    6  A    between atoms: N2_20  and  C6_17 
ROOT
ATOM      1  C15 5CN d   1      48.330  44.304  -8.735  0.00  0.00     0.144 A 
ATOM      2  C16 5CN d   1      49.194  45.378  -8.874  0.00  0.00    -0.041 A 
ATOM      3  C19 5CN d   1      47.610  45.887  -5.642  0.00  0.00     0.125 C 
ATOM      4  C17 5CN d   1      49.071  46.171  -7.701  0.00  0.00    -0.037 A 
ATOM      5  C18 5CN d   1      48.137  45.548  -6.918  0.00  0.00     0.156 A 
ATOM      6  O3  5CN d   1      47.673  44.412  -7.527  0.00  0.00    -0.294 OA
ATOM      7  N3  5CN d   1      47.190  46.175  -4.595  0.00  0.00    -0.189 NA
ATOM      8  H17 5CN d   1      49.846  45.577  -9.723  0.00  0.00     0.088 H 
ATOM      9  H21 5CN d   1      49.611  47.089  -7.472  0.00  0.00     0.089 H 
ENDROOT
BRANCH   1  10
ATOM     10  C14 5CN d   1      48.036  43.176  -9.627  0.00  0.00     0.280 C 
ATOM     11  N2  5CN d   1      47.164  42.271  -9.050  0.00  0.00    -0.319 N 
ATOM     12  H20 5CN d   1      46.880  42.526  -8.126  0.00  0.00     0.169 HD
ATOM     13  O2  5CN d   1      48.530  43.082 -10.759  0.00  0.00    -0.265 OA
BRANCH  11  14
ATOM     14  C6  5CN d   1      46.586  41.046  -9.505  0.00  0.00     0.062 A 
ATOM     15  C1  5CN d   1      45.826  40.299  -8.534  0.00  0.00     0.057 A 
ATOM     16  C2  5CN d   1      45.170  39.086  -8.952  0.00  0.00    -0.054 A 
ATOM     17  C3  5CN d   1      45.271  38.614 -10.286  0.00  0.00    -0.072 A 
ATOM     18  H1  5CN d   1      44.587  38.523  -8.232  0.00  0.00     0.087 H 
ATOM     19  C4  5CN d   1      46.030  39.339 -11.250  0.00  0.00    -0.033 A 
ATOM     20  H2  5CN d   1      44.769  37.697 -10.573  0.00  0.00     0.084 H 
ATOM     21  C5  5CN d   1      46.683  40.554 -10.853  0.00  0.00    -0.047 A 
ATOM     22  H18 5CN d   1      47.260  41.111 -11.582  0.00  0.00     0.088 H 
BRANCH  15  23
ATOM     23  N1  5CN d   1      45.765  40.654  -7.172  0.00  0.00    -0.379 N 
ATOM     24  C8  5CN d   1      46.954  40.327  -6.323  0.00  0.00    -0.004 C 
ATOM     25  C7  5CN d   1      46.945  41.023  -4.949  0.00  0.00    -0.047 C 
ATOM     26  H5  5CN d   1      46.976  39.239  -6.161  0.00  0.00     0.064 H 
ATOM     27  H6  5CN d   1      47.861  40.636  -6.863  0.00  0.00     0.064 H 
ATOM     28  C11 5CN d   1      45.565  40.971  -4.294  0.00  0.00    -0.055 C 
ATOM     29  H3  5CN d   1      47.237  42.075  -5.081  0.00  0.00     0.035 H 
ATOM     30  H4  5CN d   1      47.670  40.521  -4.291  0.00  0.00     0.035 H 
ATOM     31  C10 5CN d   1      44.553  41.687  -5.196  0.00  0.00    -0.047 C 
ATOM     32  H11 5CN d   1      45.261  39.922  -4.167  0.00  0.00     0.039 H 
ATOM     33  C9  5CN d   1      44.449  41.053  -6.597  0.00  0.00    -0.004 C 
ATOM     34  H9  5CN d   1      43.564  41.645  -4.717  0.00  0.00     0.035 H 
ATOM     35  H10 5CN d   1      44.862  42.737  -5.307  0.00  0.00     0.035 H 
ATOM     36  H7  5CN d   1      43.980  41.782  -7.274  0.00  0.00     0.064 H 
ATOM     37  H8  5CN d   1      43.815  40.157  -6.527  0.00  0.00     0.064 H 
BRANCH  28  38
ATOM     38  C12 5CN d   1      45.615  41.649  -2.925  0.00  0.00    -0.073 C 
ATOM     39  H12 5CN d   1      46.343  41.129  -2.285  0.00  0.00     0.028 H 
ATOM     40  H13 5CN d   1      44.620  41.606  -2.458  0.00  0.00     0.028 H 
ATOM     41  H14 5CN d   1      45.918  42.699  -3.047  0.00  0.00     0.028 H 
ENDBRANCH  28  38
ENDBRANCH  15  23
BRANCH  19  42
ATOM     42  C13 5CN d   1      46.168  38.824 -12.660  0.00  0.00     0.041 C 
ATOM     43  H15 5CN d   1      46.080  37.728 -12.663  0.00  0.00     0.081 H 
ATOM     44  H16 5CN d   1      47.149  39.114 -13.065  0.00  0.00     0.081 H 
BRANCH  42  45
ATOM     45  O1  5CN d   1      45.134  39.389 -13.461  0.00  0.00    -0.396 OA
ATOM     46  H19 5CN d   1      45.214  39.069 -14.352  0.00  0.00     0.209 HD
ENDBRANCH  42  45
ENDBRANCH  19  42
ENDBRANCH  11  14
ENDBRANCH   1  10
TORSDOF 6
