REMARK  8 active torsions:
REMARK  status: ('A' for Active; 'I' for Inactive)
REMARK    1  A    between atoms: C1_1  and  C6_6 
REMARK    2  A    between atoms: C4_4  and  C8_8 
REMARK    3  A    between atoms: C6_6  and  C7_7 
REMARK    4  A    between atoms: C8_8  and  C9_9 
REMARK    5  A    between atoms: C11_11  and  N14_14 
REMARK    6  A    between atoms: N14_14  and  C15_15 
REMARK    7  A    between atoms: C15_15  and  C16_16 
REMARK    8  A    between atoms: C15_15  and  C17_17 
ROOT
ATOM      1  C9  VXR d   1       7.147  32.849  72.503  0.00  0.00     0.079 A 
ATOM      2  S10 VXR d   1       7.842  34.064  73.466  0.00  0.00    -0.047 SA
ATOM      3  C11 VXR d   1       6.442  34.905  73.807  0.00  0.00     0.170 A 
ATOM      4  N12 VXR d   1       5.523  34.286  73.214  0.00  0.00    -0.301 N 
ATOM      5  C13 VXR d   1       5.731  33.186  72.489  0.00  0.00     0.264 A 
ATOM      6  O28 VXR d   1       4.865  32.568  71.902  0.00  0.00    -0.267 OA
ATOM      7  H9  VXR d   1       4.589  34.636  73.290  0.00  0.00     0.171 HD
ENDROOT
BRANCH   3   8
ATOM      8  N14 VXR d   1       6.260  35.992  74.523  0.00  0.00    -0.248 NA
BRANCH   8   9
ATOM      9  C15 VXR d   1       7.271  36.796  75.197  0.00  0.00     0.120 C 
ATOM     10  H10 VXR d   1       7.977  36.129  75.712  0.00  0.00     0.096 H 
BRANCH   9  11
ATOM     11  C16 VXR d   1       8.020  37.610  74.144  0.00  0.00    -0.026 A 
ATOM     12  C22 VXR d   1       7.318  38.513  73.282  0.00  0.00    -0.071 A 
ATOM     13  C23 VXR d   1       8.021  39.266  72.311  0.00  0.00    -0.045 A 
ATOM     14  H12 VXR d   1       6.243  38.620  73.374  0.00  0.00     0.084 H 
ATOM     15  C24 VXR d   1       9.429  39.123  72.189  0.00  0.00     0.116 A 
ATOM     16  H13 VXR d   1       7.486  39.950  71.662  0.00  0.00     0.088 H 
ATOM     17  C25 VXR d   1      10.126  38.230  73.037  0.00  0.00    -0.045 A 
ATOM     18  F   VXR d   1      10.088  39.835  71.282  0.00  0.00    -0.206 F 
ATOM     19  C26 VXR d   1       9.422  37.474  74.012  0.00  0.00    -0.071 A 
ATOM     20  H14 VXR d   1      11.200  38.123  72.942  0.00  0.00     0.088 H 
ATOM     21  H15 VXR d   1       9.961  36.790  74.657  0.00  0.00     0.084 H 
ENDBRANCH   9  11
BRANCH   9  22
ATOM     22  C17 VXR d   1       6.644  37.721  76.215  0.00  0.00     0.175 A 
ATOM     23  N18 VXR d   1       5.588  38.559  75.972  0.00  0.00    -0.111 NA
ATOM     24  N19 VXR d   1       5.313  39.225  77.117  0.00  0.00    -0.023 NA
ATOM     25  N20 VXR d   1       6.170  38.807  78.023  0.00  0.00    -0.047 NA
ATOM     26  N21 VXR d   1       7.017  37.858  77.471  0.00  0.00    -0.241 N 
ATOM     27  H11 VXR d   1       7.783  37.361  77.947  0.00  0.00     0.192 HD
ENDBRANCH   9  22
ENDBRANCH   8   9
ENDBRANCH   3   8
BRANCH   1  28
ATOM     28  C8  VXR d   1       7.659  31.786  71.867  0.00  0.00    -0.028 C 
ATOM     29  H8  VXR d   1       6.967  31.160  71.305  0.00  0.00     0.090 H 
BRANCH  28  30
ATOM     30  C4  VXR d   1       9.067  31.396  71.864  0.00  0.00     0.077 A 
ATOM     31  C3  VXR d   1       9.840  31.043  72.939  0.00  0.00    -0.048 A 
ATOM     32  C2  VXR d   1      11.142  30.729  72.444  0.00  0.00    -0.052 A 
ATOM     33  H2  VXR d   1       9.520  31.008  73.979  0.00  0.00     0.087 H 
ATOM     34  C1  VXR d   1      11.079  30.909  71.088  0.00  0.00     0.053 A 
ATOM     35  H1  VXR d   1      12.007  30.412  73.025  0.00  0.00     0.087 H 
ATOM     36  O5  VXR d   1       9.834  31.311  70.736  0.00  0.00    -0.315 OA
BRANCH  34  37
ATOM     37  C6  VXR d   1      12.252  30.674  70.159  0.00  0.00    -0.024 C 
ATOM     38  H3  VXR d   1      12.055  29.758  69.583  0.00  0.00     0.042 H 
ATOM     39  H4  VXR d   1      13.153  30.534  70.774  0.00  0.00     0.042 H 
BRANCH  37  40
ATOM     40  C7  VXR d   1      12.522  31.807  69.172  0.00  0.00    -0.071 C 
ATOM     41  H5  VXR d   1      13.387  31.547  68.543  0.00  0.00     0.028 H 
ATOM     42  H6  VXR d   1      12.736  32.733  69.726  0.00  0.00     0.028 H 
ATOM     43  H7  VXR d   1      11.638  31.957  68.535  0.00  0.00     0.028 H 
ENDBRANCH  37  40
ENDBRANCH  34  37
ENDBRANCH  28  30
ENDBRANCH   1  28
TORSDOF 8
