REMARK  4 active torsions:
REMARK  status: ('A' for Active; 'I' for Inactive)
REMARK    1  A    between atoms: N9_5  and  C1'_11 
REMARK    2  A    between atoms: C6_9  and  N6_10 
REMARK    3  A    between atoms: C2'_12  and  O2'_16 
REMARK    4  A    between atoms: C3'_13  and  O3'_17 
ROOT
ATOM      1  N1  CC5 d   1      19.779   4.280   7.801  0.00  0.00    -0.222 NA
ATOM      2  C2  CC5 d   1      20.098   5.393   8.451  0.00  0.00     0.091 A 
ATOM      3  N3  CC5 d   1      19.220   6.355   8.668  0.00  0.00    -0.222 NA
ATOM      4  C4  CC5 d   1      17.965   6.234   8.211  0.00  0.00     0.167 A 
ATOM      5  N9  CC5 d   1      16.905   7.030   8.279  0.00  0.00    -0.294 N 
ATOM      6  C8  CC5 d   1      15.890   6.413   7.656  0.00  0.00     0.071 A 
ATOM      7  N7  CC5 d   1      16.305   5.230   7.193  0.00  0.00    -0.236 NA
ATOM      8  C5  CC5 d   1      17.586   5.088   7.527  0.00  0.00     0.149 A 
ATOM      9  C6  CC5 d   1      18.536   4.089   7.329  0.00  0.00     0.155 A 
ATOM     10  H1  CC5 d   1      21.112   5.516   8.815  0.00  0.00     0.146 H 
ATOM     11  H2  CC5 d   1      14.884   6.814   7.545  0.00  0.00     0.144 H 
ENDROOT
BRANCH   5  12
ATOM     12  C1' CC5 d   1      16.884   8.377   8.940  0.00  0.00     0.139 C 
ATOM     13  C2' CC5 d   1      16.734   9.489   7.885  0.00  0.00     0.104 C 
ATOM     14  C3' CC5 d   1      15.520  10.303   8.365  0.00  0.00     0.085 C 
ATOM     15  H6  CC5 d   1      16.559   9.071   6.883  0.00  0.00     0.093 H 
ATOM     16  C4' CC5 d   1      15.400   9.912   9.845  0.00  0.00     0.048 C 
ATOM     17  H7  CC5 d   1      14.613  10.032   7.804  0.00  0.00     0.090 H 
ATOM     18  O4' CC5 d   1      15.772   8.521   9.863  0.00  0.00    -0.361 OA
ATOM     19  H8  CC5 d   1      14.369  10.047  10.204  0.00  0.00     0.078 H 
ATOM     20  H9  CC5 d   1      16.085  10.509  10.465  0.00  0.00     0.078 H 
ATOM     21  H5  CC5 d   1      17.828   8.512   9.487  0.00  0.00     0.122 H 
BRANCH  13  22
ATOM     22  O2' CC5 d   1      17.923  10.299   7.882  0.00  0.00    -0.389 OA
ATOM     23  H10 CC5 d   1      17.799  11.039   7.299  0.00  0.00     0.210 HD
ENDBRANCH  13  22
BRANCH  14  24
ATOM     24  O3' CC5 d   1      15.765  11.721   8.242  0.00  0.00    -0.391 OA
ATOM     25  H11 CC5 d   1      15.837  11.950   7.323  0.00  0.00     0.210 HD
ENDBRANCH  14  24
ENDBRANCH   5  12
BRANCH   9  26
ATOM     26  N6  CC5 d   1      18.241   2.966   6.678  0.00  0.00    -0.382 N 
ATOM     27  H3  CC5 d   1      17.289   2.816   6.315  0.00  0.00     0.157 HD
ATOM     28  H4  CC5 d   1      18.965   2.247   6.537  0.00  0.00     0.157 HD
ENDBRANCH   9  26
TORSDOF 4
