REMARK  5 active torsions:
REMARK  status: ('A' for Active; 'I' for Inactive)
REMARK    1  A    between atoms: N_1  and  CA_2 
REMARK    2  A    between atoms: CA_2  and  C_3 
REMARK    3  A    between atoms: CA_2  and  CB_5 
REMARK    4  A    between atoms: CB_5  and  CG_6 
REMARK    5  A    between atoms: CG_6  and  CD_7 
ROOT
ATOM      1  CA  GLU d   1       1.215  71.808  79.943  0.00  0.00     0.183 C 
ATOM      2  H4  GLU d   1       1.429  70.761  79.681  0.00  0.00     0.101 H 
ENDROOT
BRANCH   1   3
ATOM      3  N   GLU d   1       0.528  71.827  81.266  0.00  0.00    -0.065 N 
ATOM      4  H1  GLU d   1      -0.339  71.316  81.202  0.00  0.00     0.275 HD
ATOM      5  H2  GLU d   1       0.337  72.780  81.532  0.00  0.00     0.275 HD
ATOM      6  H3  GLU d   1       1.121  71.397  81.959  0.00  0.00     0.275 HD
ENDBRANCH   1   3
BRANCH   1   7
ATOM      7  C   GLU d   1       2.523  72.564  79.990  0.00  0.00     0.204 C 
ATOM      8  O   GLU d   1       3.181  72.618  78.938  0.00  0.00    -0.646 OA
ATOM      9  OXT GLU d   1       2.883  73.063  81.085  0.00  0.00    -0.646 OA
ENDBRANCH   1   7
BRANCH   1  10
ATOM     10  CB  GLU d   1       0.315  72.404  78.864  0.00  0.00    -0.020 C 
ATOM     11  H5  GLU d   1       0.917  72.564  77.957  0.00  0.00     0.037 H 
ATOM     12  H6  GLU d   1      -0.069  73.370  79.224  0.00  0.00     0.037 H 
BRANCH  10  13
ATOM     13  CG  GLU d   1      -0.877  71.511  78.505  0.00  0.00     0.018 C 
ATOM     14  H7  GLU d   1      -1.630  72.128  77.993  0.00  0.00     0.049 H 
ATOM     15  H8  GLU d   1      -1.303  71.112  79.437  0.00  0.00     0.049 H 
BRANCH  13  16
ATOM     16  CD  GLU d   1      -0.521  70.331  77.594  0.00  0.00     0.172 C 
ATOM     17  OE1 GLU d   1      -1.384  69.459  77.406  0.00  0.00    -0.648 OA
ATOM     18  OE2 GLU d   1       0.602  70.261  77.056  0.00  0.00    -0.648 OA
ENDBRANCH  13  16
ENDBRANCH  10  13
ENDBRANCH   1  10
TORSDOF 5
