REMARK  5 active torsions:
REMARK  status: ('A' for Active; 'I' for Inactive)
REMARK    1  A    between atoms: C7_2  and  N12_3 
REMARK    2  A    between atoms: C19_24  and  C20_7 
REMARK    3  A    between atoms: N5_15  and  C11_20 
REMARK    4  A    between atoms: N6_16  and  C19_24 
REMARK    5  A    between atoms: C14_21  and  N18_23 
ROOT
ATOM      1  C20 LIR d   1      15.400  39.230 -82.261  0.00  0.00    -0.019 A 
ATOM      2  C21 LIR d   1      15.298  40.220 -83.254  0.00  0.00    -0.074 A 
ATOM      3  C22 LIR d   1      15.760  39.978 -84.559  0.00  0.00    -0.082 A 
ATOM      4  C24 LIR d   1      16.487  37.742 -83.914  0.00  0.00    -0.062 A 
ATOM      5  C26 LIR d   1      16.188  36.909 -81.667  0.00  0.00     0.100 C 
ATOM      6  C23 LIR d   1      16.366  38.746 -84.881  0.00  0.00    -0.082 A 
ATOM      7  C25 LIR d   1      16.027  37.979 -82.608  0.00  0.00     0.052 A 
ATOM      8  N27 LIR d   1      16.401  36.121 -80.838  0.00  0.00    -0.191 NA
ATOM      9  H7  LIR d   1      14.858  41.180 -83.010  0.00  0.00     0.084 H 
ATOM     10  H8  LIR d   1      15.650  40.741 -85.321  0.00  0.00     0.083 H 
ATOM     11  H9  LIR d   1      16.933  36.788 -84.171  0.00  0.00     0.085 H 
ATOM     12  H21 LIR d   1      16.740  38.576 -85.884  0.00  0.00     0.083 H 
ENDROOT
BRANCH   1  13
ATOM     13  C19 LIR d   1      14.860  39.562 -80.899  0.00  0.00     0.028 C 
ATOM     14  H19 LIR d   1      13.978  38.927 -80.730  0.00  0.00     0.072 H 
ATOM     15  H20 LIR d   1      14.554  40.618 -80.913  0.00  0.00     0.072 H 
BRANCH  13  16
ATOM     16  N6  LIR d   1      15.757  39.380 -79.760  0.00  0.00    -0.311 N 
ATOM     17  C7  LIR d   1      15.395  38.798 -78.602  0.00  0.00     0.186 A 
ATOM     18  N8  LIR d   1      16.408  38.734 -77.710  0.00  0.00    -0.212 NA
ATOM     19  C3  LIR d   1      17.529  39.378 -78.413  0.00  0.00     0.160 A 
ATOM     20  C4  LIR d   1      18.931  39.753 -78.219  0.00  0.00     0.281 A 
ATOM     21  C2  LIR d   1      17.155  39.762 -79.601  0.00  0.00     0.141 A 
ATOM     22  N5  LIR d   1      19.306  40.351 -79.379  0.00  0.00    -0.282 N 
ATOM     23  O10 LIR d   1      19.610  39.540 -77.235  0.00  0.00    -0.265 OA
ATOM     24  C1  LIR d   1      18.279  40.422 -80.270  0.00  0.00     0.279 A 
ATOM     25  O9  LIR d   1      18.293  40.899 -81.397  0.00  0.00    -0.265 OA
BRANCH  17  26
ATOM     26  N12 LIR d   1      14.061  38.314 -78.414  0.00  0.00    -0.251 NA
ATOM     27  C13 LIR d   1      13.964  36.911 -78.817  0.00  0.00     0.013 C 
ATOM     28  C14 LIR d   1      12.558  36.370 -78.680  0.00  0.00     0.111 C 
ATOM     29  H1  LIR d   1      14.636  36.314 -78.183  0.00  0.00     0.059 H 
ATOM     30  H2  LIR d   1      14.276  36.822 -79.868  0.00  0.00     0.059 H 
ATOM     31  C15 LIR d   1      12.048  36.567 -77.241  0.00  0.00    -0.036 C 
ATOM     32  H13 LIR d   1      11.887  36.925 -79.352  0.00  0.00     0.085 H 
ATOM     33  C16 LIR d   1      12.076  38.071 -76.913  0.00  0.00    -0.052 C 
ATOM     34  H3  LIR d   1      12.697  36.022 -76.540  0.00  0.00     0.036 H 
ATOM     35  H4  LIR d   1      11.019  36.188 -77.157  0.00  0.00     0.036 H 
ATOM     36  C17 LIR d   1      13.532  38.586 -77.046  0.00  0.00    -0.014 C 
ATOM     37  H14 LIR d   1      11.720  38.231 -75.885  0.00  0.00     0.034 H 
ATOM     38  H15 LIR d   1      11.427  38.614 -77.615  0.00  0.00     0.034 H 
ATOM     39  H5  LIR d   1      13.551  39.670 -76.860  0.00  0.00     0.056 H 
ATOM     40  H6  LIR d   1      14.165  38.076 -76.305  0.00  0.00     0.056 H 
BRANCH  28  41
ATOM     41  N18 LIR d   1      12.609  34.978 -79.123  0.00  0.00    -0.074 N 
ATOM     42  H16 LIR d   1      12.952  34.939 -80.070  0.00  0.00     0.274 HD
ATOM     43  H17 LIR d   1      11.684  34.579 -79.084  0.00  0.00     0.274 HD
ATOM     44  H18 LIR d   1      13.226  34.456 -78.521  0.00  0.00     0.274 HD
ENDBRANCH  28  41
ENDBRANCH  17  26
BRANCH  22  45
ATOM     45  C11 LIR d   1      20.641  40.895 -79.624  0.00  0.00    -0.008 C 
ATOM     46  H10 LIR d   1      21.280  40.706 -78.749  0.00  0.00     0.057 H 
ATOM     47  H11 LIR d   1      20.569  41.979 -79.798  0.00  0.00     0.057 H 
ATOM     48  H12 LIR d   1      21.078  40.410 -80.509  0.00  0.00     0.057 H 
ENDBRANCH  22  45
ENDBRANCH  13  16
ENDBRANCH   1  13
TORSDOF 5
