REMARK  13 active torsions:
REMARK  status: ('A' for Active; 'I' for Inactive)
REMARK    1  A    between atoms: S1_1  and  C2_2 
REMARK    2  A    between atoms: S1_1  and  N11_11 
REMARK    3  A    between atoms: C5_5  and  C8_8 
REMARK    4  A    between atoms: C6_6  and  C10_10 
REMARK    5  A    between atoms: C14_14  and  C17_17 
REMARK    6  A    between atoms: C14_14  and  C18_18 
REMARK       I    between atoms: C17_17  and  N20_20 
REMARK    7  A    between atoms: C18_18  and  S21_21 
REMARK    8  A    between atoms: N20_20  and  O35_35 
REMARK    9  A    between atoms: S21_21  and  C24_24 
REMARK   10  A    between atoms: C27_27  and  O30_30 
REMARK   11  A    between atoms: O30_30  and  C31_31 
REMARK   12  A    between atoms: C31_31  and  C32_32 
REMARK   13  A    between atoms: C33_33  and  C34_34 
ROOT
ATOM      1  N11 NON d   1      21.206  64.014   8.391  0.00  0.00    -0.307 N 
ATOM      2  C12 NON d   1      22.138  64.440   9.435  0.00  0.00     0.006 C 
ATOM      3  C13 NON d   1      23.326  65.206   8.825  0.00  0.00    -0.033 C 
ATOM      4  C14 NON d   1      23.983  64.520   7.587  0.00  0.00     0.059 C 
ATOM      5  C15 NON d   1      22.926  63.926   6.588  0.00  0.00    -0.033 C 
ATOM      6  C16 NON d   1      21.735  63.221   7.271  0.00  0.00     0.006 C 
ATOM      7  H7  NON d   1      22.515  63.554   9.966  0.00  0.00     0.065 H 
ATOM      8  H8  NON d   1      21.611  65.096  10.144  0.00  0.00     0.065 H 
ATOM      9  H9  NON d   1      24.096  65.318   9.602  0.00  0.00     0.037 H 
ATOM     10  H10 NON d   1      22.970  66.200   8.516  0.00  0.00     0.037 H 
ATOM     11  H11 NON d   1      23.435  63.195   5.942  0.00  0.00     0.037 H 
ATOM     12  H12 NON d   1      22.533  64.749   5.973  0.00  0.00     0.037 H 
ATOM     13  H13 NON d   1      20.936  63.072   6.530  0.00  0.00     0.065 H 
ATOM     14  H14 NON d   1      22.069  62.244   7.651  0.00  0.00     0.065 H 
ENDROOT
BRANCH   4  15
ATOM     15  C17 NON d   1      24.965  63.447   8.114  0.00  0.00     0.250 C 
ATOM     16  O19 NON d   1      25.733  63.725   9.029  0.00  0.00    -0.271 OA
ATOM     17  N20 NON d   1      24.920  62.245   7.506  0.00  0.00    -0.237 N 
ATOM     18  H17 NON d   1      24.269  62.093   6.762  0.00  0.00     0.197 HD
BRANCH  17  19
ATOM     19  O35 NON d   1      25.750  61.232   7.891  0.00  0.00    -0.287 OA
ATOM     20  H27 NON d   1      25.580  60.465   7.357  0.00  0.00     0.244 HD
ENDBRANCH  17  19
ENDBRANCH   4  15
BRANCH   4  21
ATOM     21  C18 NON d   1      24.800  65.651   6.980  0.00  0.00     0.048 C 
ATOM     22  H15 NON d   1      25.593  65.868   7.710  0.00  0.00     0.058 H 
ATOM     23  H16 NON d   1      24.115  66.510   6.917  0.00  0.00     0.058 H 
BRANCH  21  24
ATOM     24  S21 NON d   1      25.607  65.572   5.413  0.00  0.00     0.176 S 
ATOM     25  O22 NON d   1      25.692  66.940   5.003  0.00  0.00    -0.223 OA
ATOM     26  O23 NON d   1      24.845  64.710   4.554  0.00  0.00    -0.223 OA
BRANCH  24  27
ATOM     27  C24 NON d   1      27.276  64.997   5.512  0.00  0.00     0.059 A 
ATOM     28  C25 NON d   1      27.663  63.812   4.805  0.00  0.00    -0.059 A 
ATOM     29  C26 NON d   1      29.019  63.376   4.871  0.00  0.00    -0.049 A 
ATOM     30  H18 NON d   1      26.934  63.254   4.228  0.00  0.00     0.085 H 
ATOM     31  C27 NON d   1      29.965  64.117   5.645  0.00  0.00     0.070 A 
ATOM     32  H19 NON d   1      29.331  62.486   4.336  0.00  0.00     0.087 H 
ATOM     33  C28 NON d   1      29.560  65.309   6.362  0.00  0.00    -0.049 A 
ATOM     34  C29 NON d   1      28.208  65.746   6.297  0.00  0.00    -0.059 A 
ATOM     35  H20 NON d   1      30.284  65.865   6.946  0.00  0.00     0.087 H 
ATOM     36  H21 NON d   1      27.889  66.632   6.834  0.00  0.00     0.085 H 
BRANCH  31  37
ATOM     37  O30 NON d   1      31.289  63.624   5.652  0.00  0.00    -0.340 OA
BRANCH  37  38
ATOM     38  C31 NON d   1      32.394  64.568   5.608  0.00  0.00     0.080 C 
ATOM     39  H22 NON d   1      33.327  64.031   5.835  0.00  0.00     0.094 H 
ATOM     40  H23 NON d   1      32.224  65.345   6.367  0.00  0.00     0.094 H 
BRANCH  38  41
ATOM     41  C32 NON d   1      32.531  65.218   4.286  0.00  0.00    -0.080 C 
ATOM     42  C33 NON d   1      32.624  65.785   3.229  0.00  0.00    -0.109 C 
BRANCH  42  43
ATOM     43  C34 NON d   1      32.782  66.427   1.937  0.00  0.00    -0.021 C 
ATOM     44  H24 NON d   1      32.087  67.276   1.862  0.00  0.00     0.044 H 
ATOM     45  H25 NON d   1      32.564  65.703   1.139  0.00  0.00     0.044 H 
ATOM     46  H26 NON d   1      33.815  66.789   1.831  0.00  0.00     0.044 H 
ENDBRANCH  42  43
ENDBRANCH  38  41
ENDBRANCH  37  38
ENDBRANCH  31  37
ENDBRANCH  24  27
ENDBRANCH  21  24
ENDBRANCH   4  21
BRANCH   1  47
ATOM     47  S1  NON d   1      19.615  64.416   8.456  0.00  0.00     0.265 S 
ATOM     48  O3  NON d   1      19.304  65.195   9.614  0.00  0.00    -0.200 OA
ATOM     49  O4  NON d   1      19.239  65.024   7.196  0.00  0.00    -0.200 OA
BRANCH  47  50
ATOM     50  C2  NON d   1      18.836  62.909   8.680  0.00  0.00     0.137 A 
ATOM     51  C5  NON d   1      17.909  62.275   7.853  0.00  0.00     0.084 A 
ATOM     52  N7  NON d   1      17.587  61.099   8.463  0.00  0.00    -0.132 NA
ATOM     53  O9  NON d   1      18.248  60.978   9.591  0.00  0.00    -0.216 OA
ATOM     54  C6  NON d   1      19.033  62.060   9.778  0.00  0.00     0.100 A 
BRANCH  51  55
ATOM     55  C8  NON d   1      17.337  62.707   6.573  0.00  0.00    -0.032 C 
ATOM     56  H1  NON d   1      16.634  61.944   6.210  0.00  0.00     0.035 H 
ATOM     57  H2  NON d   1      18.144  62.842   5.838  0.00  0.00     0.035 H 
ATOM     58  H3  NON d   1      16.805  63.660   6.712  0.00  0.00     0.035 H 
ENDBRANCH  51  55
BRANCH  54  59
ATOM     59  C10 NON d   1      19.897  62.215  10.962  0.00  0.00    -0.028 C 
ATOM     60  H4  NON d   1      19.786  61.336  11.614  0.00  0.00     0.036 H 
ATOM     61  H5  NON d   1      19.604  63.120  11.514  0.00  0.00     0.036 H 
ATOM     62  H6  NON d   1      20.946  62.304  10.642  0.00  0.00     0.036 H 
ENDBRANCH  54  59
ENDBRANCH  47  50
ENDBRANCH   1  47
TORSDOF 13
