REMARK  17 active torsions:
REMARK  status: ('A' for Active; 'I' for Inactive)
REMARK    1  A    between atoms: CAB_1  and  CAO_2 
REMARK    2  A    between atoms: CAO_2  and  CBG_3 
REMARK    3  A    between atoms: CBG_3  and  CAZ_4 
REMARK    4  A    between atoms: CBG_3  and  CAC_7 
REMARK    5  A    between atoms: CBG_3  and  OAX_8 
REMARK    6  A    between atoms: OAX_8  and  CBB_9 
REMARK    7  A    between atoms: CBA_14  and  CAT_15 
REMARK    8  A    between atoms: CAT_15  and  CAV_16 
REMARK    9  A    between atoms: CAV_16  and  NBF_17 
REMARK   10  A    between atoms: NBF_17  and  CAU_18 
REMARK   11  A    between atoms: NBF_17  and  CBC_25 
REMARK   12  A    between atoms: CAU_18  and  CAS_19 
REMARK   13  A    between atoms: CAS_19  and  CAR_20 
REMARK   14  A    between atoms: CAR_20  and  CAQ_21 
REMARK   15  A    between atoms: CAQ_21  and  CAP_22 
REMARK   16  A    between atoms: CAP_22  and  CAN_23 
REMARK   17  A    between atoms: CAN_23  and  CAA_24 
ROOT
ATOM      1  NBF DRH d   1      14.850  15.834  13.370  0.00  0.00    -0.345 N 
ENDROOT
BRANCH   1   2
ATOM      2  CAV DRH d   1      15.521  14.704  14.044  0.00  0.00     0.002 C 
ATOM      3  H15 DRH d   1      15.309  14.777  15.121  0.00  0.00     0.064 H 
ATOM      4  H16 DRH d   1      15.094  13.771  13.648  0.00  0.00     0.064 H 
BRANCH   2   5
ATOM      5  CAT DRH d   1      17.037  14.642  13.865  0.00  0.00    -0.026 C 
ATOM      6  H13 DRH d   1      17.363  13.609  14.058  0.00  0.00     0.042 H 
ATOM      7  H14 DRH d   1      17.270  14.911  12.824  0.00  0.00     0.042 H 
BRANCH   5   8
ATOM      8  CBA DRH d   1      17.835  15.578  14.793  0.00  0.00    -0.057 A 
ATOM      9  CAI DRH d   1      17.564  15.626  16.151  0.00  0.00    -0.074 A 
ATOM     10  CAK DRH d   1      18.343  16.441  16.985  0.00  0.00    -0.050 A 
ATOM     11  H10 DRH d   1      16.754  15.037  16.566  0.00  0.00     0.084 H 
ATOM     12  CBB DRH d   1      19.390  17.184  16.465  0.00  0.00     0.070 A 
ATOM     13  H9  DRH d   1      18.124  16.490  18.046  0.00  0.00     0.087 H 
ATOM     14  CAJ DRH d   1      19.649  17.136  15.104  0.00  0.00    -0.050 A 
ATOM     15  CAH DRH d   1      18.873  16.323  14.266  0.00  0.00    -0.074 A 
ATOM     16  H11 DRH d   1      20.454  17.729  14.686  0.00  0.00     0.087 H 
ATOM     17  H12 DRH d   1      19.087  16.279  13.204  0.00  0.00     0.084 H 
BRANCH  12  18
ATOM     18  OAX DRH d   1      20.217  17.938  17.256  0.00  0.00    -0.330 OA
BRANCH  18  19
ATOM     19  CBG DRH d   1      19.809  18.716  18.392  0.00  0.00     0.151 C 
BRANCH  19  20
ATOM     20  CAO DRH d   1      19.055  19.969  17.936  0.00  0.00    -0.029 C 
ATOM     21  H4  DRH d   1      18.243  19.664  17.260  0.00  0.00     0.037 H 
ATOM     22  H5  DRH d   1      18.629  20.465  18.821  0.00  0.00     0.037 H 
BRANCH  20  23
ATOM     23  CAB DRH d   1      19.957  20.967  17.201  0.00  0.00    -0.073 C 
ATOM     24  H1  DRH d   1      19.364  21.843  16.898  0.00  0.00     0.027 H 
ATOM     25  H2  DRH d   1      20.384  20.487  16.308  0.00  0.00     0.027 H 
ATOM     26  H3  DRH d   1      20.770  21.287  17.869  0.00  0.00     0.027 H 
ENDBRANCH  20  23
ENDBRANCH  19  20
BRANCH  19  27
ATOM     27  CAZ DRH d   1      18.936  17.933  19.380  0.00  0.00     0.209 C 
ATOM     28  OAE DRH d   1      19.404  17.692  20.503  0.00  0.00    -0.646 OA
ATOM     29  OAD DRH d   1      17.779  17.612  18.995  0.00  0.00    -0.646 OA
ENDBRANCH  19  27
BRANCH  19  30
ATOM     30  CAC DRH d   1      21.094  19.113  19.123  0.00  0.00    -0.037 C 
ATOM     31  H6  DRH d   1      21.627  18.207  19.446  0.00  0.00     0.032 H 
ATOM     32  H7  DRH d   1      20.842  19.723  20.003  0.00  0.00     0.032 H 
ATOM     33  H8  DRH d   1      21.736  19.695  18.446  0.00  0.00     0.032 H 
ENDBRANCH  19  30
ENDBRANCH  18  19
ENDBRANCH  12  18
ENDBRANCH   5   8
ENDBRANCH   2   5
ENDBRANCH   1   2
BRANCH   1  34
ATOM     34  CAU DRH d   1      13.390  15.775  13.208  0.00  0.00    -0.002 C 
ATOM     35  H17 DRH d   1      13.155  15.167  12.322  0.00  0.00     0.064 H 
ATOM     36  H18 DRH d   1      13.007  16.796  13.064  0.00  0.00     0.064 H 
BRANCH  34  37
ATOM     37  CAS DRH d   1      12.702  15.156  14.428  0.00  0.00    -0.050 C 
ATOM     38  H19 DRH d   1      12.746  15.867  15.267  0.00  0.00     0.035 H 
ATOM     39  H20 DRH d   1      13.225  14.229  14.706  0.00  0.00     0.035 H 
BRANCH  37  40
ATOM     40  CAR DRH d   1      11.242  14.835  14.119  0.00  0.00    -0.064 C 
ATOM     41  H21 DRH d   1      11.186  14.073  13.327  0.00  0.00     0.033 H 
ATOM     42  H22 DRH d   1      10.721  15.746  13.789  0.00  0.00     0.033 H 
BRANCH  40  43
ATOM     43  CAQ DRH d   1      10.597  14.302  15.400  0.00  0.00    -0.065 C 
ATOM     44  H23 DRH d   1      10.592  15.105  16.151  0.00  0.00     0.033 H 
ATOM     45  H24 DRH d   1      11.197  13.458  15.770  0.00  0.00     0.033 H 
BRANCH  43  46
ATOM     46  CAP DRH d   1       9.161  13.824  15.188  0.00  0.00    -0.065 C 
ATOM     47  H25 DRH d   1       9.161  12.957  14.511  0.00  0.00     0.033 H 
ATOM     48  H26 DRH d   1       8.567  14.637  14.744  0.00  0.00     0.033 H 
BRANCH  46  49
ATOM     49  CAN DRH d   1       8.548  13.421  16.527  0.00  0.00    -0.069 C 
ATOM     50  H27 DRH d   1       7.553  12.987  16.348  0.00  0.00     0.032 H 
ATOM     51  H28 DRH d   1       8.449  14.316  17.159  0.00  0.00     0.032 H 
BRANCH  49  52
ATOM     52  CAA DRH d   1       9.418  12.389  17.258  0.00  0.00    -0.077 C 
ATOM     53  H29 DRH d   1       8.946  12.124  18.215  0.00  0.00     0.027 H 
ATOM     54  H30 DRH d   1      10.414  12.816  17.446  0.00  0.00     0.027 H 
ATOM     55  H31 DRH d   1       9.518  11.487  16.636  0.00  0.00     0.027 H 
ENDBRANCH  49  52
ENDBRANCH  46  49
ENDBRANCH  43  46
ENDBRANCH  40  43
ENDBRANCH  37  40
ENDBRANCH  34  37
ENDBRANCH   1  34
BRANCH   1  56
ATOM     56  CBC DRH d   1      15.470  16.713  12.587  0.00  0.00     0.250 A 
ATOM     57  OAY DRH d   1      16.754  16.614  12.114  0.00  0.00    -0.276 OA
ATOM     58  CBE DRH d   1      16.890  17.619  11.197  0.00  0.00     0.108 A 
ATOM     59  CAM DRH d   1      17.928  17.998  10.362  0.00  0.00    -0.048 A 
ATOM     60  CBD DRH d   1      15.676  18.310  11.155  0.00  0.00     0.095 A 
ATOM     61  CAG DRH d   1      17.764  19.065   9.483  0.00  0.00    -0.080 A 
ATOM     62  H32 DRH d   1      18.870  17.463  10.393  0.00  0.00     0.087 H 
ATOM     63  CAF DRH d   1      16.551  19.759   9.443  0.00  0.00    -0.081 A 
ATOM     64  H33 DRH d   1      18.577  19.358   8.829  0.00  0.00     0.083 H 
ATOM     65  CAL DRH d   1      15.513  19.378  10.280  0.00  0.00    -0.052 A 
ATOM     66  H34 DRH d   1      16.422  20.591   8.761  0.00  0.00     0.083 H 
ATOM     67  H35 DRH d   1      14.572  19.915  10.252  0.00  0.00     0.087 H 
ATOM     68  NAW DRH d   1      14.844  17.731  12.015  0.00  0.00    -0.206 NA
ENDBRANCH   1  56
TORSDOF 17
