REMARK  6 active torsions:
REMARK  status: ('A' for Active; 'I' for Inactive)
REMARK    1  A    between atoms: C6_4  and  N6_10 
REMARK    2  A    between atoms: C1'_19  and  C9_5 
REMARK    3  A    between atoms: C5'_12  and  O5'_11 
REMARK    4  A    between atoms: C4'_13  and  C5'_12 
REMARK    5  A    between atoms: C3'_15  and  O3'_16 
REMARK    6  A    between atoms: C2'_17  and  O2'_18 
ROOT
ATOM      1  C4' NON d   1     -84.056  20.022  18.345  0.00  0.00     0.149 C 
ATOM      2  N4' NON d   1     -84.815  19.354  19.416  0.00  0.00    -0.055 N 
ATOM      3  C3' NON d   1     -83.218  18.954  17.710  0.00  0.00     0.092 C 
ATOM      4  C2' NON d   1     -83.752  17.642  18.325  0.00  0.00     0.094 C 
ATOM      5  C1' NON d   1     -84.868  17.905  19.373  0.00  0.00     0.158 C 
ATOM      6  H9  NON d   1     -83.404  20.781  18.802  0.00  0.00     0.091 H 
ATOM      7  H10 NON d   1     -85.763  19.695  19.377  0.00  0.00     0.278 HD
ATOM      8  H11 NON d   1     -84.399  19.618  20.295  0.00  0.00     0.278 HD
ATOM      9  H12 NON d   1     -83.278  18.936  16.612  0.00  0.00     0.090 H 
ATOM     10  H14 NON d   1     -84.108  16.957  17.541  0.00  0.00     0.090 H 
ATOM     11  H16 NON d   1     -84.591  17.437  20.329  0.00  0.00     0.096 H 
ENDROOT
BRANCH   5  12
ATOM     12  C9  NON d   1     -86.315  17.572  19.079  0.00  0.00     0.021 A 
ATOM     13  C4  NON d   1     -86.871  16.887  17.984  0.00  0.00     0.098 A 
ATOM     14  C5  NON d   1     -88.260  16.879  18.148  0.00  0.00     0.107 A 
ATOM     15  N3  NON d   1     -86.289  16.306  16.902  0.00  0.00    -0.239 NA
ATOM     16  C6  NON d   1     -89.045  16.233  17.133  0.00  0.00     0.151 A 
ATOM     17  N7  NON d   1     -88.500  17.565  19.334  0.00  0.00    -0.360 N 
ATOM     18  N1  NON d   1     -88.439  15.637  16.089  0.00  0.00    -0.223 NA
ATOM     19  C2  NON d   1     -87.097  15.705  15.995  0.00  0.00     0.089 A 
ATOM     20  H1  NON d   1     -86.629  15.246  15.132  0.00  0.00     0.146 H 
ATOM     21  C8  NON d   1     -87.334  17.995  19.919  0.00  0.00    -0.012 A 
ATOM     22  H3  NON d   1     -89.438  17.730  19.726  0.00  0.00     0.165 HD
ATOM     23  H2  NON d   1     -87.231  18.552  20.849  0.00  0.00     0.112 H 
BRANCH  16  24
ATOM     24  N6  NON d   1     -90.391  16.166  17.127  0.00  0.00    -0.382 N 
ATOM     25  H4  NON d   1     -90.879  15.683  16.360  0.00  0.00     0.157 HD
ATOM     26  H5  NON d   1     -90.932  16.598  17.890  0.00  0.00     0.157 HD
ENDBRANCH  16  24
ENDBRANCH   5  12
BRANCH   4  27
ATOM     27  O2' NON d   1     -82.648  17.098  19.056  0.00  0.00    -0.390 OA
ATOM     28  H15 NON d   1     -81.924  16.938  18.462  0.00  0.00     0.210 HD
ENDBRANCH   4  27
BRANCH   1  29
ATOM     29  C5' NON d   1     -84.888  20.708  17.284  0.00  0.00     0.046 C 
ATOM     30  H7  NON d   1     -84.873  21.794  17.456  0.00  0.00     0.077 H 
ATOM     31  H8  NON d   1     -84.466  20.488  16.292  0.00  0.00     0.077 H 
BRANCH  29  32
ATOM     32  O5' NON d   1     -86.204  20.250  17.338  0.00  0.00    -0.399 OA
ATOM     33  H6  NON d   1     -86.718  20.686  16.669  0.00  0.00     0.209 HD
ENDBRANCH  29  32
ENDBRANCH   1  29
BRANCH   3  34
ATOM     34  O3' NON d   1     -81.903  19.307  18.168  0.00  0.00    -0.391 OA
ATOM     35  H13 NON d   1     -81.271  18.687  17.822  0.00  0.00     0.210 HD
ENDBRANCH   3  34
TORSDOF 6
