REMARK  11 active torsions:
REMARK  status: ('A' for Active; 'I' for Inactive)
REMARK    1  A    between atoms: P6_2  and  O16_5 
REMARK    2  A    between atoms: O16_5  and  C6_6 
REMARK    3  A    between atoms: C1_7  and  O11_8 
REMARK    4  A    between atoms: O11_8  and  P1_9 
REMARK    5  A    between atoms: C5_13  and  O15_14 
REMARK    6  A    between atoms: O15_14  and  P5_15 
REMARK    7  A    between atoms: C4_19  and  O14_20 
REMARK    8  A    between atoms: C3_21  and  O13_22 
REMARK    9  A    between atoms: O13_22  and  P3_23 
REMARK   10  A    between atoms: C2_27  and  O12_28 
REMARK   11  A    between atoms: O12_28  and  P2_29 
ROOT
ATOM      1  C6  5IP d   1       5.547 -13.117  -3.569  0.00  0.00     0.107 C 
ATOM      2  C1  5IP d   1       6.311 -13.407  -4.819  0.00  0.00     0.107 C 
ATOM      3  C5  5IP d   1       4.327 -13.974  -3.436  0.00  0.00     0.106 C 
ATOM      4  C4  5IP d   1       3.424 -14.571  -4.655  0.00  0.00     0.091 C 
ATOM      5  C3  5IP d   1       4.319 -15.239  -5.647  0.00  0.00     0.106 C 
ATOM      6  C2  5IP d   1       5.591 -14.339  -5.860  0.00  0.00     0.107 C 
ATOM      7  H1  5IP d   1       5.238 -12.061  -3.563  0.00  0.00     0.092 H 
ATOM      8  H2  5IP d   1       6.383 -12.449  -5.354  0.00  0.00     0.092 H 
ATOM      9  H3  5IP d   1       4.792 -14.893  -3.049  0.00  0.00     0.092 H 
ATOM     10  H4  5IP d   1       2.843 -13.758  -5.115  0.00  0.00     0.091 H 
ATOM     11  H6  5IP d   1       4.644 -16.233  -5.305  0.00  0.00     0.092 H 
ATOM     12  H7  5IP d   1       6.319 -14.928  -6.437  0.00  0.00     0.092 H 
ENDROOT
BRANCH   1  13
ATOM     13  O16 5IP d   1       6.480 -13.375  -2.452  0.00  0.00    -0.272 OA
BRANCH  13  14
ATOM     14  P6  5IP d   1       6.746 -11.994  -1.593  0.00  0.00     0.422 P 
ATOM     15  O46 5IP d   1       8.238 -12.118  -1.122  0.00  0.00    -0.617 OA
ATOM     16  O26 5IP d   1       6.061 -11.981  -0.215  0.00  0.00    -0.617 OA
ATOM     17  O36 5IP d   1       6.532 -10.889  -2.723  0.00  0.00    -0.617 OA
ENDBRANCH  13  14
ENDBRANCH   1  13
BRANCH   2  18
ATOM     18  O11 5IP d   1       7.652 -13.694  -4.398  0.00  0.00    -0.272 OA
BRANCH  18  19
ATOM     19  P1  5IP d   1       9.193 -13.679  -4.938  0.00  0.00     0.422 P 
ATOM     20  O41 5IP d   1       9.183 -14.852  -5.903  0.00  0.00    -0.617 OA
ATOM     21  O31 5IP d   1       9.524 -12.336  -5.569  0.00  0.00    -0.617 OA
ATOM     22  O21 5IP d   1       9.853 -13.886  -3.582  0.00  0.00    -0.617 OA
ENDBRANCH  18  19
ENDBRANCH   2  18
BRANCH   3  23
ATOM     23  O15 5IP d   1       3.510 -13.633  -2.490  0.00  0.00    -0.272 OA
BRANCH  23  24
ATOM     24  P5  5IP d   1       3.121 -14.300  -1.076  0.00  0.00     0.422 P 
ATOM     25  O45 5IP d   1       2.521 -15.697  -1.035  0.00  0.00    -0.617 OA
ATOM     26  O35 5IP d   1       2.325 -13.016  -0.997  0.00  0.00    -0.617 OA
ATOM     27  O25 5IP d   1       4.741 -14.112  -0.115  0.00  0.00    -0.617 OA
ENDBRANCH  23  24
ENDBRANCH   3  23
BRANCH   6  28
ATOM     28  O12 5IP d   1       5.166 -13.155  -6.436  0.00  0.00    -0.272 OA
BRANCH  28  29
ATOM     29  P2  5IP d   1       5.763 -12.879  -7.890  0.00  0.00     0.422 P 
ATOM     30  O22 5IP d   1       7.181 -12.303  -7.958  0.00  0.00    -0.617 OA
ATOM     31  O32 5IP d   1       5.882 -14.227  -8.634  0.00  0.00    -0.617 OA
ATOM     32  O42 5IP d   1       4.683 -11.919  -8.471  0.00  0.00    -0.617 OA
ENDBRANCH  28  29
ENDBRANCH   6  28
BRANCH   4  33
ATOM     33  O14 5IP d   1       2.527 -15.690  -4.222  0.00  0.00    -0.390 OA
ATOM     34  H5  5IP d   1       2.026 -15.999  -4.968  0.00  0.00     0.210 HD
ENDBRANCH   4  33
BRANCH   5  35
ATOM     35  O13 5IP d   1       3.412 -15.367  -6.774  0.00  0.00    -0.272 OA
BRANCH  35  36
ATOM     36  P3  5IP d   1       3.723 -16.332  -8.005  0.00  0.00     0.422 P 
ATOM     37  O43 5IP d   1       3.686 -15.528  -9.289  0.00  0.00    -0.617 OA
ATOM     38  O33 5IP d   1       5.045 -17.037  -7.694  0.00  0.00    -0.617 OA
ATOM     39  O23 5IP d   1       2.467 -17.193  -7.836  0.00  0.00    -0.617 OA
ENDBRANCH  35  36
ENDBRANCH   5  35
TORSDOF 11
