REMARK  8 active torsions:
REMARK  status: ('A' for Active; 'I' for Inactive)
REMARK    1  A    between atoms: N2_2  and  N1_1 
REMARK    2  A    between atoms: N1_1  and  C11_7 
REMARK       I    between atoms: C3_3  and  N2_2 
REMARK    3  A    between atoms: C1'_20  and  C3_3 
REMARK    4  A    between atoms: C4'_23  and  OH3_5 
REMARK    5  A    between atoms: C3'_22  and  OH4_6 
REMARK    6  A    between atoms: C11_7  and  C12_8 
REMARK    7  A    between atoms: C13_9  and  O13_10 
REMARK    8  A    between atoms: O13_10  and  C10_19 
ROOT
ATOM      1  C12 K05 d   1      46.119 -25.624  15.651  0.00  0.00     0.008 A 
ATOM      2  C13 K05 d   1      45.232 -24.694  14.847  0.00  0.00     0.077 A 
ATOM      3  C14 K05 d   1      44.588 -25.198  13.568  0.00  0.00    -0.049 A 
ATOM      4  C15 K05 d   1      44.819 -26.527  13.079  0.00  0.00    -0.070 A 
ATOM      5  C25 K05 d   1      45.658 -27.440  13.826  0.00  0.00    -0.025 A 
ATOM      6  C16 K05 d   1      45.881 -28.803  13.301  0.00  0.00    -0.072 A 
ATOM      7  C17 K05 d   1      46.731 -29.734  14.041  0.00  0.00    -0.082 A 
ATOM      8  C18 K05 d   1      47.371 -29.283  15.284  0.00  0.00    -0.082 A 
ATOM      9  C19 K05 d   1      47.196 -27.952  15.858  0.00  0.00    -0.072 A 
ATOM     10  C29 K05 d   1      46.366 -26.991  15.159  0.00  0.00    -0.015 A 
ATOM     11  H5  K05 d   1      43.936 -24.536  13.009  0.00  0.00     0.087 H 
ATOM     12  H6  K05 d   1      44.364 -26.848  12.149  0.00  0.00     0.085 H 
ATOM     13  H7  K05 d   1      45.416 -29.111  12.371  0.00  0.00     0.084 H 
ATOM     14  H8  K05 d   1      46.887 -30.743  13.678  0.00  0.00     0.083 H 
ATOM     15  H9  K05 d   1      48.013 -29.982  15.808  0.00  0.00     0.083 H 
ATOM     16  H10 K05 d   1      47.679 -27.687  16.792  0.00  0.00     0.084 H 
ENDROOT
BRANCH   1  17
ATOM     17  C11 K05 d   1      46.673 -25.038  16.866  0.00  0.00     0.061 C 
ATOM     18  H3  K05 d   1      47.765 -25.113  16.758  0.00  0.00     0.077 H 
ATOM     19  H4  K05 d   1      46.374 -23.980  16.846  0.00  0.00     0.077 H 
BRANCH  17  20
ATOM     20  N1  K05 d   1      46.400 -25.472  18.136  0.00  0.00    -0.186 NA
BRANCH  20  21
ATOM     21  N2  K05 d   1      46.978 -24.794  19.068  0.00  0.00    -0.126 NA
ATOM     22  C3  K05 d   1      46.411 -24.761  20.447  0.00  0.00     0.230 C 
ATOM     23  O3  K05 d   1      45.157 -25.528  20.772  0.00  0.00    -0.168 OA
BRANCH  22  24
ATOM     24  C1' K05 d   1      47.086 -23.969  21.475  0.00  0.00     0.024 A 
ATOM     25  C2' K05 d   1      48.138 -22.960  21.187  0.00  0.00    -0.034 A 
ATOM     26  C3' K05 d   1      48.747 -22.216  22.327  0.00  0.00     0.099 A 
ATOM     27  H14 K05 d   1      48.456 -22.768  20.169  0.00  0.00     0.089 H 
ATOM     28  C4' K05 d   1      48.341 -22.458  23.690  0.00  0.00     0.098 A 
ATOM     29  C5' K05 d   1      47.301 -23.451  23.986  0.00  0.00    -0.047 A 
ATOM     30  C6' K05 d   1      46.704 -24.178  22.893  0.00  0.00    -0.066 A 
ATOM     31  H15 K05 d   1      46.988 -23.634  25.007  0.00  0.00     0.087 H 
ATOM     32  H16 K05 d   1      45.939 -24.913  23.119  0.00  0.00     0.085 H 
BRANCH  26  33
ATOM     33  OH4 K05 d   1      49.712 -21.279  22.155  0.00  0.00    -0.358 OA
ATOM     34  H2  K05 d   1      49.963 -20.926  23.000  0.00  0.00     0.217 HD
ENDBRANCH  26  33
BRANCH  28  35
ATOM     35  OH3 K05 d   1      48.955 -21.731  24.673  0.00  0.00    -0.358 OA
ATOM     36  H1  K05 d   1      49.889 -21.902  24.655  0.00  0.00     0.217 HD
ENDBRANCH  28  35
ENDBRANCH  22  24
ENDBRANCH  20  21
ENDBRANCH  17  20
ENDBRANCH   1  17
BRANCH   2  37
ATOM     37  O13 K05 d   1      45.050 -23.424  15.373  0.00  0.00    -0.355 OA
BRANCH  37  38
ATOM     38  C10 K05 d   1      44.254 -22.420  14.770  0.00  0.00     0.010 C 
ATOM     39  H11 K05 d   1      44.279 -21.511  15.389  0.00  0.00     0.066 H 
ATOM     40  H12 K05 d   1      43.217 -22.777  14.684  0.00  0.00     0.066 H 
ATOM     41  H13 K05 d   1      44.648 -22.192  13.768  0.00  0.00     0.066 H 
ENDBRANCH  37  38
ENDBRANCH   2  37
TORSDOF 8
