REMARK  5 active torsions:
REMARK  status: ('A' for Active; 'I' for Inactive)
REMARK    1  A    between atoms: C1_2  and  N4_11 
REMARK    2  A    between atoms: C9_14  and  N3_9 
REMARK    3  A    between atoms: C7_12  and  O2_17 
REMARK    4  A    between atoms: C8_13  and  O1_18 
REMARK    5  A    between atoms: C10_16  and  C11_19 
ROOT
ATOM      1  C7  5I5 d   1       8.015 -16.455  21.747  0.00  0.00     0.089 C 
ATOM      2  C8  5I5 d   1       7.610 -17.929  21.538  0.00  0.00     0.105 C 
ATOM      3  C9  5I5 d   1       8.967 -18.627  21.466  0.00  0.00     0.138 C 
ATOM      4  O3  5I5 d   1       9.650 -17.992  22.508  0.00  0.00    -0.356 OA
ATOM      5  C10 5I5 d   1       9.402 -16.602  22.411  0.00  0.00     0.065 C 
ATOM      6  H5  5I5 d   1       7.309 -15.909  22.391  0.00  0.00     0.091 H 
ATOM      7  H6  5I5 d   1       7.051 -18.299  22.410  0.00  0.00     0.093 H 
ATOM      8  H7  5I5 d   1       9.474 -18.451  20.506  0.00  0.00     0.122 H 
ATOM      9  H8  5I5 d   1      10.165 -16.130  21.774  0.00  0.00     0.086 H 
ENDROOT
BRANCH   3  10
ATOM     10  N3  5I5 d   1       8.752 -20.079  21.646  0.00  0.00    -0.310 N 
ATOM     11  C3  5I5 d   1       8.959 -21.067  20.670  0.00  0.00     0.148 A 
ATOM     12  C2  5I5 d   1       8.567 -22.324  21.216  0.00  0.00     0.073 A 
ATOM     13  N2  5I5 d   1       9.436 -20.948  19.408  0.00  0.00    -0.223 NA
ATOM     14  C1  5I5 d   1       8.719 -23.421  20.371  0.00  0.00     0.138 A 
ATOM     15  C5  5I5 d   1       8.113 -22.069  22.568  0.00  0.00     0.040 A 
ATOM     16  N1  5I5 d   1       9.204 -23.294  19.115  0.00  0.00    -0.224 NA
ATOM     17  C4  5I5 d   1       9.556 -22.068  18.669  0.00  0.00     0.091 A 
ATOM     18  H1  5I5 d   1       9.956 -21.981  17.665  0.00  0.00     0.146 H 
ATOM     19  C6  5I5 d   1       8.259 -20.679  22.774  0.00  0.00     0.001 A 
ATOM     20  I   5I5 d   1       7.400 -23.390  23.953  0.00  0.00    -0.042 I 
ATOM     21  H2  5I5 d   1       8.014 -20.159  23.699  0.00  0.00     0.113 H 
BRANCH  14  22
ATOM     22  N4  5I5 d   1       8.441 -24.681  20.705  0.00  0.00    -0.383 N 
ATOM     23  H3  5I5 d   1       8.066 -24.895  21.640  0.00  0.00     0.157 HD
ATOM     24  H4  5I5 d   1       8.602 -25.441  20.028  0.00  0.00     0.157 HD
ENDBRANCH  14  22
ENDBRANCH   3  10
BRANCH   2  25
ATOM     25  O1  5I5 d   1       6.762 -18.093  20.365  0.00  0.00    -0.388 OA
ATOM     26  H10 5I5 d   1       5.944 -17.628  20.499  0.00  0.00     0.210 HD
ENDBRANCH   2  25
BRANCH   1  27
ATOM     27  O2  5I5 d   1       8.103 -15.842  20.474  0.00  0.00    -0.390 OA
ATOM     28  H9  5I5 d   1       7.234 -15.769  20.098  0.00  0.00     0.210 HD
ENDBRANCH   1  27
BRANCH   5  29
ATOM     29  C11 5I5 d   1       9.453 -15.954  23.796  0.00  0.00    -0.050 C 
ATOM     30  H11 5I5 d   1      10.457 -16.085  24.225  0.00  0.00     0.031 H 
ATOM     31  H12 5I5 d   1       8.709 -16.430  24.451  0.00  0.00     0.031 H 
ATOM     32  H13 5I5 d   1       9.230 -14.881  23.707  0.00  0.00     0.031 H 
ENDBRANCH   5  29
TORSDOF 5
