REMARK  5 active torsions:
REMARK  status: ('A' for Active; 'I' for Inactive)
REMARK       I    between atoms: C23_2  and  N22_3 
REMARK       I    between atoms: N22_3  and  C17_4 
REMARK    1  A    between atoms: N22_3  and  C12_6 
REMARK    2  A    between atoms: C12_6  and  C14_7 
REMARK    3  A    between atoms: C8_15  and  B7_16 
REMARK    4  A    between atoms: B7_16  and  O20_17 
REMARK    5  A    between atoms: B7_16  and  O21_18 
ROOT
ATOM      1  C14 VA1 d   1      -5.353   7.374  53.782  0.00  0.00    -0.039 A 
ATOM      2  C13 VA1 d   1      -4.883   6.198  54.367  0.00  0.00    -0.064 A 
ATOM      3  C10 VA1 d   1      -4.405   6.184  55.677  0.00  0.00    -0.018 A 
ATOM      4  C9  VA1 d   1      -3.890   5.023  56.386  0.00  0.00    -0.064 A 
ATOM      5  C15 VA1 d   1      -5.330   8.579  54.519  0.00  0.00    -0.074 A 
ATOM      6  C16 VA1 d   1      -4.875   8.587  55.849  0.00  0.00    -0.065 A 
ATOM      7  C11 VA1 d   1      -4.414   7.373  56.386  0.00  0.00     0.014 A 
ATOM      8  S19 VA1 d   1      -3.784   7.159  57.932  0.00  0.00    -0.101 SA
ATOM      9  C8  VA1 d   1      -3.509   5.474  57.646  0.00  0.00     0.010 A 
ATOM     10  H5  VA1 d   1      -4.889   5.279  53.793  0.00  0.00     0.085 H 
ATOM     11  H6  VA1 d   1      -3.817   4.005  56.007  0.00  0.00     0.085 H 
ATOM     12  H7  VA1 d   1      -5.665   9.501  54.057  0.00  0.00     0.084 H 
ATOM     13  H8  VA1 d   1      -4.880   9.496  56.439  0.00  0.00     0.085 H 
ENDROOT
BRANCH   1  14
ATOM     14  C12 VA1 d   1      -5.830   7.295  52.339  0.00  0.00     0.028 C 
ATOM     15  H3  VA1 d   1      -4.995   7.601  51.692  0.00  0.00     0.072 H 
ATOM     16  H4  VA1 d   1      -6.092   6.248  52.129  0.00  0.00     0.072 H 
BRANCH  14  17
ATOM     17  N22 VA1 d   1      -6.988   8.123  51.997  0.00  0.00    -0.299 N 
ATOM     18  C23 VA1 d   1      -6.825   9.288  51.478  0.00  0.00     0.177 C 
ATOM     19  O24 VA1 d   1      -5.719   9.839  51.375  0.00  0.00    -0.283 OA
ATOM     20  H1  VA1 d   1      -7.703   9.818  51.110  0.00  0.00     0.180 H 
ATOM     21  C17 VA1 d   1      -8.151   7.634  52.224  0.00  0.00     0.177 C 
ATOM     22  O18 VA1 d   1      -9.195   8.268  52.038  0.00  0.00    -0.283 OA
ATOM     23  H2  VA1 d   1      -8.222   6.614  52.598  0.00  0.00     0.180 H 
ENDBRANCH  14  17
ENDBRANCH   1  14
BRANCH   9  24
ATOM     24  B7  VA1 d   1      -2.981   4.528  58.742  0.00  0.00     0.536 B 
BRANCH  24  25
ATOM     25  O20 VA1 d   1      -3.811   3.251  58.841  0.00  0.00    -0.433 OA
ATOM     26  H9  VA1 d   1      -3.974   2.912  57.969  0.00  0.00     0.185 HD
ENDBRANCH  24  25
BRANCH  24  27
ATOM     27  O21 VA1 d   1      -2.703   5.098  60.132  0.00  0.00    -0.433 OA
ATOM     28  H10 VA1 d   1      -3.526   5.298  60.562  0.00  0.00     0.185 HD
ENDBRANCH  24  27
ENDBRANCH   9  24
TORSDOF 5
