REMARK  6 active torsions:
REMARK  status: ('A' for Active; 'I' for Inactive)
REMARK    1  A    between atoms: N11_19  and  C8_3 
REMARK    2  A    between atoms: N18_8  and  C36_24 
REMARK    3  A    between atoms: C22_10  and  C24_11 
REMARK    4  A    between atoms: N13_20  and  C52_35 
REMARK    5  A    between atoms: C36_24  and  C39_25 
REMARK    6  A    between atoms: C43_28  and  C46_30 
ROOT
ATOM      1  C24 2IC d   1     -10.801   0.221  25.975  0.00  0.00    -0.049 A 
ATOM      2  C27 2IC d   1     -10.802  -2.061  26.873  0.00  0.00    -0.062 A 
ATOM      3  C30 2IC d   1      -9.171  -1.424  25.175  0.00  0.00    -0.062 A 
ATOM      4  C32 2IC d   1      -9.722  -0.133  25.116  0.00  0.00    -0.075 A 
ATOM      5  C34 2IC d   1      -9.198  -3.709  26.055  0.00  0.00     0.099 C 
ATOM      6  C25 2IC d   1     -11.358  -0.773  26.813  0.00  0.00    -0.075 A 
ATOM      7  C29 2IC d   1      -9.715  -2.379  26.047  0.00  0.00     0.044 A 
ATOM      8  N35 2IC d   1      -8.804  -4.798  26.033  0.00  0.00    -0.191 NA
ATOM      9  H9  2IC d   1     -11.209  -2.802  27.551  0.00  0.00     0.085 H 
ATOM     10  H10 2IC d   1      -8.326  -1.682  24.547  0.00  0.00     0.085 H 
ATOM     11  H11 2IC d   1      -9.326   0.594  24.416  0.00  0.00     0.084 H 
ATOM     12  H13 2IC d   1     -12.226  -0.537  27.418  0.00  0.00     0.084 H 
ENDROOT
BRANCH   1  13
ATOM     13  C22 2IC d   1     -11.360   1.613  26.077  0.00  0.00     0.030 C 
ATOM     14  C14 2IC d   1     -10.703   2.537  27.099  0.00  0.00     0.151 C 
ATOM     15  C15 2IC d   1     -10.949   3.946  26.541  0.00  0.00     0.116 C 
ATOM     16  N13 2IC d   1     -11.112   2.260  28.466  0.00  0.00    -0.317 N 
ATOM     17  C50 2IC d   1      -9.202   2.233  27.223  0.00  0.00     0.263 C 
ATOM     18  N18 2IC d   1     -11.736   3.771  25.294  0.00  0.00    -0.063 N 
ATOM     19  H3  2IC d   1      -9.992   4.441  26.320  0.00  0.00     0.080 H 
ATOM     20  H4  2IC d   1     -11.515   4.549  27.266  0.00  0.00     0.080 H 
ATOM     21  C19 2IC d   1     -11.478   2.426  24.810  0.00  0.00     0.094 C 
ATOM     22  H5  2IC d   1     -12.708   3.869  25.544  0.00  0.00     0.280 HD
ATOM     23  H6  2IC d   1     -10.544   2.389  24.230  0.00  0.00     0.077 H 
ATOM     24  H7  2IC d   1     -12.310   2.066  24.188  0.00  0.00     0.077 H 
ATOM     25  C12 2IC d   1     -10.135   1.702  29.190  0.00  0.00     0.333 C 
ATOM     26  N11 2IC d   1      -8.992   1.682  28.448  0.00  0.00    -0.232 N 
ATOM     27  O56 2IC d   1     -10.282   1.274  30.333  0.00  0.00    -0.246 OA
ATOM     28  O51 2IC d   1      -8.385   2.467  26.333  0.00  0.00    -0.270 OA
ATOM     29  H8  2IC d   1     -12.391   1.455  26.427  0.00  0.00     0.054 H 
BRANCH  18  30
ATOM     30  C36 2IC d   1     -11.491   4.637  24.137  0.00  0.00     0.113 C 
ATOM     31  H14 2IC d   1     -11.865   4.139  23.230  0.00  0.00     0.084 H 
ATOM     32  H15 2IC d   1     -10.409   4.810  24.041  0.00  0.00     0.084 H 
BRANCH  30  33
ATOM     33  C39 2IC d   1     -12.183   5.953  24.290  0.00  0.00     0.009 C 
ATOM     34  S40 2IC d   1     -11.350   7.222  25.155  0.00  0.00    -0.104 SA
ATOM     35  C41 2IC d   1     -12.753   8.256  25.014  0.00  0.00    -0.028 C 
ATOM     36  C43 2IC d   1     -13.667   7.726  24.190  0.00  0.00     0.048 C 
ATOM     37  H16 2IC d   1     -12.869   9.208  25.530  0.00  0.00     0.096 H 
ATOM     38  C44 2IC d   1     -13.355   6.355  23.766  0.00  0.00    -0.052 C 
ATOM     39  H17 2IC d   1     -13.985   5.748  23.117  0.00  0.00     0.086 H 
BRANCH  36  40
ATOM     40  C46 2IC d   1     -14.857   8.487  23.744  0.00  0.00     0.209 C 
ATOM     41  O47 2IC d   1     -15.603   7.973  22.883  0.00  0.00    -0.644 OA
ATOM     42  O48 2IC d   1     -15.066   9.620  24.229  0.00  0.00    -0.644 OA
ENDBRANCH  36  40
ENDBRANCH  30  33
ENDBRANCH  18  30
BRANCH  16  43
ATOM     43  C52 2IC d   1     -12.487   2.440  28.931  0.00  0.00    -0.013 C 
ATOM     44  H18 2IC d   1     -12.553   2.168  29.995  0.00  0.00     0.056 H 
ATOM     45  H19 2IC d   1     -13.159   1.795  28.346  0.00  0.00     0.056 H 
ATOM     46  H20 2IC d   1     -12.783   3.491  28.802  0.00  0.00     0.056 H 
ENDBRANCH  16  43
BRANCH  26  47
ATOM     47  C8  2IC d   1      -7.819   1.103  28.826  0.00  0.00     0.050 A 
ATOM     48  C9  2IC d   1      -7.120   0.236  27.944  0.00  0.00    -0.035 A 
ATOM     49  C2  2IC d   1      -5.917  -0.346  28.375  0.00  0.00     0.037 A 
ATOM     50  H2  2IC d   1      -7.509   0.027  26.954  0.00  0.00     0.089 H 
ATOM     51  C3  2IC d   1      -5.387  -0.125  29.650  0.00  0.00    -0.041 A 
ATOM     52 CL1  2IC d   1      -5.055  -1.400  27.310  0.00  0.00    -0.084 Cl
ATOM     53  C5  2IC d   1      -6.108   0.709  30.506  0.00  0.00     0.037 A 
ATOM     54  H1  2IC d   1      -4.455  -0.583  29.961  0.00  0.00     0.088 H 
ATOM     55  C6  2IC d   1      -7.297   1.334  30.112  0.00  0.00    -0.035 A 
ATOM     56 CL57 2IC d   1      -5.530   0.945  32.105  0.00  0.00    -0.084 Cl
ATOM     57  H12 2IC d   1      -7.815   1.995  30.797  0.00  0.00     0.089 H 
ENDBRANCH  26  47
ENDBRANCH   1  13
TORSDOF 6
