REMARK  11 active torsions:
REMARK  status: ('A' for Active; 'I' for Inactive)
REMARK    1  A    between atoms: C2_2  and  NA2_3 
REMARK    2  A    between atoms: N5_8  and  C11_15 
REMARK    3  A    between atoms: C9_13  and  C6_9 
REMARK    4  A    between atoms: N10_14  and  C9_13 
REMARK    5  A    between atoms: C15_19  and  N10_14 
REMARK    6  A    between atoms: C12_16  and  C_22 
REMARK       I    between atoms: C_22  and  N_24 
REMARK    7  A    between atoms: N_24  and  CA_25 
REMARK    8  A    between atoms: CA_25  and  CB_26 
REMARK    9  A    between atoms: CA_25  and  CT_31 
REMARK   10  A    between atoms: CB_26  and  CG_27 
REMARK   11  A    between atoms: CG_27  and  CD_28 
ROOT
ATOM      1  N10 C2F d   1      12.674 -20.316  17.817  0.00  0.00    -0.388 N 
ATOM      2  H11 C2F d   1      11.974 -19.565  17.737  0.00  0.00     0.159 HD
ENDROOT
BRANCH   1   3
ATOM      3  C9  C2F d   1      12.231 -21.718  18.021  0.00  0.00     0.013 C 
ATOM      4  H9  C2F d   1      12.574 -22.317  17.164  0.00  0.00     0.067 H 
ATOM      5  H10 C2F d   1      12.697 -22.097  18.943  0.00  0.00     0.067 H 
BRANCH   3   6
ATOM      6  C6  C2F d   1      10.695 -21.885  18.148  0.00  0.00     0.042 C 
ATOM      7  N5  C2F d   1      10.132 -21.222  19.418  0.00  0.00    -0.370 N 
ATOM      8  C4A C2F d   1       9.017 -21.879  20.152  0.00  0.00     0.144 A 
ATOM      9  C4  C2F d   1       8.428 -21.359  21.352  0.00  0.00     0.290 A 
ATOM     10  C8A C2F d   1       8.480 -23.101  19.663  0.00  0.00     0.149 A 
ATOM     11  N3  C2F d   1       7.396 -22.056  21.951  0.00  0.00    -0.154 N 
ATOM     12  O4  C2F d   1       8.816 -20.320  21.852  0.00  0.00    -0.265 OA
ATOM     13  C2  C2F d   1       6.923 -23.236  21.420  0.00  0.00     0.680 A 
ATOM     14  H4  C2F d   1       6.984 -21.696  22.788  0.00  0.00     0.187 HD
ATOM     15  N1  C2F d   1       7.454 -23.738  20.309  0.00  0.00    -0.175 N 
ATOM     16  H1  C2F d   1       7.087 -24.622  19.927  0.00  0.00     0.186 HD
ATOM     17  N8  C2F d   1       9.018 -23.634  18.522  0.00  0.00    -0.372 N 
ATOM     18  C7  C2F d   1      10.438 -23.402  18.287  0.00  0.00     0.014 C 
ATOM     19  H8  C2F d   1       8.445 -24.175  17.859  0.00  0.00     0.161 HD
ATOM     20  H6  C2F d   1      11.019 -23.797  19.134  0.00  0.00     0.067 H 
ATOM     21  H7  C2F d   1      10.745 -23.912  17.362  0.00  0.00     0.067 H 
ATOM     22  H5  C2F d   1      10.196 -21.476  17.258  0.00  0.00     0.077 H 
BRANCH   7  23
ATOM     23  C11 C2F d   1      10.703 -19.933  19.893  0.00  0.00    -0.018 C 
ATOM     24  H12 C2F d   1      10.179 -19.614  20.806  0.00  0.00     0.056 H 
ATOM     25  H13 C2F d   1      10.579 -19.167  19.113  0.00  0.00     0.056 H 
ATOM     26  H14 C2F d   1      11.773 -20.064  20.111  0.00  0.00     0.056 H 
ENDBRANCH   7  23
BRANCH  13  27
ATOM     27  NA2 C2F d   1       5.893 -23.897  22.046  0.00  0.00    -0.234 N 
ATOM     28  H2  C2F d   1       5.480 -23.510  22.907  0.00  0.00     0.174 HD
ATOM     29  H3  C2F d   1       5.534 -24.779  21.654  0.00  0.00     0.174 HD
ENDBRANCH  13  27
ENDBRANCH   3   6
ENDBRANCH   1   3
BRANCH   1  30
ATOM     30  C15 C2F d   1      14.044 -20.006  17.732  0.00  0.00     0.028 A 
ATOM     31  C14 C2F d   1      14.463 -18.663  17.522  0.00  0.00    -0.057 A 
ATOM     32  C13 C2F d   1      15.833 -18.354  17.446  0.00  0.00    -0.066 A 
ATOM     33  H16 C2F d   1      13.725 -17.876  17.420  0.00  0.00     0.086 H 
ATOM     34  C12 C2F d   1      16.800 -19.387  17.589  0.00  0.00     0.032 A 
ATOM     35  H15 C2F d   1      16.151 -17.331  17.279  0.00  0.00     0.085 H 
ATOM     36  C17 C2F d   1      16.363 -20.731  17.795  0.00  0.00    -0.066 A 
ATOM     37  C16 C2F d   1      15.016 -21.035  17.865  0.00  0.00    -0.057 A 
ATOM     38  H18 C2F d   1      17.096 -21.523  17.898  0.00  0.00     0.085 H 
ATOM     39  H17 C2F d   1      14.700 -22.060  18.022  0.00  0.00     0.086 H 
BRANCH  34  40
ATOM     40  C   C2F d   1      18.268 -19.133  17.533  0.00  0.00     0.252 C 
ATOM     41  O   C2F d   1      18.718 -18.015  17.359  0.00  0.00    -0.268 OA
ATOM     42  N   C2F d   1      19.040 -20.247  17.696  0.00  0.00    -0.342 N 
ATOM     43  H19 C2F d   1      18.489 -21.070  17.832  0.00  0.00     0.163 HD
BRANCH  42  44
ATOM     44  CA  C2F d   1      20.519 -20.544  17.722  0.00  0.00     0.097 C 
ATOM     45  H20 C2F d   1      20.859 -20.678  16.684  0.00  0.00     0.089 H 
BRANCH  44  46
ATOM     46  CB  C2F d   1      21.501 -19.528  18.393  0.00  0.00    -0.028 C 
ATOM     47  H21 C2F d   1      22.500 -19.989  18.405  0.00  0.00     0.037 H 
ATOM     48  H22 C2F d   1      21.159 -19.367  19.426  0.00  0.00     0.037 H 
BRANCH  46  49
ATOM     49  CG  C2F d   1      21.634 -18.152  17.729  0.00  0.00     0.018 C 
ATOM     50  H23 C2F d   1      20.651 -17.658  17.715  0.00  0.00     0.049 H 
ATOM     51  H24 C2F d   1      21.996 -18.279  16.698  0.00  0.00     0.049 H 
BRANCH  49  52
ATOM     52  CD  C2F d   1      22.626 -17.286  18.512  0.00  0.00     0.172 C 
ATOM     53  OE1 C2F d   1      23.177 -17.705  19.511  0.00  0.00    -0.648 OA
ATOM     54  OE2 C2F d   1      22.895 -16.036  18.092  0.00  0.00    -0.648 OA
ENDBRANCH  49  52
ENDBRANCH  46  49
ENDBRANCH  44  46
BRANCH  44  55
ATOM     55  CT  C2F d   1      20.578 -21.852  18.463  0.00  0.00     0.196 C 
ATOM     56  O1  C2F d   1      21.607 -22.514  18.479  0.00  0.00    -0.646 OA
ATOM     57  O2  C2F d   1      19.468 -22.293  19.111  0.00  0.00    -0.646 OA
ENDBRANCH  44  55
ENDBRANCH  42  44
ENDBRANCH  34  40
ENDBRANCH   1  30
TORSDOF 11
