REMARK  19 active torsions:
REMARK  status: ('A' for Active; 'I' for Inactive)
REMARK    1  A    between atoms: C1_1  and  C2_2 
REMARK    2  A    between atoms: C2_2  and  C3_3 
REMARK    3  A    between atoms: C2_2  and  C44_44 
REMARK    4  A    between atoms: C2_2  and  O3_47 
REMARK    5  A    between atoms: C3_3  and  C4_4 
REMARK    6  A    between atoms: C7_7  and  O5_49 
REMARK    7  A    between atoms: C10_10  and  C43_43 
REMARK    8  A    between atoms: C12_12  and  C13_13 
REMARK    9  A    between atoms: C13_13  and  C14_14 
REMARK   10  A    between atoms: C13_13  and  C42_42 
REMARK   11  A    between atoms: C15_15  and  C16_16 
REMARK   12  A    between atoms: C24_24  and  O10_54 
REMARK   13  A    between atoms: C26_26  and  C27_27 
REMARK   14  A    between atoms: C27_27  and  C28_28 
REMARK   15  A    between atoms: C27_27  and  O11_55 
REMARK   16  A    between atoms: C28_28  and  C29_29 
REMARK   17  A    between atoms: C29_29  and  C30_30 
REMARK   18  A    between atoms: C29_29  and  C40_40 
REMARK   19  A    between atoms: C31_31  and  C39_39 
ROOT
ATOM      1  C16 OKA d   1      34.597 -49.121 -39.681  0.00  0.00     0.058 C 
ATOM      2  C17 OKA d   1      35.140 -50.411 -40.307  0.00  0.00    -0.033 C 
ATOM      3  C18 OKA d   1      33.932 -50.999 -41.045  0.00  0.00    -0.010 C 
ATOM      4  C19 OKA d   1      32.921 -49.855 -40.959  0.00  0.00     0.165 C 
ATOM      5  C20 OKA d   1      31.458 -50.295 -41.030  0.00  0.00    -0.010 C 
ATOM      6  C21 OKA d   1      30.593 -49.066 -40.741  0.00  0.00    -0.034 C 
ATOM      7  C22 OKA d   1      30.939 -47.916 -41.692  0.00  0.00     0.067 C 
ATOM      8  C23 OKA d   1      32.442 -47.673 -41.714  0.00  0.00     0.095 C 
ATOM      9  C24 OKA d   1      32.718 -46.656 -42.823  0.00  0.00     0.086 C 
ATOM     10  C25 OKA d   1      31.932 -45.400 -42.452  0.00  0.00    -0.027 C 
ATOM     11  C26 OKA d   1      30.460 -45.574 -42.077  0.00  0.00     0.087 C 
ATOM     12  C41 OKA d   1      32.540 -44.149 -42.452  0.00  0.00    -0.114 C 
ATOM     13  O7  OKA d   1      33.176 -49.329 -39.658  0.00  0.00    -0.346 OA
ATOM     14  O8  OKA d   1      33.207 -48.865 -41.950  0.00  0.00    -0.344 OA
ATOM     15  O9  OKA d   1      30.263 -46.729 -41.240  0.00  0.00    -0.371 OA
ATOM     16  H16 OKA d   1      34.870 -48.257 -40.305  0.00  0.00     0.089 H 
ATOM     17  H17 OKA d   1      35.498 -51.102 -39.530  0.00  0.00     0.037 H 
ATOM     18  H18 OKA d   1      35.958 -50.191 -41.008  0.00  0.00     0.037 H 
ATOM     19  H19 OKA d   1      33.557 -51.903 -40.542  0.00  0.00     0.041 H 
ATOM     20  H20 OKA d   1      34.179 -51.237 -42.090  0.00  0.00     0.041 H 
ATOM     21  H21 OKA d   1      31.264 -51.076 -40.280  0.00  0.00     0.041 H 
ATOM     22  H22 OKA d   1      31.232 -50.686 -42.033  0.00  0.00     0.041 H 
ATOM     23  H23 OKA d   1      30.766 -48.740 -39.705  0.00  0.00     0.037 H 
ATOM     24  H24 OKA d   1      29.534 -49.333 -40.870  0.00  0.00     0.037 H 
ATOM     25  H25 OKA d   1      30.600 -48.168 -42.708  0.00  0.00     0.087 H 
ATOM     26  H26 OKA d   1      32.748 -47.252 -40.745  0.00  0.00     0.092 H 
ATOM     27  H27 OKA d   1      32.375 -47.048 -43.792  0.00  0.00     0.094 H 
ATOM     28  H28 OKA d   1      30.112 -44.679 -41.540  0.00  0.00     0.094 H 
ATOM     29  H53 OKA d   1      33.590 -44.054 -42.723  0.00  0.00     0.067 H 
ATOM     30  H54 OKA d   1      31.966 -43.264 -42.181  0.00  0.00     0.067 H 
ENDROOT
BRANCH   1  31
ATOM     31  C15 OKA d   1      34.999 -48.887 -38.373  0.00  0.00    -0.079 C 
ATOM     32  C14 OKA d   1      36.318 -48.625 -38.014  0.00  0.00    -0.098 C 
ATOM     33  H14 OKA d   1      37.099 -48.602 -38.773  0.00  0.00     0.077 H 
ATOM     34  H15 OKA d   1      34.244 -48.910 -37.588  0.00  0.00     0.080 H 
BRANCH  32  35
ATOM     35  C13 OKA d   1      36.663 -48.370 -36.545  0.00  0.00    -0.016 C 
ATOM     36  H13 OKA d   1      36.358 -49.250 -35.960  0.00  0.00     0.049 H 
BRANCH  35  37
ATOM     37  C12 OKA d   1      35.923 -47.149 -35.989  0.00  0.00     0.052 C 
ATOM     38  C11 OKA d   1      36.339 -47.005 -34.524  0.00  0.00    -0.020 C 
ATOM     39  C10 OKA d   1      35.396 -46.052 -33.791  0.00  0.00    -0.080 C 
ATOM     40  H10 OKA d   1      36.305 -47.992 -34.039  0.00  0.00     0.043 H 
ATOM     41  H11 OKA d   1      37.364 -46.608 -34.476  0.00  0.00     0.043 H 
ATOM     42  C9  OKA d   1      34.170 -45.717 -34.354  0.00  0.00    -0.040 C 
ATOM     43  C8  OKA d   1      33.750 -46.214 -35.582  0.00  0.00     0.211 C 
ATOM     44  H9  OKA d   1      33.513 -45.039 -33.812  0.00  0.00     0.085 H 
ATOM     45  C7  OKA d   1      32.299 -46.669 -35.407  0.00  0.00     0.093 C 
ATOM     46  O4  OKA d   1      33.854 -45.133 -36.518  0.00  0.00    -0.344 OA
ATOM     47  O6  OKA d   1      34.503 -47.354 -36.015  0.00  0.00    -0.343 OA
ATOM     48  C6  OKA d   1      31.654 -46.974 -36.758  0.00  0.00    -0.034 C 
ATOM     49  H8  OKA d   1      31.723 -45.888 -34.890  0.00  0.00     0.091 H 
ATOM     50  C5  OKA d   1      31.797 -45.753 -37.666  0.00  0.00    -0.038 C 
ATOM     51  H6  OKA d   1      32.156 -47.837 -37.219  0.00  0.00     0.037 H 
ATOM     52  H7  OKA d   1      30.588 -47.203 -36.614  0.00  0.00     0.037 H 
ATOM     53  C4  OKA d   1      33.274 -45.380 -37.808  0.00  0.00     0.045 C 
ATOM     54  H4  OKA d   1      31.383 -45.986 -38.658  0.00  0.00     0.036 H 
ATOM     55  H5  OKA d   1      31.247 -44.907 -37.228  0.00  0.00     0.036 H 
ATOM     56  H3  OKA d   1      33.822 -46.194 -38.305  0.00  0.00     0.083 H 
ATOM     57  H12 OKA d   1      36.187 -46.249 -36.564  0.00  0.00     0.085 H 
BRANCH  39  58
ATOM     58  C43 OKA d   1      35.789 -45.457 -32.438  0.00  0.00    -0.055 C 
ATOM     59  H58 OKA d   1      34.983 -44.801 -32.078  0.00  0.00     0.033 H 
ATOM     60  H59 OKA d   1      36.714 -44.873 -32.549  0.00  0.00     0.033 H 
ATOM     61  H60 OKA d   1      35.953 -46.269 -31.714  0.00  0.00     0.033 H 
ENDBRANCH  39  58
BRANCH  45  62
ATOM     62  O5  OKA d   1      32.316 -47.870 -34.631  0.00  0.00    -0.390 OA
ATOM     63  H65 OKA d   1      32.820 -48.534 -35.087  0.00  0.00     0.210 HD
ENDBRANCH  45  62
BRANCH  53  64
ATOM     64  C3  OKA d   1      33.330 -44.108 -38.661  0.00  0.00    -0.003 C 
ATOM     65  H1  OKA d   1      32.937 -44.334 -39.663  0.00  0.00     0.042 H 
ATOM     66  H2  OKA d   1      32.707 -43.334 -38.189  0.00  0.00     0.042 H 
BRANCH  64  67
ATOM     67  C2  OKA d   1      34.760 -43.579 -38.796  0.00  0.00     0.144 C 
BRANCH  67  68
ATOM     68  C1  OKA d   1      35.659 -44.688 -39.353  0.00  0.00     0.208 C 
ATOM     69  O1  OKA d   1      36.529 -45.153 -38.587  0.00  0.00    -0.646 OA
ATOM     70  O2  OKA d   1      35.456 -45.050 -40.532  0.00  0.00    -0.646 OA
ENDBRANCH  67  68
BRANCH  67  71
ATOM     71  C44 OKA d   1      34.775 -42.380 -39.747  0.00  0.00    -0.038 C 
ATOM     72  H61 OKA d   1      35.803 -42.001 -39.843  0.00  0.00     0.032 H 
ATOM     73  H62 OKA d   1      34.127 -41.586 -39.346  0.00  0.00     0.032 H 
ATOM     74  H63 OKA d   1      34.405 -42.691 -40.735  0.00  0.00     0.032 H 
ENDBRANCH  67  71
BRANCH  67  75
ATOM     75  O3  OKA d   1      35.257 -43.186 -37.513  0.00  0.00    -0.379 OA
ATOM     76  H64 OKA d   1      35.254 -43.936 -36.930  0.00  0.00     0.211 HD
ENDBRANCH  67  75
ENDBRANCH  64  67
ENDBRANCH  53  64
ENDBRANCH  35  37
BRANCH  35  77
ATOM     77  C42 OKA d   1      38.176 -48.192 -36.404  0.00  0.00    -0.067 C 
ATOM     78  H55 OKA d   1      38.689 -49.077 -36.808  0.00  0.00     0.028 H 
ATOM     79  H56 OKA d   1      38.434 -48.072 -35.341  0.00  0.00     0.028 H 
ATOM     80  H57 OKA d   1      38.494 -47.298 -36.961  0.00  0.00     0.028 H 
ENDBRANCH  35  77
ENDBRANCH  32  35
ENDBRANCH   1  31
BRANCH   9  81
ATOM     81  O10 OKA d   1      34.115 -46.364 -42.898  0.00  0.00    -0.388 OA
ATOM     82  H66 OKA d   1      34.417 -46.047 -42.055  0.00  0.00     0.210 HD
ENDBRANCH   9  81
BRANCH  11  83
ATOM     83  C27 OKA d   1      29.665 -45.741 -43.372  0.00  0.00     0.065 C 
ATOM     84  H29 OKA d   1      30.102 -46.562 -43.959  0.00  0.00     0.087 H 
BRANCH  83  85
ATOM     85  C28 OKA d   1      29.731 -44.457 -44.204  0.00  0.00    -0.033 C 
ATOM     86  H30 OKA d   1      30.784 -44.240 -44.438  0.00  0.00     0.037 H 
ATOM     87  H31 OKA d   1      29.309 -43.630 -43.613  0.00  0.00     0.037 H 
BRANCH  85  88
ATOM     88  C29 OKA d   1      28.949 -44.575 -45.515  0.00  0.00    -0.030 C 
ATOM     89  H32 OKA d   1      27.877 -44.623 -45.273  0.00  0.00     0.043 H 
BRANCH  88  90
ATOM     90  C30 OKA d   1      29.191 -43.352 -46.405  0.00  0.00     0.048 C 
ATOM     91  C31 OKA d   1      28.911 -42.065 -45.627  0.00  0.00    -0.032 C 
ATOM     92  C32 OKA d   1      29.137 -40.856 -46.536  0.00  0.00    -0.055 C 
ATOM     93  H34 OKA d   1      29.610 -42.004 -44.780  0.00  0.00     0.043 H 
ATOM     94  C33 OKA d   1      28.267 -41.001 -47.785  0.00  0.00    -0.012 C 
ATOM     95  H35 OKA d   1      30.196 -40.808 -46.828  0.00  0.00     0.033 H 
ATOM     96  H36 OKA d   1      28.862 -39.935 -46.000  0.00  0.00     0.033 H 
ATOM     97  C34 OKA d   1      28.576 -42.331 -48.474  0.00  0.00     0.164 C 
ATOM     98  H37 OKA d   1      28.479 -40.172 -48.477  0.00  0.00     0.041 H 
ATOM     99  H38 OKA d   1      27.206 -40.976 -47.497  0.00  0.00     0.041 H 
ATOM    100  C35 OKA d   1      27.660 -42.495 -49.690  0.00  0.00    -0.013 C 
ATOM    101  O12 OKA d   1      28.346 -43.414 -47.564  0.00  0.00    -0.349 OA
ATOM    102  O13 OKA d   1      29.941 -42.326 -48.909  0.00  0.00    -0.355 OA
ATOM    103  C36 OKA d   1      27.972 -43.807 -50.412  0.00  0.00    -0.058 C 
ATOM    104  H39 OKA d   1      27.818 -41.654 -50.380  0.00  0.00     0.041 H 
ATOM    105  H40 OKA d   1      26.612 -42.504 -49.357  0.00  0.00     0.041 H 
ATOM    106  C37 OKA d   1      29.457 -43.829 -50.778  0.00  0.00    -0.045 C 
ATOM    107  H41 OKA d   1      27.365 -43.879 -51.327  0.00  0.00     0.033 H 
ATOM    108  H42 OKA d   1      27.742 -44.656 -49.752  0.00  0.00     0.033 H 
ATOM    109  C38 OKA d   1      30.299 -43.574 -49.525  0.00  0.00     0.023 C 
ATOM    110  H43 OKA d   1      29.662 -43.046 -51.522  0.00  0.00     0.036 H 
ATOM    111  H44 OKA d   1      29.716 -44.812 -51.199  0.00  0.00     0.036 H 
ATOM    112  H45 OKA d   1      31.362 -43.544 -49.806  0.00  0.00     0.074 H 
ATOM    113  H46 OKA d   1      30.132 -44.390 -48.807  0.00  0.00     0.074 H 
ATOM    114  H33 OKA d   1      30.242 -43.351 -46.729  0.00  0.00     0.084 H 
BRANCH  91 115
ATOM    115  C39 OKA d   1      27.482 -42.076 -45.079  0.00  0.00    -0.070 C 
ATOM    116  H47 OKA d   1      27.345 -42.953 -44.430  0.00  0.00     0.028 H 
ATOM    117  H48 OKA d   1      26.769 -42.124 -45.915  0.00  0.00     0.028 H 
ATOM    118  H49 OKA d   1      27.305 -41.159 -44.498  0.00  0.00     0.028 H 
ENDBRANCH  91 115
ENDBRANCH  88  90
BRANCH  88 119
ATOM    119  C40 OKA d   1      29.333 -45.852 -46.268  0.00  0.00    -0.070 C 
ATOM    120  H50 OKA d   1      29.157 -46.725 -45.623  0.00  0.00     0.028 H 
ATOM    121  H51 OKA d   1      30.397 -45.809 -46.544  0.00  0.00     0.028 H 
ATOM    122  H52 OKA d   1      28.721 -45.939 -47.178  0.00  0.00     0.028 H 
ENDBRANCH  88 119
ENDBRANCH  85  88
ENDBRANCH  83  85
BRANCH  83 123
ATOM    123  O11 OKA d   1      28.316 -46.078 -43.040  0.00  0.00    -0.393 OA
ATOM    124  H67 OKA d   1      28.308 -46.877 -42.525  0.00  0.00     0.210 HD
ENDBRANCH  83 123
ENDBRANCH  11  83
TORSDOF 19
