REMARK  6 active torsions:
REMARK  status: ('A' for Active; 'I' for Inactive)
REMARK    1  A    between atoms: C26_21  and  O4_3 
REMARK    2  A    between atoms: N2_5  and  C5_10 
REMARK    3  A    between atoms: C2_7  and  C6_11 
REMARK    4  A    between atoms: C3_8  and  C17_12 
REMARK    5  A    between atoms: C24_19  and  C4_9 
REMARK    6  A    between atoms: C17_12  and  C18_13 
ROOT
ATOM      1  S   MOY d   1      14.660  14.666 109.556  0.00  0.00    -0.041 SA
ATOM      2  N1  MOY d   1      17.078  13.510 109.523  0.00  0.00    -0.354 N 
ATOM      3  N2  MOY d   1      17.026  15.830 109.977  0.00  0.00    -0.332 N 
ATOM      4  C1  MOY d   1      16.304  14.703 109.698  0.00  0.00     0.174 C 
ATOM      5  C2  MOY d   1      18.376  16.007 109.477  0.00  0.00     0.022 C 
ATOM      6  C3  MOY d   1      19.132  14.824 109.308  0.00  0.00     0.042 C 
ATOM      7  C4  MOY d   1      18.521  13.569 110.008  0.00  0.00     0.069 C 
ATOM      8  H2  MOY d   1      16.693  12.686 109.107  0.00  0.00     0.163 HD
ATOM      9  H3  MOY d   1      19.066  12.671 109.682  0.00  0.00     0.088 H 
ENDROOT
BRANCH   6  10
ATOM     10  C17 MOY d   1      20.521  14.617 108.745  0.00  0.00     0.192 C 
ATOM     11  O3  MOY d   1      21.202  13.711 109.217  0.00  0.00    -0.287 OA
BRANCH  10  12
ATOM     12  C18 MOY d   1      21.049  15.447 107.596  0.00  0.00     0.015 A 
ATOM     13  C19 MOY d   1      22.435  15.757 107.553  0.00  0.00    -0.069 A 
ATOM     14  C20 MOY d   1      22.946  16.551 106.475  0.00  0.00    -0.082 A 
ATOM     15  H10 MOY d   1      23.100  15.396 108.329  0.00  0.00     0.085 H 
ATOM     16  C21 MOY d   1      22.060  17.021 105.445  0.00  0.00    -0.083 A 
ATOM     17  H11 MOY d   1      24.001  16.797 106.436  0.00  0.00     0.083 H 
ATOM     18  C22 MOY d   1      20.717  16.708 105.503  0.00  0.00    -0.082 A 
ATOM     19  H12 MOY d   1      22.445  17.619 104.626  0.00  0.00     0.083 H 
ATOM     20  C23 MOY d   1      20.194  15.926 106.554  0.00  0.00    -0.069 A 
ATOM     21  H13 MOY d   1      20.052  17.070 104.727  0.00  0.00     0.083 H 
ATOM     22  H14 MOY d   1      19.137  15.686 106.572  0.00  0.00     0.085 H 
ENDBRANCH  10  12
ENDBRANCH   6  10
BRANCH   5  23
ATOM     23  C6  MOY d   1      18.765  17.439 109.178  0.00  0.00    -0.037 C 
ATOM     24  H7  MOY d   1      19.800  17.468 108.807  0.00  0.00     0.035 H 
ATOM     25  H8  MOY d   1      18.688  18.039 110.097  0.00  0.00     0.035 H 
ATOM     26  H9  MOY d   1      18.090  17.851 108.413  0.00  0.00     0.035 H 
ENDBRANCH   5  23
BRANCH   7  27
ATOM     27  C24 MOY d   1      18.563  13.627 111.597  0.00  0.00    -0.028 A 
ATOM     28  C25 MOY d   1      17.595  12.831 112.297  0.00  0.00    -0.043 A 
ATOM     29  C26 MOY d   1      17.556  12.831 113.722  0.00  0.00     0.066 A 
ATOM     30  H15 MOY d   1      16.890  12.226 111.739  0.00  0.00     0.088 H 
ATOM     31  C27 MOY d   1      18.472  13.618 114.465  0.00  0.00    -0.051 A 
ATOM     32  C28 MOY d   1      19.421  14.394 113.794  0.00  0.00    -0.080 A 
ATOM     33  H16 MOY d   1      18.436  13.618 115.548  0.00  0.00     0.087 H 
ATOM     34  C29 MOY d   1      19.477  14.409 112.371  0.00  0.00    -0.074 A 
ATOM     35  H17 MOY d   1      20.123  14.992 114.364  0.00  0.00     0.083 H 
ATOM     36  H18 MOY d   1      20.220  15.019 111.870  0.00  0.00     0.084 H 
BRANCH  29  37
ATOM     37  O4  MOY d   1      16.615  12.064 114.370  0.00  0.00    -0.361 OA
ATOM     38  H1  MOY d   1      15.745  12.345 114.110  0.00  0.00     0.217 HD
ENDBRANCH  29  37
ENDBRANCH   7  27
BRANCH   3  39
ATOM     39  C5  MOY d   1      16.384  16.909 110.774  0.00  0.00    -0.012 C 
ATOM     40  H4  MOY d   1      15.370  16.597 111.064  0.00  0.00     0.057 H 
ATOM     41  H5  MOY d   1      16.327  17.827 110.170  0.00  0.00     0.057 H 
ATOM     42  H6  MOY d   1      16.980  17.102 111.678  0.00  0.00     0.057 H 
ENDBRANCH   3  39
TORSDOF 6
