REMARK  16 active torsions:
REMARK  status: ('A' for Active; 'I' for Inactive)
REMARK    1  A    between atoms: C2_2  and  N1_1 
REMARK    2  A    between atoms: S8_8  and  C5_5 
REMARK    3  A    between atoms: N11_11  and  S8_8 
REMARK    4  A    between atoms: N11_11  and  C12_12 
REMARK    5  A    between atoms: C16_16  and  N11_11 
REMARK    6  A    between atoms: C12_12  and  C13_13 
REMARK    7  A    between atoms: C13_13  and  C14_14 
REMARK    8  A    between atoms: C13_13  and  C15_15 
REMARK    9  A    between atoms: C17_17  and  C16_16 
REMARK   10  A    between atoms: C17_17  and  O18_18 
REMARK   11  A    between atoms: C19_19  and  C17_17 
REMARK   12  A    between atoms: C19_19  and  N20_20 
REMARK   13  A    between atoms: C32_32  and  C19_19 
REMARK       I    between atoms: N20_20  and  C21_21 
REMARK   14  A    between atoms: C21_21  and  O23_23 
REMARK   15  A    between atoms: O23_23  and  C24_24 
REMARK   16  A    between atoms: C38_38  and  C32_32 
ROOT
ATOM      1  C19 017 d   1      15.013  22.828  17.177  0.00  0.00     0.044 C 
ATOM      2  H20 017 d   1      15.930  22.294  16.887  0.00  0.00     0.077 H 
ENDROOT
BRANCH   1   3
ATOM      3  C17 017 d   1      15.394  23.964  18.158  0.00  0.00     0.071 C 
ATOM      4  H18 017 d   1      15.755  23.523  19.099  0.00  0.00     0.088 H 
BRANCH   3   5
ATOM      5  C16 017 d   1      16.505  24.894  17.564  0.00  0.00     0.031 C 
ATOM      6  H16 017 d   1      16.248  25.165  16.529  0.00  0.00     0.069 H 
ATOM      7  H17 017 d   1      16.590  25.807  18.172  0.00  0.00     0.069 H 
BRANCH   5   8
ATOM      8  N11 017 d   1      17.794  24.157  17.584  0.00  0.00    -0.304 N 
BRANCH   8   9
ATOM      9  S8  017 d   1      18.450  23.799  15.993  0.00  0.00     0.260 S 
ATOM     10  O9  017 d   1      17.257  23.466  15.069  0.00  0.00    -0.200 OA
ATOM     11  O10 017 d   1      19.481  22.638  16.240  0.00  0.00    -0.200 OA
BRANCH   9  12
ATOM     12  C5  017 d   1      19.384  25.216  15.345  0.00  0.00     0.079 A 
ATOM     13  C4  017 d   1      18.626  26.160  14.675  0.00  0.00    -0.058 A 
ATOM     14  C3  017 d   1      19.188  27.333  14.210  0.00  0.00    -0.056 A 
ATOM     15  H4  017 d   1      17.570  25.975  14.512  0.00  0.00     0.086 H 
ATOM     16  C2  017 d   1      20.540  27.566  14.519  0.00  0.00     0.025 A 
ATOM     17  H3  017 d   1      18.611  28.045  13.631  0.00  0.00     0.086 H 
ATOM     18  C7  017 d   1      21.263  26.646  15.292  0.00  0.00    -0.056 A 
ATOM     19  C6  017 d   1      20.711  25.423  15.721  0.00  0.00    -0.058 A 
ATOM     20  H6  017 d   1      22.283  26.885  15.569  0.00  0.00     0.086 H 
ATOM     21  H5  017 d   1      21.274  24.699  16.299  0.00  0.00     0.086 H 
BRANCH  16  22
ATOM     22  N1  017 d   1      21.091  28.735  14.067  0.00  0.00    -0.399 N 
ATOM     23  H1  017 d   1      20.527  29.385  13.502  0.00  0.00     0.156 HD
ATOM     24  H2  017 d   1      22.070  28.964  14.293  0.00  0.00     0.156 HD
ENDBRANCH  16  22
ENDBRANCH   9  12
ENDBRANCH   8   9
BRANCH   8  25
ATOM     25  C12 017 d   1      18.783  24.426  18.632  0.00  0.00     0.008 C 
ATOM     26  H7  017 d   1      18.899  25.516  18.729  0.00  0.00     0.066 H 
ATOM     27  H8  017 d   1      19.742  23.981  18.327  0.00  0.00     0.066 H 
BRANCH  25  28
ATOM     28  C13 017 d   1      18.400  23.856  20.006  0.00  0.00    -0.045 C 
ATOM     29  H9  017 d   1      17.422  24.230  20.343  0.00  0.00     0.041 H 
BRANCH  28  30
ATOM     30  C14 017 d   1      18.368  22.352  19.893  0.00  0.00    -0.072 C 
ATOM     31  H10 017 d   1      18.096  21.917  20.866  0.00  0.00     0.028 H 
ATOM     32  H11 017 d   1      19.361  21.986  19.593  0.00  0.00     0.028 H 
ATOM     33  H12 017 d   1      17.624  22.057  19.138  0.00  0.00     0.028 H 
ENDBRANCH  28  30
BRANCH  28  34
ATOM     34  C15 017 d   1      19.503  24.335  20.920  0.00  0.00    -0.072 C 
ATOM     35  H13 017 d   1      19.486  25.434  20.970  0.00  0.00     0.028 H 
ATOM     36  H14 017 d   1      20.475  24.001  20.528  0.00  0.00     0.028 H 
ATOM     37  H15 017 d   1      19.351  23.919  21.927  0.00  0.00     0.028 H 
ENDBRANCH  28  34
ENDBRANCH  25  28
ENDBRANCH   8  25
ENDBRANCH   5   8
ENDBRANCH   3   5
BRANCH   3  38
ATOM     38  O18 017 d   1      14.232  24.764  18.409  0.00  0.00    -0.392 OA
ATOM     39  H19 017 d   1      13.934  25.152  17.595  0.00  0.00     0.210 HD
ENDBRANCH   3  38
ENDBRANCH   1   3
BRANCH   1  40
ATOM     40  N20 017 d   1      14.132  21.941  17.887  0.00  0.00    -0.329 N 
ATOM     41  C21 017 d   1      14.488  20.675  18.223  0.00  0.00     0.361 C 
ATOM     42  O22 017 d   1      15.587  20.086  17.955  0.00  0.00    -0.238 OA
ATOM     43  H21 017 d   1      13.223  22.269  18.143  0.00  0.00     0.165 HD
BRANCH  41  44
ATOM     44  O23 017 d   1      13.421  20.066  18.952  0.00  0.00    -0.296 OA
BRANCH  44  45
ATOM     45  C24 017 d   1      13.505  18.602  19.102  0.00  0.00     0.078 C 
ATOM     46  C25 017 d   1      12.839  18.351  20.485  0.00  0.00     0.048 C 
ATOM     47  O26 017 d   1      11.412  18.470  20.284  0.00  0.00    -0.358 OA
ATOM     48  H23 017 d   1      13.183  19.100  21.214  0.00  0.00     0.078 H 
ATOM     49  H24 017 d   1      13.088  17.343  20.849  0.00  0.00     0.078 H 
ATOM     50  C27 017 d   1      11.220  17.978  18.968  0.00  0.00     0.137 C 
ATOM     51  O28 017 d   1      10.297  18.806  18.291  0.00  0.00    -0.361 OA
ATOM     52  C31 017 d   1      12.470  17.887  18.213  0.00  0.00     0.023 C 
ATOM     53  H25 017 d   1      10.795  16.966  19.040  0.00  0.00     0.129 H 
ATOM     54  C29 017 d   1      11.042  19.444  17.241  0.00  0.00     0.023 C 
ATOM     55  C30 017 d   1      12.131  18.432  16.818  0.00  0.00    -0.035 C 
ATOM     56  H26 017 d   1      11.504  20.372  17.609  0.00  0.00     0.074 H 
ATOM     57  H27 017 d   1      10.383  19.675  16.391  0.00  0.00     0.074 H 
ATOM     58  H28 017 d   1      12.993  18.922  16.341  0.00  0.00     0.037 H 
ATOM     59  H29 017 d   1      11.738  17.651  16.150  0.00  0.00     0.037 H 
ATOM     60  H30 017 d   1      12.789  16.841  18.097  0.00  0.00     0.051 H 
ATOM     61  H22 017 d   1      14.529  18.217  18.990  0.00  0.00     0.088 H 
ENDBRANCH  44  45
ENDBRANCH  41  44
ENDBRANCH   1  40
BRANCH   1  62
ATOM     62  C32 017 d   1      14.294  23.285  15.896  0.00  0.00    -0.020 C 
ATOM     63  H31 017 d   1      14.962  23.961  15.342  0.00  0.00     0.043 H 
ATOM     64  H32 017 d   1      13.380  23.826  16.182  0.00  0.00     0.043 H 
BRANCH  62  65
ATOM     65  C38 017 d   1      13.902  22.114  14.968  0.00  0.00    -0.056 A 
ATOM     66  C33 017 d   1      12.549  21.750  14.881  0.00  0.00    -0.077 A 
ATOM     67  C34 017 d   1      12.148  20.661  14.069  0.00  0.00    -0.082 A 
ATOM     68  H33 017 d   1      11.805  22.307  15.440  0.00  0.00     0.084 H 
ATOM     69  C35 017 d   1      13.119  19.933  13.391  0.00  0.00    -0.083 A 
ATOM     70  H34 017 d   1      11.100  20.399  13.978  0.00  0.00     0.083 H 
ATOM     71  C36 017 d   1      14.471  20.240  13.517  0.00  0.00    -0.082 A 
ATOM     72  H35 017 d   1      12.818  19.111  12.752  0.00  0.00     0.083 H 
ATOM     73  C37 017 d   1      14.860  21.326  14.314  0.00  0.00    -0.077 A 
ATOM     74  H36 017 d   1      15.217  19.644  13.003  0.00  0.00     0.083 H 
ATOM     75  H37 017 d   1      15.913  21.559  14.426  0.00  0.00     0.084 H 
ENDBRANCH  62  65
ENDBRANCH   1  62
TORSDOF 16
