REMARK  16 active torsions:
REMARK  status: ('A' for Active; 'I' for Inactive)
REMARK    1  A    between atoms: C2_2  and  N1_1 
REMARK    2  A    between atoms: S8_8  and  C5_5 
REMARK    3  A    between atoms: N11_11  and  S8_8 
REMARK    4  A    between atoms: N11_11  and  C12_12 
REMARK    5  A    between atoms: C16_16  and  N11_11 
REMARK    6  A    between atoms: C12_12  and  C13_13 
REMARK    7  A    between atoms: C13_13  and  C14_14 
REMARK    8  A    between atoms: C13_13  and  C15_15 
REMARK    9  A    between atoms: C17_17  and  C16_16 
REMARK   10  A    between atoms: C17_17  and  O18_18 
REMARK   11  A    between atoms: C19_19  and  C17_17 
REMARK   12  A    between atoms: C19_19  and  N20_20 
REMARK   13  A    between atoms: C32_32  and  C19_19 
REMARK       I    between atoms: N20_20  and  C21_21 
REMARK   14  A    between atoms: C21_21  and  O23_23 
REMARK   15  A    between atoms: O23_23  and  C24_24 
REMARK   16  A    between atoms: C38_38  and  C32_32 
ROOT
ATOM      1  C19 017 d   1      14.828  23.005  16.898  0.00  0.00     0.044 C 
ATOM      2  H20 017 d   1      15.765  22.482  16.657  0.00  0.00     0.077 H 
ENDROOT
BRANCH   1   3
ATOM      3  C17 017 d   1      15.184  24.176  17.864  0.00  0.00     0.071 C 
ATOM      4  H18 017 d   1      15.514  23.709  18.804  0.00  0.00     0.088 H 
BRANCH   3   5
ATOM      5  C16 017 d   1      16.377  25.062  17.356  0.00  0.00     0.031 C 
ATOM      6  H16 017 d   1      16.159  25.404  16.334  0.00  0.00     0.069 H 
ATOM      7  H17 017 d   1      16.484  25.933  18.019  0.00  0.00     0.069 H 
BRANCH   5   8
ATOM      8  N11 017 d   1      17.669  24.291  17.349  0.00  0.00    -0.304 N 
BRANCH   8   9
ATOM      9  S8  017 d   1      18.309  23.896  15.739  0.00  0.00     0.260 S 
ATOM     10  O9  017 d   1      17.117  23.622  14.759  0.00  0.00    -0.200 OA
ATOM     11  O10 017 d   1      19.284  22.665  15.856  0.00  0.00    -0.200 OA
BRANCH   9  12
ATOM     12  C5  017 d   1      19.249  25.319  15.074  0.00  0.00     0.079 C 
ATOM     13  C4  017 d   1      18.446  26.308  14.487  0.00  0.00    -0.058 C 
ATOM     14  C3  017 d   1      19.055  27.497  14.071  0.00  0.00    -0.056 C 
ATOM     15  H4  017 d   1      17.381  26.155  14.359  0.00  0.00     0.086 H 
ATOM     16  C2  017 d   1      20.396  27.749  14.318  0.00  0.00     0.025 C 
ATOM     17  H3  017 d   1      18.465  28.238  13.544  0.00  0.00     0.086 H 
ATOM     18  C7  017 d   1      21.145  26.785  15.013  0.00  0.00    -0.056 C 
ATOM     19  C6  017 d   1      20.570  25.565  15.425  0.00  0.00    -0.058 C 
ATOM     20  H6  017 d   1      22.187  26.983  15.237  0.00  0.00     0.086 H 
ATOM     21  H5  017 d   1      21.141  24.843  15.997  0.00  0.00     0.086 H 
BRANCH  16  22
ATOM     22  N1  017 d   1      20.912  28.940  13.877  0.00  0.00    -0.399 N 
ATOM     23  H1  017 d   1      20.310  29.607  13.372  0.00  0.00     0.156 HD
ATOM     24  H2  017 d   1      21.901  29.168  14.050  0.00  0.00     0.156 HD
ENDBRANCH  16  22
ENDBRANCH   9  12
ENDBRANCH   8   9
BRANCH   8  25
ATOM     25  C12 017 d   1      18.662  24.546  18.410  0.00  0.00     0.008 C 
ATOM     26  H7  017 d   1      18.719  25.634  18.563  0.00  0.00     0.066 H 
ATOM     27  H8  017 d   1      19.635  24.174  18.056  0.00  0.00     0.066 H 
BRANCH  25  28
ATOM     28  C13 017 d   1      18.376  23.890  19.782  0.00  0.00    -0.045 C 
ATOM     29  H9  017 d   1      17.417  24.257  20.176  0.00  0.00     0.041 H 
BRANCH  28  30
ATOM     30  C14 017 d   1      18.326  22.382  19.668  0.00  0.00    -0.072 C 
ATOM     31  H10 017 d   1      18.122  21.946  20.657  0.00  0.00     0.028 H 
ATOM     32  H11 017 d   1      19.292  22.010  19.296  0.00  0.00     0.028 H 
ATOM     33  H12 017 d   1      17.528  22.093  18.968  0.00  0.00     0.028 H 
ENDBRANCH  28  30
BRANCH  28  34
ATOM     34  C15 017 d   1      19.509  24.282  20.717  0.00  0.00    -0.072 C 
ATOM     35  H13 017 d   1      19.550  25.378  20.804  0.00  0.00     0.028 H 
ATOM     36  H14 017 d   1      20.462  23.910  20.314  0.00  0.00     0.028 H 
ATOM     37  H15 017 d   1      19.334  23.842  21.710  0.00  0.00     0.028 H 
ENDBRANCH  28  34
ENDBRANCH  25  28
ENDBRANCH   8  25
ENDBRANCH   5   8
ENDBRANCH   3   5
BRANCH   3  38
ATOM     38  O18 017 d   1      14.063  24.992  18.182  0.00  0.00    -0.392 OA
ATOM     39  H19 017 d   1      13.789  25.467  17.407  0.00  0.00     0.210 HD
ENDBRANCH   3  38
ENDBRANCH   1   3
BRANCH   1  40
ATOM     40  N20 017 d   1      13.938  22.084  17.573  0.00  0.00    -0.329 N 
ATOM     41  C21 017 d   1      14.254  20.804  17.901  0.00  0.00     0.361 C 
ATOM     42  O22 017 d   1      15.362  20.230  17.610  0.00  0.00    -0.238 OA
ATOM     43  H21 017 d   1      13.025  22.413  17.815  0.00  0.00     0.165 HD
BRANCH  41  44
ATOM     44  O23 017 d   1      13.198  20.186  18.637  0.00  0.00    -0.296 OA
BRANCH  44  45
ATOM     45  C24 017 d   1      13.375  18.751  18.895  0.00  0.00     0.078 C 
ATOM     46  C25 017 d   1      12.775  18.504  20.296  0.00  0.00     0.048 C 
ATOM     47  O26 017 d   1      11.349  18.580  20.126  0.00  0.00    -0.358 OA
ATOM     48  H23 017 d   1      13.119  19.274  21.002  0.00  0.00     0.078 H 
ATOM     49  H24 017 d   1      13.065  17.510  20.668  0.00  0.00     0.078 H 
ATOM     50  C27 017 d   1      11.094  18.175  18.786  0.00  0.00     0.137 C 
ATOM     51  O28 017 d   1      10.132  18.983  18.078  0.00  0.00    -0.361 OA
ATOM     52  C31 017 d   1      12.344  18.018  18.021  0.00  0.00     0.023 C 
ATOM     53  H25 017 d   1      10.646  17.173  18.857  0.00  0.00     0.129 H 
ATOM     54  C29 017 d   1      10.878  19.525  16.999  0.00  0.00     0.023 C 
ATOM     55  C30 017 d   1      12.002  18.537  16.652  0.00  0.00    -0.035 C 
ATOM     56  H26 017 d   1      11.310  20.493  17.293  0.00  0.00     0.074 H 
ATOM     57  H27 017 d   1      10.223  19.666  16.127  0.00  0.00     0.074 H 
ATOM     58  H28 017 d   1      12.859  19.044  16.185  0.00  0.00     0.037 H 
ATOM     59  H29 017 d   1      11.646  17.733  15.990  0.00  0.00     0.037 H 
ATOM     60  H30 017 d   1      12.645  16.964  17.930  0.00  0.00     0.051 H 
ATOM     61  H22 017 d   1      14.412  18.406  18.768  0.00  0.00     0.088 H 
ENDBRANCH  44  45
ENDBRANCH  41  44
ENDBRANCH   1  40
BRANCH   1  62
ATOM     62  C32 017 d   1      14.159  23.419  15.550  0.00  0.00    -0.020 C 
ATOM     63  H31 017 d   1      14.877  24.015  14.969  0.00  0.00     0.043 H 
ATOM     64  H32 017 d   1      13.270  24.028  15.770  0.00  0.00     0.043 H 
BRANCH  62  65
ATOM     65  C38 017 d   1      13.728  22.203  14.705  0.00  0.00    -0.056 A 
ATOM     66  C33 017 d   1      12.411  21.769  14.613  0.00  0.00    -0.077 A 
ATOM     67  C34 017 d   1      12.072  20.632  13.848  0.00  0.00    -0.082 A 
ATOM     68  H33 017 d   1      11.632  22.312  15.137  0.00  0.00     0.084 H 
ATOM     69  C35 017 d   1      13.047  19.897  13.185  0.00  0.00    -0.083 A 
ATOM     70  H34 017 d   1      11.034  20.327  13.777  0.00  0.00     0.083 H 
ATOM     71  C36 017 d   1      14.390  20.292  13.303  0.00  0.00    -0.082 A 
ATOM     72  H35 017 d   1      12.776  19.034  12.587  0.00  0.00     0.083 H 
ATOM     73  C37 017 d   1      14.712  21.440  14.058  0.00  0.00    -0.077 A 
ATOM     74  H36 017 d   1      15.172  19.720  12.818  0.00  0.00     0.083 H 
ATOM     75  H37 017 d   1      15.750  21.741  14.140  0.00  0.00     0.084 H 
ENDBRANCH  62  65
ENDBRANCH   1  62
TORSDOF 16
