REMARK  15 active torsions:
REMARK  status: ('A' for Active; 'I' for Inactive)
REMARK    1  A    between atoms: N_1  and  CA_2 
REMARK    2  A    between atoms: CA_2  and  C_3 
REMARK    3  A    between atoms: CA_2  and  CB_5 
REMARK       I    between atoms: C_3  and  N_12 
REMARK    4  A    between atoms: CB_5  and  CG_6 
REMARK    5  A    between atoms: CG_6  and  CD_7 
REMARK    6  A    between atoms: CD_7  and  NE_8 
REMARK       I    between atoms: NE_8  and  CZ_9 
REMARK       I    between atoms: CZ_9  and  NH1_10 
REMARK    7  A    between atoms: N_12  and  CA_13 
REMARK    8  A    between atoms: CA_13  and  CB_14 
REMARK    9  A    between atoms: CA_13  and  C_21 
REMARK   10  A    between atoms: CB_14  and  CG_15 
REMARK   11  A    between atoms: CG_15  and  CD_16 
REMARK   12  A    between atoms: CD_16  and  CE_17 
REMARK   13  A    between atoms: CE_17  and  NZ_18 
REMARK   14  A    between atoms: NZ_18  and  CH1_19 
REMARK   15  A    between atoms: NZ_18  and  CH2_20 
ROOT
ATOM      1  C   ARG d   1      -7.295   3.531   6.362  0.00  0.00     0.248 C 
ATOM      2  O   ARG d   1      -8.469   3.432   5.951  0.00  0.00    -0.271 OA
ATOM      3  N   MLY d   1      -6.972   3.713   7.647  0.00  0.00    -0.355 N 
ATOM      4  H16 MLY d   1      -6.008   3.644   7.903  0.00  0.00     0.162 HD
ENDROOT
BRANCH   3   5
ATOM      5  CA  MLY d   1      -7.945   4.007   8.702  0.00  0.00     0.009 C 
ATOM      6  H17 MLY d   1      -8.897   3.542   8.406  0.00  0.00     0.071 H 
BRANCH   5   7
ATOM      7  CB  MLY d   1      -7.563   3.433  10.090  0.00  0.00    -0.046 C 
ATOM      8  H18 MLY d   1      -8.323   2.677  10.337  0.00  0.00     0.035 H 
ATOM      9  H19 MLY d   1      -7.630   4.267  10.804  0.00  0.00     0.035 H 
BRANCH   7  10
ATOM     10  CG  MLY d   1      -6.190   2.767  10.319  0.00  0.00    -0.062 C 
ATOM     11  H20 MLY d   1      -5.702   3.237  11.185  0.00  0.00     0.033 H 
ATOM     12  H21 MLY d   1      -5.566   2.910   9.424  0.00  0.00     0.033 H 
BRANCH  10  13
ATOM     13  CD  MLY d   1      -6.348   1.267  10.585  0.00  0.00    -0.042 C 
ATOM     14  H22 MLY d   1      -5.827   0.752   9.764  0.00  0.00     0.035 H 
ATOM     15  H23 MLY d   1      -7.426   1.056  10.524  0.00  0.00     0.035 H 
BRANCH  13  16
ATOM     16  CE  MLY d   1      -5.852   0.609  11.891  0.00  0.00     0.083 C 
ATOM     17  H24 MLY d   1      -6.386  -0.346  12.005  0.00  0.00     0.075 H 
ATOM     18  H25 MLY d   1      -6.117   1.279  12.722  0.00  0.00     0.075 H 
BRANCH  16  19
ATOM     19  NZ  MLY d   1      -4.372   0.320  11.992  0.00  0.00    -0.079 N 
ATOM     20  H26 MLY d   1      -4.006   1.000  12.640  0.00  0.00     0.278 HD
BRANCH  19  21
ATOM     21  CH1 MLY d   1      -4.088  -1.008  12.569  0.00  0.00     0.066 C 
ATOM     22  H27 MLY d   1      -3.000  -1.162  12.617  0.00  0.00     0.068 H 
ATOM     23  H28 MLY d   1      -4.540  -1.787  11.937  0.00  0.00     0.068 H 
ATOM     24  H29 MLY d   1      -4.512  -1.066  13.582  0.00  0.00     0.068 H 
ENDBRANCH  19  21
BRANCH  19  25
ATOM     25  CH2 MLY d   1      -3.615   0.499  10.740  0.00  0.00     0.066 C 
ATOM     26  H30 MLY d   1      -3.833   1.491  10.318  0.00  0.00     0.068 H 
ATOM     27  H31 MLY d   1      -3.909  -0.279  10.020  0.00  0.00     0.068 H 
ATOM     28  H32 MLY d   1      -2.538   0.418  10.948  0.00  0.00     0.068 H 
ENDBRANCH  19  25
ENDBRANCH  16  19
ENDBRANCH  13  16
ENDBRANCH  10  13
ENDBRANCH   7  10
ENDBRANCH   5   7
BRANCH   5  29
ATOM     29  C   MLY d   1      -8.164   5.501   8.806  0.00  0.00    -0.057 C 
ATOM     30  H33 MLY d   1      -8.896   5.710   9.600  0.00  0.00     0.030 H 
ATOM     31  H34 MLY d   1      -8.544   5.883   7.847  0.00  0.00     0.030 H 
ATOM     32  H35 MLY d   1      -7.211   5.995   9.046  0.00  0.00     0.030 H 
ENDBRANCH   5  29
ENDBRANCH   3   5
BRANCH   1  33
ATOM     33  CA  ARG d   1      -6.099   3.453   5.387  0.00  0.00     0.176 C 
ATOM     34  H4  ARG d   1      -6.374   3.983   4.463  0.00  0.00     0.099 H 
BRANCH  33  35
ATOM     35  N   ARG d   1      -4.930   4.132   5.988  0.00  0.00    -0.067 N 
ATOM     36  H1  ARG d   1      -4.149   4.082   5.353  0.00  0.00     0.275 HD
ATOM     37  H2  ARG d   1      -4.687   3.679   6.855  0.00  0.00     0.275 HD
ATOM     38  H3  ARG d   1      -5.157   5.098   6.165  0.00  0.00     0.275 HD
ENDBRANCH  33  35
BRANCH  33  39
ATOM     39  CB  ARG d   1      -5.749   1.996   5.013  0.00  0.00    -0.029 C 
ATOM     40  H5  ARG d   1      -6.574   1.352   5.351  0.00  0.00     0.036 H 
ATOM     41  H6  ARG d   1      -4.827   1.721   5.546  0.00  0.00     0.036 H 
BRANCH  39  42
ATOM     42  CG  ARG d   1      -5.525   1.731   3.505  0.00  0.00    -0.047 C 
ATOM     43  H7  ARG d   1      -5.840   2.633   2.961  0.00  0.00     0.035 H 
ATOM     44  H8  ARG d   1      -6.169   0.886   3.219  0.00  0.00     0.035 H 
BRANCH  42  45
ATOM     45  CD  ARG d   1      -4.069   1.389   3.044  0.00  0.00     0.009 C 
ATOM     46  H9  ARG d   1      -4.114   0.554   2.329  0.00  0.00     0.064 H 
ATOM     47  H10 ARG d   1      -3.484   1.087   3.925  0.00  0.00     0.064 H 
BRANCH  45  48
ATOM     48  NE  ARG d   1      -3.400   2.511   2.405  0.00  0.00    -0.227 N 
ATOM     49  CZ  ARG d   1      -2.645   3.396   3.043  0.00  0.00     0.665 C 
ATOM     50  NH1 ARG d   1      -2.438   3.289   4.342  0.00  0.00    -0.235 N 
ATOM     51  NH2 ARG d   1      -2.091   4.389   2.377  0.00  0.00    -0.235 N 
ATOM     52  H12 ARG d   1      -1.850   3.981   4.829  0.00  0.00     0.174 HD
ATOM     53  H13 ARG d   1      -2.864   2.514   4.869  0.00  0.00     0.174 HD
ATOM     54  H14 ARG d   1      -2.248   4.480   1.363  0.00  0.00     0.174 HD
ATOM     55  H15 ARG d   1      -1.501   5.074   2.870  0.00  0.00     0.174 HD
ATOM     56  H11 ARG d   1      -3.520   2.626   1.389  0.00  0.00     0.177 HD
ENDBRANCH  45  48
ENDBRANCH  42  45
ENDBRANCH  39  42
ENDBRANCH  33  39
ENDBRANCH   1  33
TORSDOF 15
