REMARK  5 active torsions:
REMARK  status: ('A' for Active; 'I' for Inactive)
REMARK    1  A    between atoms: N_1  and  CA_2 
REMARK    2  A    between atoms: CA_2  and  C_3 
REMARK    3  A    between atoms: CA_2  and  CB_5 
REMARK       I    between atoms: C_3  and  N_7 
REMARK    4  A    between atoms: CB_5  and  OG_6 
REMARK    5  A    between atoms: CA_8  and  C_9 
ROOT
ATOM      1  C   SER d   1      47.899  17.417  13.023  0.00  0.00     0.253 C 
ATOM      2  O   SER d   1      48.228  18.389  12.338  0.00  0.00    -0.271 OA
ATOM      3  H8  SER d   1      48.018  15.010  14.450  0.00  0.00     0.089 H 
ATOM      4  H9  SER d   1      50.324  15.008  15.051  0.00  0.00     0.036 H 
ATOM      5  H10 SER d   1      49.587  15.255  16.670  0.00  0.00     0.036 H 
ATOM      6  H11 SER d   1      51.413  17.000  15.706  0.00  0.00     0.035 H 
ATOM      7  H12 SER d   1      49.997  17.580  16.647  0.00  0.00     0.035 H 
ATOM      8  H13 SER d   1      49.534  18.823  14.750  0.00  0.00     0.064 H 
ATOM      9  H14 SER d   1      50.548  17.773  13.702  0.00  0.00     0.064 H 
ATOM     10  N   PRO d   1      48.597  17.021  14.108  0.00  0.00    -0.336 N 
ATOM     11  CA  PRO d   1      48.344  15.899  15.010  0.00  0.00     0.098 C 
ATOM     12  CB  PRO d   1      49.703  15.679  15.662  0.00  0.00    -0.035 C 
ATOM     13  CG  PRO d   1      50.315  17.062  15.730  0.00  0.00    -0.048 C 
ATOM     14  CD  PRO d   1      49.797  17.783  14.506  0.00  0.00    -0.001 C 
ENDROOT
BRANCH   1  15
ATOM     15  CA  SER d   1      46.678  16.590  12.617  0.00  0.00     0.196 C 
ATOM     16  H4  SER d   1      46.272  16.065  13.495  0.00  0.00     0.102 H 
BRANCH  15  17
ATOM     17  N   SER d   1      45.637  17.502  12.058  0.00  0.00    -0.064 N 
ATOM     18  H1  SER d   1      44.829  16.964  11.788  0.00  0.00     0.275 HD
ATOM     19  H2  SER d   1      46.007  17.980  11.251  0.00  0.00     0.275 HD
ATOM     20  H3  SER d   1      45.372  18.178  12.757  0.00  0.00     0.275 HD
ENDBRANCH  15  17
BRANCH  15  21
ATOM     21  CB  SER d   1      47.120  15.567  11.566  0.00  0.00     0.051 C 
ATOM     22  H5  SER d   1      47.968  14.988  11.961  0.00  0.00     0.077 H 
ATOM     23  H6  SER d   1      47.432  16.098  10.655  0.00  0.00     0.077 H 
BRANCH  21  24
ATOM     24  OG  SER d   1      46.062  14.682  11.247  0.00  0.00    -0.398 OA
ATOM     25  H7  SER d   1      45.791  14.218  12.031  0.00  0.00     0.209 HD
ENDBRANCH  21  24
ENDBRANCH  15  21
ENDBRANCH   1  15
BRANCH  11  26
ATOM     26  C   PRO d   1      47.307  16.238  16.079  0.00  0.00     0.196 C 
ATOM     27  O   PRO d   1      46.780  17.354  16.156  0.00  0.00    -0.646 OA
ATOM     28  OXT PRO d   1      46.990  15.380  16.918  0.00  0.00    -0.646 OA
ENDBRANCH  11  26
TORSDOF 5
