REMARK  3 active torsions:
REMARK  status: ('A' for Active; 'I' for Inactive)
REMARK    1  A    between atoms: N_1  and  CA_2 
REMARK    2  A    between atoms: CA_2  and  C_3 
REMARK       I    between atoms: C_3  and  N_5 
REMARK    3  A    between atoms: CA_6  and  C_7 
ROOT
ATOM      1  C   PRO d   1      48.279  17.667  13.054  0.00  0.00     0.246 C 
ATOM      2  O   PRO d   1      48.541  18.643  12.326  0.00  0.00    -0.272 OA
ATOM      3  N   PRO d   1      48.996  17.366  14.142  0.00  0.00    -0.336 N 
ATOM      4  CA  PRO d   1      48.705  16.228  15.027  0.00  0.00     0.098 C 
ATOM      5  CB  PRO d   1      50.078  15.942  15.640  0.00  0.00    -0.035 C 
ATOM      6  CG  PRO d   1      50.736  17.331  15.750  0.00  0.00    -0.048 C 
ATOM      7  CD  PRO d   1      50.143  18.159  14.622  0.00  0.00    -0.001 C 
ATOM      8  H6  PRO d   1      48.343  15.369  14.442  0.00  0.00     0.089 H 
ATOM      9  H7  PRO d   1      50.667  15.281  14.987  0.00  0.00     0.036 H 
ATOM     10  H8  PRO d   1      49.974  15.479  16.633  0.00  0.00     0.036 H 
ATOM     11  H9  PRO d   1      51.827  17.249  15.633  0.00  0.00     0.035 H 
ATOM     12  H10 PRO d   1      50.505  17.788  16.723  0.00  0.00     0.035 H 
ATOM     13  H11 PRO d   1      49.809  19.139  14.994  0.00  0.00     0.064 H 
ATOM     14  H12 PRO d   1      50.879  18.303  13.818  0.00  0.00     0.064 H 
ENDROOT
BRANCH   1  15
ATOM     15  CA  PRO d   1      47.084  16.773  12.726  0.00  0.00     0.152 C 
ATOM     16  H4  PRO d   1      47.393  16.016  11.990  0.00  0.00     0.090 H 
ATOM     17  H5  PRO d   1      46.746  16.273  13.646  0.00  0.00     0.090 H 
BRANCH  15  18
ATOM     18  N   PRO d   1      45.950  17.575  12.159  0.00  0.00    -0.071 N 
ATOM     19  H1  PRO d   1      45.176  16.963  11.952  0.00  0.00     0.274 HD
ATOM     20  H2  PRO d   1      46.252  18.033  11.313  0.00  0.00     0.274 HD
ATOM     21  H3  PRO d   1      45.660  18.268  12.831  0.00  0.00     0.274 HD
ENDBRANCH  15  18
ENDBRANCH   1  15
BRANCH   4  22
ATOM     22  C   PRO d   1      47.664  16.548  16.152  0.00  0.00     0.196 C 
ATOM     23  O   PRO d   1      47.048  17.638  16.345  0.00  0.00    -0.646 OA
ATOM     24  OXT PRO d   1      47.406  15.671  16.980  0.00  0.00    -0.646 OA
ENDBRANCH   4  22
TORSDOF 3
