REMARK  17 active torsions:
REMARK  status: ('A' for Active; 'I' for Inactive)
REMARK    1  A    between atoms: C20_2  and  C23_3 
REMARK       I    between atoms: C20_2  and  N19_14 
REMARK    2  A    between atoms: C33_6  and  C35_7 
REMARK    3  A    between atoms: C35_7  and  C37_8 
REMARK    4  A    between atoms: C37_8  and  C39_9 
REMARK    5  A    between atoms: C39_9  and  C42_10 
REMARK    6  A    between atoms: C42_10  and  C43_11 
REMARK    7  A    between atoms: N19_14  and  C21_15 
REMARK    8  A    between atoms: N19_14  and  C18_26 
REMARK    9  A    between atoms: N32_18  and  C34_19 
REMARK   10  A    between atoms: C34_19  and  C36_20 
REMARK   11  A    between atoms: C36_20  and  C38_21 
REMARK   12  A    between atoms: C38_21  and  C41_22 
REMARK   13  A    between atoms: C38_21  and  C40_23 
REMARK   14  A    between atoms: C18_26  and  C17_27 
REMARK   15  A    between atoms: C12_32  and  N44_33 
REMARK   16  A    between atoms: N44_33  and  C45_34 
REMARK   17  A    between atoms: N44_33  and  C4_35 
ROOT
ATOM      1  O22 A2T d   1      44.917   0.354 -13.781  0.00  0.00    -0.267 OA
ATOM      2  C20 A2T d   1      43.865  -0.159 -13.468  0.00  0.00     0.254 C 
ATOM      3  N19 A2T d   1      43.856  -1.164 -12.577  0.00  0.00    -0.339 N 
ENDROOT
BRANCH   3   4
ATOM      4  C21 A2T d   1      45.179  -1.673 -12.173  0.00  0.00     0.018 C 
ATOM      5  C25 A2T d   1      45.306  -3.172 -12.449  0.00  0.00    -0.023 C 
ATOM      6  C29 A2T d   1      46.750  -3.537 -12.168  0.00  0.00     0.085 C 
ATOM      7  H17 A2T d   1      45.056  -3.388 -13.498  0.00  0.00     0.038 H 
ATOM      8  H18 A2T d   1      44.635  -3.739 -11.788  0.00  0.00     0.038 H 
ATOM      9  N32 A2T d   1      46.984  -3.264 -10.753  0.00  0.00    -0.071 N 
ATOM     10  H19 A2T d   1      47.423  -2.927 -12.788  0.00  0.00     0.076 H 
ATOM     11  H20 A2T d   1      46.920  -4.603 -12.382  0.00  0.00     0.076 H 
ATOM     12  C28 A2T d   1      46.918  -1.825 -10.434  0.00  0.00     0.085 C 
ATOM     13  H21 A2T d   1      46.287  -3.736 -10.199  0.00  0.00     0.279 HD
ATOM     14  C24 A2T d   1      45.475  -1.389 -10.690  0.00  0.00    -0.023 C 
ATOM     15  H33 A2T d   1      47.606  -1.260 -11.081  0.00  0.00     0.076 H 
ATOM     16  H34 A2T d   1      47.184  -1.657  -9.380  0.00  0.00     0.076 H 
ATOM     17  H35 A2T d   1      44.788  -1.962 -10.050  0.00  0.00     0.038 H 
ATOM     18  H36 A2T d   1      45.361  -0.315 -10.480  0.00  0.00     0.038 H 
ATOM     19  H16 A2T d   1      45.936  -1.150 -12.776  0.00  0.00     0.073 H 
BRANCH   9  20
ATOM     20  C34 A2T d   1      48.291  -3.843 -10.485  0.00  0.00     0.084 C 
ATOM     21  H22 A2T d   1      49.001  -3.533 -11.266  0.00  0.00     0.076 H 
ATOM     22  H23 A2T d   1      48.215  -4.940 -10.474  0.00  0.00     0.076 H 
BRANCH  20  23
ATOM     23  C36 A2T d   1      48.772  -3.350  -9.131  0.00  0.00    -0.040 C 
ATOM     24  H24 A2T d   1      47.962  -3.452  -8.394  0.00  0.00     0.035 H 
ATOM     25  H25 A2T d   1      49.067  -2.293  -9.209  0.00  0.00     0.035 H 
BRANCH  23  26
ATOM     26  C38 A2T d   1      49.966  -4.178  -8.689  0.00  0.00    -0.060 C 
ATOM     27  H26 A2T d   1      49.919  -5.149  -9.203  0.00  0.00     0.038 H 
BRANCH  26  28
ATOM     28  C41 A2T d   1      49.894  -4.446  -7.185  0.00  0.00    -0.073 C 
ATOM     29  H27 A2T d   1      50.763  -5.046  -6.878  0.00  0.00     0.028 H 
ATOM     30  H28 A2T d   1      48.969  -4.995  -6.954  0.00  0.00     0.028 H 
ATOM     31  H29 A2T d   1      49.898  -3.490  -6.641  0.00  0.00     0.028 H 
ENDBRANCH  26  28
BRANCH  26  32
ATOM     32  C40 A2T d   1      51.268  -3.495  -9.109  0.00  0.00    -0.073 C 
ATOM     33  H30 A2T d   1      51.261  -3.329 -10.196  0.00  0.00     0.028 H 
ATOM     34  H31 A2T d   1      52.121  -4.136  -8.841  0.00  0.00     0.028 H 
ATOM     35  H32 A2T d   1      51.359  -2.529  -8.591  0.00  0.00     0.028 H 
ENDBRANCH  26  32
ENDBRANCH  23  26
ENDBRANCH  20  23
ENDBRANCH   9  20
ENDBRANCH   3   4
BRANCH   3  36
ATOM     36  C18 A2T d   1      42.695  -1.778 -11.932  0.00  0.00     0.022 C 
ATOM     37  H37 A2T d   1      41.872  -1.048 -11.930  0.00  0.00     0.071 H 
ATOM     38  H38 A2T d   1      42.966  -2.028 -10.896  0.00  0.00     0.071 H 
BRANCH  36  39
ATOM     39  C17 A2T d   1      42.212  -3.041 -12.618  0.00  0.00    -0.040 A 
ATOM     40  C15 A2T d   1      41.579  -4.035 -11.859  0.00  0.00    -0.073 A 
ATOM     41  C13 A2T d   1      41.127  -5.205 -12.478  0.00  0.00    -0.057 A 
ATOM     42  H39 A2T d   1      41.440  -3.897 -10.793  0.00  0.00     0.084 H 
ATOM     43  C12 A2T d   1      41.309  -5.385 -13.856  0.00  0.00     0.034 A 
ATOM     44  H40 A2T d   1      40.636  -5.973 -11.892  0.00  0.00     0.086 H 
ATOM     45  C14 A2T d   1      41.947  -4.400 -14.604  0.00  0.00    -0.057 A 
ATOM     46  C16 A2T d   1      42.393  -3.238 -13.990  0.00  0.00    -0.073 A 
ATOM     47  H42 A2T d   1      42.096  -4.541 -15.668  0.00  0.00     0.086 H 
ATOM     48  H41 A2T d   1      42.887  -2.475 -14.581  0.00  0.00     0.084 H 
BRANCH  43  49
ATOM     49  N44 A2T d   1      40.862  -6.558 -14.495  0.00  0.00    -0.351 N 
BRANCH  49  50
ATOM     50  C45 A2T d   1      39.513  -6.359 -15.016  0.00  0.00    -0.013 C 
ATOM     51  H43 A2T d   1      39.281  -5.284 -15.032  0.00  0.00     0.057 H 
ATOM     52  H44 A2T d   1      38.790  -6.880 -14.371  0.00  0.00     0.057 H 
ATOM     53  H45 A2T d   1      39.451  -6.763 -16.037  0.00  0.00     0.057 H 
ENDBRANCH  49  50
BRANCH  49  54
ATOM     54  C4  A2T d   1      41.279  -7.900 -14.424  0.00  0.00     0.037 A 
ATOM     55  C2  A2T d   1      40.891  -8.827 -15.402  0.00  0.00    -0.040 A 
ATOM     56  C3  A2T d   1      41.323 -10.151 -15.284  0.00  0.00     0.004 A 
ATOM     57  H46 A2T d   1      40.267  -8.522 -16.235  0.00  0.00     0.089 H 
ATOM     58  N6  A2T d   1      42.109 -10.535 -14.249  0.00  0.00    -0.273 NA
ATOM     59  H49 A2T d   1      41.026 -10.880 -16.029  0.00  0.00     0.114 H 
ATOM     60  C9  A2T d   1      42.505  -9.663 -13.298  0.00  0.00     0.004 A 
ATOM     61  C8  A2T d   1      42.095  -8.328 -13.368  0.00  0.00    -0.040 A 
ATOM     62  H48 A2T d   1      43.138  -9.996 -12.484  0.00  0.00     0.114 H 
ATOM     63  H47 A2T d   1      42.408  -7.624 -12.605  0.00  0.00     0.089 H 
ENDBRANCH  49  54
ENDBRANCH  43  49
ENDBRANCH  36  39
ENDBRANCH   3  36
BRANCH   2  64
ATOM     64  C23 A2T d   1      42.607   0.399 -14.077  0.00  0.00     0.032 A 
ATOM     65  C27 A2T d   1      42.004   1.512 -13.487  0.00  0.00    -0.067 A 
ATOM     66  C31 A2T d   1      40.826   2.031 -14.031  0.00  0.00    -0.076 A 
ATOM     67  H1  A2T d   1      42.448   1.971 -12.611  0.00  0.00     0.085 H 
ATOM     68  C33 A2T d   1      40.256   1.449 -15.169  0.00  0.00    -0.058 A 
ATOM     69  H2  A2T d   1      40.351   2.889 -13.569  0.00  0.00     0.084 H 
ATOM     70  C30 A2T d   1      40.861   0.346 -15.768  0.00  0.00    -0.076 A 
ATOM     71  C26 A2T d   1      42.044  -0.172 -15.223  0.00  0.00    -0.067 A 
ATOM     72  H14 A2T d   1      40.420  -0.108 -16.648  0.00  0.00     0.084 H 
ATOM     73  H15 A2T d   1      42.526  -1.021 -15.693  0.00  0.00     0.085 H 
BRANCH  68  74
ATOM     74  C35 A2T d   1      38.996   2.034 -15.760  0.00  0.00    -0.041 C 
ATOM     75  H3  A2T d   1      38.947   1.783 -16.830  0.00  0.00     0.040 H 
ATOM     76  H4  A2T d   1      39.013   3.127 -15.640  0.00  0.00     0.040 H 
BRANCH  74  77
ATOM     77  C37 A2T d   1      37.767   1.471 -15.056  0.00  0.00    -0.061 C 
ATOM     78  H5  A2T d   1      37.890   1.546 -13.966  0.00  0.00     0.033 H 
ATOM     79  H6  A2T d   1      37.621   0.417 -15.337  0.00  0.00     0.033 H 
BRANCH  77  80
ATOM     80  C39 A2T d   1      36.575   2.298 -15.503  0.00  0.00    -0.065 C 
ATOM     81  H7  A2T d   1      36.859   2.889 -16.386  0.00  0.00     0.033 H 
ATOM     82  H8  A2T d   1      36.282   2.975 -14.687  0.00  0.00     0.033 H 
BRANCH  80  83
ATOM     83  C42 A2T d   1      35.397   1.415 -15.858  0.00  0.00    -0.069 C 
ATOM     84  H9  A2T d   1      35.511   0.439 -15.364  0.00  0.00     0.032 H 
ATOM     85  H10 A2T d   1      35.364   1.272 -16.948  0.00  0.00     0.032 H 
BRANCH  83  86
ATOM     86  C43 A2T d   1      34.108   2.061 -15.399  0.00  0.00    -0.077 C 
ATOM     87  H11 A2T d   1      33.259   1.412 -15.661  0.00  0.00     0.027 H 
ATOM     88  H12 A2T d   1      33.990   3.037 -15.893  0.00  0.00     0.027 H 
ATOM     89  H13 A2T d   1      34.137   2.204 -14.309  0.00  0.00     0.027 H 
ENDBRANCH  83  86
ENDBRANCH  80  83
ENDBRANCH  77  80
ENDBRANCH  74  77
ENDBRANCH  68  74
ENDBRANCH   2  64
TORSDOF 17
