REMARK  7 active torsions:
REMARK  status: ('A' for Active; 'I' for Inactive)
REMARK    1  A    between atoms: C3_3  and  C11_9 
REMARK    2  A    between atoms: C11_9  and  C12_10 
REMARK    3  A    between atoms: C12_10  and  C15_11 
REMARK    4  A    between atoms: C12_10  and  N20_14 
REMARK    5  A    between atoms: C15_11  and  C16_12 
REMARK       I    between atoms: C16_12  and  N19_13 
REMARK    6  A    between atoms: C30_21  and  C37_22 
REMARK    7  A    between atoms: C37_22  and  C42_25 
ROOT
ATOM      1  C16 872 d   1      41.509  50.844  36.031  0.00  0.00     0.222 C 
ATOM      2  N19 872 d   1      42.697  51.546  36.372  0.00  0.00    -0.338 N 
ATOM      3  O22 872 d   1      41.347  49.647  36.316  0.00  0.00    -0.273 OA
ATOM      4  C25 872 d   1      43.202  52.653  35.477  0.00  0.00     0.000 C 
ATOM      5  C26 872 d   1      44.128  52.116  34.392  0.00  0.00    -0.035 C 
ATOM      6  C27 872 d   1      45.335  51.384  34.988  0.00  0.00    -0.003 C 
ATOM      7  N28 872 d   1      45.038  50.612  36.192  0.00  0.00    -0.359 N 
ATOM      8  C29 872 d   1      44.842  50.518  37.465  0.00  0.00     0.240 C 
ATOM      9  C30 872 d   1      43.371  51.086  37.676  0.00  0.00     0.099 C 
ATOM     10  O39 872 d   1      45.508  50.123  38.396  0.00  0.00    -0.271 OA
ATOM     11  H11 872 d   1      43.753  53.383  36.088  0.00  0.00     0.064 H 
ATOM     12  H12 872 d   1      42.343  53.148  35.001  0.00  0.00     0.064 H 
ATOM     13  H13 872 d   1      44.487  52.958  33.782  0.00  0.00     0.037 H 
ATOM     14  H14 872 d   1      43.565  51.416  33.757  0.00  0.00     0.037 H 
ATOM     15  H15 872 d   1      46.101  52.132  35.239  0.00  0.00     0.064 H 
ATOM     16  H16 872 d   1      45.730  50.696  34.227  0.00  0.00     0.064 H 
ATOM     17  H17 872 d   1      44.932  49.675  35.860  0.00  0.00     0.162 HD
ATOM     18  H18 872 d   1      42.889  50.106  37.545  0.00  0.00     0.088 H 
ENDROOT
BRANCH   1  19
ATOM     19  C15 872 d   1      40.343  51.639  35.288  0.00  0.00     0.036 C 
ATOM     20  H6  872 d   1      40.068  52.499  35.916  0.00  0.00     0.050 H 
ATOM     21  H7  872 d   1      40.739  51.999  34.327  0.00  0.00     0.050 H 
BRANCH  19  22
ATOM     22  C12 872 d   1      39.060  50.835  34.999  0.00  0.00     0.112 C 
ATOM     23  H5  872 d   1      39.275  49.911  34.443  0.00  0.00     0.085 H 
BRANCH  22  24
ATOM     24  C11 872 d   1      38.390  50.564  36.428  0.00  0.00    -0.011 C 
ATOM     25  H3  872 d   1      39.033  49.860  36.975  0.00  0.00     0.043 H 
ATOM     26  H4  872 d   1      38.349  51.520  36.970  0.00  0.00     0.043 H 
BRANCH  24  27
ATOM     27  C3  872 d   1      37.004  49.993  36.395  0.00  0.00    -0.015 A 
ATOM     28  C2  872 d   1      35.838  50.809  36.664  0.00  0.00     0.125 A 
ATOM     29  C1  872 d   1      34.506  50.294  36.629  0.00  0.00    -0.005 A 
ATOM     30  F10 872 d   1      36.007  52.083  36.962  0.00  0.00    -0.205 F 
ATOM     31  C6  872 d   1      34.349  48.913  36.311  0.00  0.00     0.157 A 
ATOM     32  H1  872 d   1      33.650  50.927  36.836  0.00  0.00     0.093 H 
ATOM     33  C5  872 d   1      35.491  48.095  36.048  0.00  0.00     0.155 A 
ATOM     34  F41 872 d   1      33.140  48.378  36.263  0.00  0.00    -0.203 F 
ATOM     35  C4  872 d   1      36.810  48.620  36.084  0.00  0.00    -0.034 A 
ATOM     36  F9  872 d   1      35.327  46.825  35.756  0.00  0.00    -0.203 F 
ATOM     37  H2  872 d   1      37.660  47.980  35.876  0.00  0.00     0.089 H 
ENDBRANCH  24  27
ENDBRANCH  22  24
BRANCH  22  38
ATOM     38  N20 872 d   1      38.216  51.568  34.399  0.00  0.00    -0.074 N 
ATOM     39  H8  872 d   1      37.380  51.036  34.214  0.00  0.00     0.274 HD
ATOM     40  H9  872 d   1      38.609  51.890  33.529  0.00  0.00     0.274 HD
ATOM     41  H10 872 d   1      37.988  52.361  34.978  0.00  0.00     0.274 HD
ENDBRANCH  22  38
ENDBRANCH  19  22
ENDBRANCH   1  19
BRANCH   9  42
ATOM     42  C37 872 d   1      42.991  51.040  39.217  0.00  0.00     0.053 C 
ATOM     43  H19 872 d   1      42.895  52.079  39.564  0.00  0.00     0.050 H 
ATOM     44  H20 872 d   1      43.822  50.551  39.747  0.00  0.00     0.050 H 
BRANCH  42  45
ATOM     45  C42 872 d   1      41.701  50.304  39.605  0.00  0.00     0.390 C 
ATOM     46  F45 872 d   1      41.543  50.358  40.913  0.00  0.00    -0.171 F 
ATOM     47  F46 872 d   1      41.761  49.030  39.264  0.00  0.00    -0.171 F 
ATOM     48  F47 872 d   1      40.639  50.831  39.030  0.00  0.00    -0.171 F 
ENDBRANCH  42  45
ENDBRANCH   9  42
TORSDOF 7
