REMARK  6 active torsions:
REMARK  status: ('A' for Active; 'I' for Inactive)
REMARK    1  A    between atoms: C3_3  and  C11_9 
REMARK    2  A    between atoms: C11_9  and  C12_10 
REMARK    3  A    between atoms: C12_10  and  C15_11 
REMARK    4  A    between atoms: C12_10  and  N20_14 
REMARK    5  A    between atoms: C15_11  and  C16_12 
REMARK       I    between atoms: C16_12  and  N19_13 
REMARK    6  A    between atoms: C30_21  and  C37_22 
ROOT
ATOM      1  C15 565 d   1      40.353  51.680  35.453  0.00  0.00     0.036 C 
ATOM      2  H6  565 d   1      40.157  52.474  36.188  0.00  0.00     0.050 H 
ATOM      3  H7  565 d   1      40.709  52.129  34.514  0.00  0.00     0.050 H 
ENDROOT
BRANCH   1   4
ATOM      4  C12 565 d   1      39.139  51.066  35.180  0.00  0.00     0.112 C 
ATOM      5  H5  565 d   1      39.292  50.107  34.663  0.00  0.00     0.085 H 
BRANCH   4   6
ATOM      6  C11 565 d   1      38.574  50.857  36.663  0.00  0.00    -0.011 C 
ATOM      7  H3  565 d   1      39.245  50.202  37.237  0.00  0.00     0.043 H 
ATOM      8  H4  565 d   1      38.482  51.826  37.175  0.00  0.00     0.043 H 
BRANCH   6   9
ATOM      9  C3  565 d   1      37.243  50.226  36.519  0.00  0.00    -0.015 A 
ATOM     10  C2  565 d   1      36.054  51.071  36.724  0.00  0.00     0.125 A 
ATOM     11  C1  565 d   1      34.700  50.550  36.584  0.00  0.00    -0.005 A 
ATOM     12  F10 565 d   1      36.203  52.333  37.053  0.00  0.00    -0.205 F 
ATOM     13  C6  565 d   1      34.555  49.149  36.219  0.00  0.00     0.157 A 
ATOM     14  H1  565 d   1      33.834  51.182  36.746  0.00  0.00     0.093 H 
ATOM     15  C5  565 d   1      35.734  48.277  36.015  0.00  0.00     0.155 A 
ATOM     16  F44 565 d   1      33.387  48.666  36.084  0.00  0.00    -0.203 F 
ATOM     17  C4  565 d   1      37.072  48.795  36.150  0.00  0.00    -0.034 A 
ATOM     18  F9  565 d   1      35.585  47.020  35.689  0.00  0.00    -0.203 F 
ATOM     19  H2  565 d   1      37.933  48.157  35.987  0.00  0.00     0.089 H 
ENDBRANCH   6   9
ENDBRANCH   4   6
BRANCH   4  20
ATOM     20  N20 565 d   1      38.196  51.902  34.383  0.00  0.00    -0.074 N 
ATOM     21  H8  565 d   1      37.342  51.389  34.227  0.00  0.00     0.274 HD
ATOM     22  H9  565 d   1      38.617  52.131  33.496  0.00  0.00     0.274 HD
ATOM     23  H10 565 d   1      37.991  52.751  34.887  0.00  0.00     0.274 HD
ENDBRANCH   4  20
ENDBRANCH   1   4
BRANCH   1  24
ATOM     24  C16 565 d   1      41.556  50.778  36.035  0.00  0.00     0.222 C 
ATOM     25  N19 565 d   1      42.782  51.356  36.244  0.00  0.00    -0.339 N 
ATOM     26  C25 565 d   1      43.167  52.832  35.944  0.00  0.00    -0.000 C 
ATOM     27  C30 565 d   1      43.728  50.324  36.881  0.00  0.00     0.088 C 
ATOM     28  C26 565 d   1      43.484  52.722  34.534  0.00  0.00    -0.035 C 
ATOM     29  H11 565 d   1      44.036  53.156  36.535  0.00  0.00     0.064 H 
ATOM     30  H12 565 d   1      42.326  53.519  36.122  0.00  0.00     0.064 H 
ATOM     31  C27 565 d   1      44.748  51.971  34.125  0.00  0.00    -0.003 C 
ATOM     32  H13 565 d   1      43.574  53.745  34.141  0.00  0.00     0.037 H 
ATOM     33  H14 565 d   1      42.636  52.216  34.050  0.00  0.00     0.037 H 
ATOM     34  N28 565 d   1      45.559  51.465  35.334  0.00  0.00    -0.359 N 
ATOM     35  H15 565 d   1      45.383  52.647  33.534  0.00  0.00     0.064 H 
ATOM     36  H16 565 d   1      44.460  51.107  33.509  0.00  0.00     0.064 H 
ATOM     37  C29 565 d   1      45.252  50.772  36.543  0.00  0.00     0.240 C 
ATOM     38  H17 565 d   1      46.534  51.672  35.251  0.00  0.00     0.162 HD
ATOM     39  O42 565 d   1      46.180  50.578  37.249  0.00  0.00    -0.271 OA
ATOM     40  H18 565 d   1      43.487  49.337  36.459  0.00  0.00     0.087 H 
ATOM     41  O22 565 d   1      41.327  49.603  36.284  0.00  0.00    -0.273 OA
BRANCH  27  42
ATOM     42  C37 565 d   1      43.814  50.217  38.411  0.00  0.00    -0.049 C 
ATOM     43  H19 565 d   1      44.535  49.432  38.684  0.00  0.00     0.030 H 
ATOM     44  H20 565 d   1      42.824  49.962  38.817  0.00  0.00     0.030 H 
ATOM     45  H21 565 d   1      44.145  51.180  38.828  0.00  0.00     0.030 H 
ENDBRANCH  27  42
ENDBRANCH   1  24
TORSDOF 6
