REMARK  10 active torsions:
REMARK  status: ('A' for Active; 'I' for Inactive)
REMARK    1  A    between atoms: C1_16  and  N3_2 
REMARK    2  A    between atoms: C12_21  and  C4_3 
REMARK    3  A    between atoms: C6_4  and  C20_11 
REMARK    4  A    between atoms: C3_17  and  C6_4 
REMARK    5  A    between atoms: C15_9  and  C21_12 
REMARK    6  A    between atoms: C16_28  and  C17_10 
REMARK    7  A    between atoms: C17_10  and  C18_29 
REMARK    8  A    between atoms: N5_27  and  C16_28 
REMARK    9  A    between atoms: C18_29  and  O1_30 
REMARK   10  A    between atoms: O1_30  and  C19_31 
ROOT
ATOM      1  C7  LIY d   1     -14.019  26.227 -35.035  0.00  0.00    -0.071 A 
ATOM      2  C8  LIY d   1     -14.892  25.452 -35.803  0.00  0.00    -0.074 A 
ATOM      3  C10 LIY d   1     -13.011  24.052 -36.559  0.00  0.00     0.038 A 
ATOM      4  C13 LIY d   1     -15.371  23.566 -37.394  0.00  0.00    -0.037 C 
ATOM      5  C15 LIY d   1     -13.367  22.239 -38.296  0.00  0.00     0.038 C 
ATOM      6  C12 LIY d   1     -12.680  25.925 -35.046  0.00  0.00    -0.018 A 
ATOM      7  C11 LIY d   1     -12.189  24.856 -35.789  0.00  0.00    -0.046 A 
ATOM      8  C9  LIY d   1     -14.435  24.379 -36.555  0.00  0.00    -0.031 A 
ATOM      9  C14 LIY d   1     -14.783  22.206 -37.737  0.00  0.00    -0.038 C 
ATOM     10  N5  LIY d   1     -12.530  22.978 -37.343  0.00  0.00    -0.371 N 
ATOM     11  H5  LIY d   1     -14.393  27.053 -34.441  0.00  0.00     0.084 H 
ATOM     12  H6  LIY d   1     -15.949  25.694 -35.812  0.00  0.00     0.084 H 
ATOM     13  H7  LIY d   1     -15.578  24.110 -38.327  0.00  0.00     0.040 H 
ATOM     14  H8  LIY d   1     -16.310  23.419 -36.840  0.00  0.00     0.040 H 
ATOM     15  H9  LIY d   1     -12.980  21.212 -38.373  0.00  0.00     0.080 H 
ATOM     16  H20 LIY d   1     -11.126  24.646 -35.764  0.00  0.00     0.088 H 
ATOM     17  H21 LIY d   1     -15.434  21.732 -38.486  0.00  0.00     0.036 H 
ATOM     18  H22 LIY d   1     -14.774  21.597 -36.821  0.00  0.00     0.036 H 
ENDROOT
BRANCH   6  19
ATOM     19  C4  LIY d   1     -11.613  26.600 -34.287  0.00  0.00     0.046 A 
ATOM     20  C1  LIY d   1     -10.662  27.480 -34.980  0.00  0.00     0.153 A 
ATOM     21  N1  LIY d   1      -9.652  28.012 -34.267  0.00  0.00    -0.045 NA
ATOM     22  C2  LIY d   1      -9.485  27.744 -32.957  0.00  0.00     0.722 A 
ATOM     23  N2  LIY d   1     -10.332  26.949 -32.264  0.00  0.00    -0.067 NA
ATOM     24  N4  LIY d   1      -8.448  28.330 -32.321  0.00  0.00    -0.231 N 
ATOM     25  C3  LIY d   1     -11.368  26.338 -32.850  0.00  0.00     0.068 A 
ATOM     26  H18 LIY d   1      -7.800  28.936 -32.843  0.00  0.00     0.174 HD
ATOM     27  H19 LIY d   1      -8.305  28.171 -31.314  0.00  0.00     0.174 HD
BRANCH  20  28
ATOM     28  N3  LIY d   1     -10.785  27.776 -36.288  0.00  0.00    -0.383 N 
ATOM     29  H1  LIY d   1     -11.556  27.371 -36.837  0.00  0.00     0.157 HD
ATOM     30  H2  LIY d   1     -10.108  28.407 -36.739  0.00  0.00     0.157 HD
ENDBRANCH  20  28
BRANCH  25  31
ATOM     31  C6  LIY d   1     -12.243  25.426 -32.024  0.00  0.00    -0.026 C 
ATOM     32  H3  LIY d   1     -12.092  25.638 -30.955  0.00  0.00     0.041 H 
ATOM     33  H4  LIY d   1     -13.299  25.591 -32.285  0.00  0.00     0.041 H 
BRANCH  31  34
ATOM     34  C20 LIY d   1     -11.867  23.988 -32.315  0.00  0.00    -0.071 C 
ATOM     35  H12 LIY d   1     -12.500  23.315 -31.717  0.00  0.00     0.028 H 
ATOM     36  H13 LIY d   1     -10.811  23.825 -32.055  0.00  0.00     0.028 H 
ATOM     37  H14 LIY d   1     -12.018  23.779 -33.384  0.00  0.00     0.028 H 
ENDBRANCH  31  34
ENDBRANCH  25  31
ENDBRANCH   6  19
BRANCH  10  38
ATOM     38  C16 LIY d   1     -11.123  22.514 -37.332  0.00  0.00    -0.002 C 
ATOM     39  H25 LIY d   1     -10.983  21.772 -38.132  0.00  0.00     0.064 H 
ATOM     40  H26 LIY d   1     -10.459  23.373 -37.509  0.00  0.00     0.064 H 
BRANCH  38  41
ATOM     41  C17 LIY d   1     -10.767  21.874 -35.985  0.00  0.00    -0.030 C 
ATOM     42  H10 LIY d   1     -11.257  20.892 -35.910  0.00  0.00     0.038 H 
ATOM     43  H11 LIY d   1     -11.121  22.523 -35.171  0.00  0.00     0.038 H 
BRANCH  41  44
ATOM     44  C18 LIY d   1      -9.257  21.693 -35.862  0.00  0.00     0.020 C 
ATOM     45  H27 LIY d   1      -8.793  22.688 -35.790  0.00  0.00     0.074 H 
ATOM     46  H28 LIY d   1      -8.894  21.183 -36.767  0.00  0.00     0.074 H 
BRANCH  44  47
ATOM     47  O1  LIY d   1      -8.857  20.923 -34.717  0.00  0.00    -0.396 OA
BRANCH  47  48
ATOM     48  C19 LIY d   1      -7.424  20.823 -34.595  0.00  0.00     0.004 C 
ATOM     49  H29 LIY d   1      -7.173  20.226 -33.706  0.00  0.00     0.066 H 
ATOM     50  H30 LIY d   1      -6.993  21.830 -34.494  0.00  0.00     0.066 H 
ATOM     51  H31 LIY d   1      -7.013  20.337 -35.492  0.00  0.00     0.066 H 
ENDBRANCH  47  48
ENDBRANCH  44  47
ENDBRANCH  41  44
ENDBRANCH  38  41
ENDBRANCH  10  38
BRANCH   5  52
ATOM     52  C21 LIY d   1     -13.399  22.823 -39.663  0.00  0.00    -0.035 A 
ATOM     53  C22 LIY d   1     -13.815  21.995 -40.715  0.00  0.00    -0.075 A 
ATOM     54  C23 LIY d   1     -13.869  22.475 -42.016  0.00  0.00    -0.082 A 
ATOM     55  H15 LIY d   1     -14.098  20.969 -40.510  0.00  0.00     0.084 H 
ATOM     56  C24 LIY d   1     -13.515  23.793 -42.284  0.00  0.00    -0.083 A 
ATOM     57  H23 LIY d   1     -14.187  21.824 -42.822  0.00  0.00     0.083 H 
ATOM     58  C25 LIY d   1     -13.103  24.625 -41.250  0.00  0.00    -0.082 A 
ATOM     59  H16 LIY d   1     -13.560  24.171 -43.299  0.00  0.00     0.083 H 
ATOM     60  C26 LIY d   1     -13.048  24.149 -39.934  0.00  0.00    -0.075 A 
ATOM     61  H24 LIY d   1     -12.822  25.650 -41.464  0.00  0.00     0.083 H 
ATOM     62  H17 LIY d   1     -12.735  24.805 -39.130  0.00  0.00     0.084 H 
ENDBRANCH   5  52
TORSDOF 10
