REMARK  17 active torsions:
REMARK  status: ('A' for Active; 'I' for Inactive)
REMARK    1  A    between atoms: N3_2  and  C20_12 
REMARK    2  A    between atoms: C1_29  and  N3_2 
REMARK    3  A    between atoms: C12_34  and  C4_3 
REMARK    4  A    between atoms: C5_4  and  C6_5 
REMARK    5  A    between atoms: C3_30  and  C5_4 
REMARK    6  A    between atoms: C14_42  and  C13_9 
REMARK    7  A    between atoms: C16_37  and  C17_11 
REMARK    8  A    between atoms: C17_11  and  C18_38 
REMARK    9  A    between atoms: C20_12  and  C21_13 
REMARK   10  A    between atoms: C21_13  and  N6_28 
REMARK   11  A    between atoms: C14_42  and  C22_14 
REMARK   12  A    between atoms: S1_19  and  C30_21 
REMARK   13  A    between atoms: N6_28  and  S1_19 
REMARK   14  A    between atoms: C2_32  and  N4_33 
REMARK   15  A    between atoms: N5_36  and  C16_37 
REMARK   16  A    between atoms: C18_38  and  O1_39 
REMARK   17  A    between atoms: O1_39  and  C19_40 
ROOT
ATOM      1  N1  LIX d   1     -56.942 -18.129 -35.167  0.00  0.00    -0.045 NA
ATOM      2  C4  LIX d   1     -56.402 -18.670 -32.846  0.00  0.00     0.046 A 
ATOM      3  C1  LIX d   1     -56.425 -19.018 -34.291  0.00  0.00     0.156 A 
ATOM      4  C3  LIX d   1     -56.943 -17.350 -32.463  0.00  0.00     0.068 A 
ATOM      5  N2  LIX d   1     -57.429 -16.570 -33.455  0.00  0.00    -0.067 NA
ATOM      6  C2  LIX d   1     -57.415 -16.935 -34.753  0.00  0.00     0.722 A 
ENDROOT
BRANCH   2   7
ATOM      7  C12 LIX d   1     -55.807 -19.553 -31.825  0.00  0.00    -0.018 A 
ATOM      8  C7  LIX d   1     -56.501 -20.383 -30.948  0.00  0.00    -0.069 A 
ATOM      9  C8  LIX d   1     -55.756 -21.132 -30.041  0.00  0.00    -0.048 A 
ATOM     10  H7  LIX d   1     -57.583 -20.444 -30.971  0.00  0.00     0.085 H 
ATOM     11  C9  LIX d   1     -54.353 -21.055 -30.009  0.00  0.00     0.097 A 
ATOM     12  H8  LIX d   1     -56.268 -21.787 -29.346  0.00  0.00     0.087 H 
ATOM     13  C10 LIX d   1     -53.661 -20.218 -30.895  0.00  0.00     0.071 A 
ATOM     14  O2  LIX d   1     -53.639 -21.801 -29.099  0.00  0.00    -0.329 OA
ATOM     15  C11 LIX d   1     -54.418 -19.476 -31.798  0.00  0.00    -0.043 A 
ATOM     16  N5  LIX d   1     -52.238 -20.146 -30.890  0.00  0.00    -0.313 N 
ATOM     17  H31 LIX d   1     -53.912 -18.821 -32.498  0.00  0.00     0.088 H 
ATOM     18  C15 LIX d   1     -51.576 -21.050 -30.163  0.00  0.00     0.259 C 
ATOM     19  O3  LIX d   1     -50.369 -21.000 -30.068  0.00  0.00    -0.270 OA
ATOM     20  C14 LIX d   1     -52.316 -22.185 -29.484  0.00  0.00     0.141 C 
BRANCH  16  21
ATOM     21  C16 LIX d   1     -51.491 -19.156 -31.709  0.00  0.00     0.005 C 
ATOM     22  H32 LIX d   1     -50.454 -19.503 -31.830  0.00  0.00     0.065 H 
ATOM     23  H33 LIX d   1     -51.969 -19.077 -32.697  0.00  0.00     0.065 H 
BRANCH  21  24
ATOM     24  C17 LIX d   1     -51.479 -17.781 -31.054  0.00  0.00    -0.030 C 
ATOM     25  H12 LIX d   1     -50.880 -17.813 -30.132  0.00  0.00     0.038 H 
ATOM     26  H13 LIX d   1     -52.507 -17.474 -30.813  0.00  0.00     0.038 H 
BRANCH  24  27
ATOM     27  C18 LIX d   1     -50.859 -16.787 -32.042  0.00  0.00     0.020 C 
ATOM     28  H34 LIX d   1     -51.514 -16.700 -32.921  0.00  0.00     0.074 H 
ATOM     29  H35 LIX d   1     -49.873 -17.160 -32.355  0.00  0.00     0.074 H 
BRANCH  27  30
ATOM     30  O1  LIX d   1     -50.703 -15.508 -31.454  0.00  0.00    -0.396 OA
BRANCH  30  31
ATOM     31  C19 LIX d   1     -50.197 -14.502 -32.337  0.00  0.00     0.004 C 
ATOM     32  H36 LIX d   1     -50.110 -13.549 -31.795  0.00  0.00     0.066 H 
ATOM     33  H37 LIX d   1     -50.885 -14.380 -33.186  0.00  0.00     0.066 H 
ATOM     34  H38 LIX d   1     -49.207 -14.804 -32.708  0.00  0.00     0.066 H 
ENDBRANCH  30  31
ENDBRANCH  27  30
ENDBRANCH  24  27
ENDBRANCH  21  24
ENDBRANCH  16  21
BRANCH  20  35
ATOM     35  C13 LIX d   1     -51.496 -22.570 -28.263  0.00  0.00    -0.039 C 
ATOM     36  H9  LIX d   1     -51.994 -23.395 -27.732  0.00  0.00     0.032 H 
ATOM     37  H10 LIX d   1     -51.408 -21.703 -27.592  0.00  0.00     0.032 H 
ATOM     38  H11 LIX d   1     -50.493 -22.891 -28.581  0.00  0.00     0.032 H 
ENDBRANCH  20  35
BRANCH  20  39
ATOM     39  C22 LIX d   1     -52.461 -23.344 -30.476  0.00  0.00    -0.039 C 
ATOM     40  H18 LIX d   1     -53.060 -23.016 -31.338  0.00  0.00     0.032 H 
ATOM     41  H19 LIX d   1     -52.962 -24.189 -29.982  0.00  0.00     0.032 H 
ATOM     42  H20 LIX d   1     -51.465 -23.659 -30.820  0.00  0.00     0.032 H 
ENDBRANCH  20  39
ENDBRANCH   2   7
BRANCH   3  43
ATOM     43  N3  LIX d   1     -55.950 -20.193 -34.742  0.00  0.00    -0.372 N 
ATOM     44  H1  LIX d   1     -55.509 -20.859 -34.092  0.00  0.00     0.161 HD
BRANCH  43  45
ATOM     45  C20 LIX d   1     -56.064 -20.513 -36.147  0.00  0.00     0.009 C 
ATOM     46  H14 LIX d   1     -56.006 -19.578 -36.724  0.00  0.00     0.066 H 
ATOM     47  H15 LIX d   1     -57.041 -20.989 -36.318  0.00  0.00     0.066 H 
BRANCH  45  48
ATOM     48  C21 LIX d   1     -54.980 -21.449 -36.640  0.00  0.00     0.018 C 
ATOM     49  H16 LIX d   1     -55.434 -22.212 -37.289  0.00  0.00     0.067 H 
ATOM     50  H17 LIX d   1     -54.509 -21.938 -35.774  0.00  0.00     0.067 H 
BRANCH  48  51
ATOM     51  N6  LIX d   1     -53.965 -20.738 -37.389  0.00  0.00    -0.314 N 
ATOM     52  H28 LIX d   1     -54.233 -19.970 -37.971  0.00  0.00     0.172 HD
BRANCH  51  53
ATOM     53  S1  LIX d   1     -52.422 -21.157 -37.303  0.00  0.00     0.258 S 
ATOM     54  O5  LIX d   1     -51.970 -20.728 -35.997  0.00  0.00    -0.201 OA
ATOM     55  O4  LIX d   1     -51.692 -20.502 -38.355  0.00  0.00    -0.201 OA
BRANCH  53  56
ATOM     56  C30 LIX d   1     -52.258 -22.731 -37.548  0.00  0.00     0.080 A 
ATOM     57  C29 LIX d   1     -51.670 -23.592 -36.601  0.00  0.00    -0.050 A 
ATOM     58  C25 LIX d   1     -51.545 -24.956 -36.890  0.00  0.00    -0.025 A 
ATOM     59  H23 LIX d   1     -51.316 -23.201 -35.654  0.00  0.00     0.087 H 
ATOM     60  C24 LIX d   1     -50.972 -25.859 -35.997  0.00  0.00    -0.072 A 
ATOM     61  C26 LIX d   1     -52.024 -25.472 -38.206  0.00  0.00    -0.026 A 
ATOM     62  C23 LIX d   1     -50.868 -27.218 -36.345  0.00  0.00    -0.082 A 
ATOM     63  H21 LIX d   1     -50.607 -25.515 -35.036  0.00  0.00     0.084 H 
ATOM     64  C28 LIX d   1     -51.326 -27.700 -37.583  0.00  0.00    -0.082 A 
ATOM     65  H27 LIX d   1     -50.423 -27.911 -35.640  0.00  0.00     0.083 H 
ATOM     66  C27 LIX d   1     -51.900 -26.833 -38.515  0.00  0.00    -0.072 A 
ATOM     67  H22 LIX d   1     -51.233 -28.754 -37.817  0.00  0.00     0.083 H 
ATOM     68  H26 LIX d   1     -52.247 -27.210 -39.470  0.00  0.00     0.084 H 
ATOM     69  C32 LIX d   1     -52.586 -24.574 -39.109  0.00  0.00    -0.071 A 
ATOM     70  C31 LIX d   1     -52.699 -23.223 -38.782  0.00  0.00    -0.059 A 
ATOM     71  H25 LIX d   1     -52.938 -24.927 -40.072  0.00  0.00     0.084 H 
ATOM     72  H24 LIX d   1     -53.138 -22.539 -39.499  0.00  0.00     0.085 H 
ENDBRANCH  53  56
ENDBRANCH  51  53
ENDBRANCH  48  51
ENDBRANCH  45  48
ENDBRANCH  43  45
ENDBRANCH   3  43
BRANCH   4  73
ATOM     73  C5  LIX d   1     -56.964 -16.851 -31.038  0.00  0.00    -0.026 C 
ATOM     74  H2  LIX d   1     -57.920 -16.344 -30.843  0.00  0.00     0.041 H 
ATOM     75  H3  LIX d   1     -56.854 -17.703 -30.351  0.00  0.00     0.041 H 
BRANCH  73  76
ATOM     76  C6  LIX d   1     -55.828 -15.880 -30.818  0.00  0.00    -0.071 C 
ATOM     77  H4  LIX d   1     -55.849 -15.521 -29.779  0.00  0.00     0.028 H 
ATOM     78  H5  LIX d   1     -55.937 -15.027 -31.503  0.00  0.00     0.028 H 
ATOM     79  H6  LIX d   1     -54.871 -16.386 -31.012  0.00  0.00     0.028 H 
ENDBRANCH  73  76
ENDBRANCH   4  73
BRANCH   6  80
ATOM     80  N4  LIX d   1     -57.919 -16.071 -35.656  0.00  0.00    -0.231 N 
ATOM     81  H29 LIX d   1     -57.925 -16.317 -36.656  0.00  0.00     0.174 HD
ATOM     82  H30 LIX d   1     -58.299 -15.165 -35.346  0.00  0.00     0.174 HD
ENDBRANCH   6  80
TORSDOF 17
