REMARK  3 active torsions:
REMARK  status: ('A' for Active; 'I' for Inactive)
REMARK       I    between atoms: C11_2  and  N13_3 
REMARK    1  A    between atoms: C11_2  and  C10_5 
REMARK    2  A    between atoms: N13_3  and  O14_4 
REMARK    3  A    between atoms: C9_6  and  C1_7 
ROOT
ATOM      1  C1  GB5 d   1      -3.960  -9.995  20.337  0.00  0.00    -0.036 A 
ATOM      2  C2  GB5 d   1      -3.155 -10.842  21.113  0.00  0.00    -0.071 A 
ATOM      3  C3  GB5 d   1      -2.855 -12.134  20.660  0.00  0.00    -0.061 A 
ATOM      4  C4  GB5 d   1      -3.353 -12.597  19.444  0.00  0.00     0.034 A 
ATOM      5 CL1  GB5 d   1      -3.033 -13.998  18.973  0.00  0.00    -0.084 Cl
ATOM      6  C5  GB5 d   1      -4.147 -11.748  18.672  0.00  0.00    -0.061 A 
ATOM      7  C6  GB5 d   1      -4.453 -10.460  19.114  0.00  0.00    -0.071 A 
ATOM      8  H5  GB5 d   1      -2.765 -10.497  22.064  0.00  0.00     0.084 H 
ATOM      9  H6  GB5 d   1      -2.228 -12.781  21.263  0.00  0.00     0.086 H 
ATOM     10  H7  GB5 d   1      -4.530 -12.093  17.718  0.00  0.00     0.086 H 
ATOM     11  H8  GB5 d   1      -5.077  -9.816  18.505  0.00  0.00     0.084 H 
ENDROOT
BRANCH   1  12
ATOM     12  C9  GB5 d   1      -4.327  -8.609  20.746  0.00  0.00    -0.068 C 
ATOM     13  C10 GB5 d   1      -3.955  -8.041  21.905  0.00  0.00    -0.015 C 
ATOM     14  H3  GB5 d   1      -3.361  -8.601  22.626  0.00  0.00     0.092 H 
ATOM     15  H4  GB5 d   1      -4.935  -8.020  20.061  0.00  0.00     0.085 H 
BRANCH  13  16
ATOM     16  C11 GB5 d   1      -4.360  -6.648  22.193  0.00  0.00     0.264 C 
ATOM     17  O12 GB5 d   1      -5.148  -6.074  21.458  0.00  0.00    -0.266 OA
ATOM     18  N13 GB5 d   1      -3.801  -6.009  23.218  0.00  0.00    -0.234 N 
ATOM     19  H1  GB5 d   1      -3.214  -6.508  23.855  0.00  0.00     0.197 HD
BRANCH  18  20
ATOM     20  O14 GB5 d   1      -4.029  -4.650  23.407  0.00  0.00    -0.287 OA
ATOM     21  H2  GB5 d   1      -3.559  -4.355  24.178  0.00  0.00     0.244 HD
ENDBRANCH  18  20
ENDBRANCH  13  16
ENDBRANCH   1  12
TORSDOF 3
