REMARK  3 active torsions:
REMARK  status: ('A' for Active; 'I' for Inactive)
REMARK       I    between atoms: C11_2  and  N13_3 
REMARK    1  A    between atoms: C11_2  and  C10_5 
REMARK    2  A    between atoms: N13_3  and  O14_4 
REMARK    3  A    between atoms: C9_6  and  C1_7 
ROOT
ATOM      1  C1  GB4 d   1      -4.145 -10.100  20.679  0.00  0.00    -0.014 A 
ATOM      2  C6  GB4 d   1      -4.354 -10.537  19.375  0.00  0.00     0.045 A 
ATOM      3 CL8  GB4 d   1      -5.002  -9.470  18.125  0.00  0.00    -0.083 Cl
ATOM      4  C5  GB4 d   1      -4.076 -11.816  18.955  0.00  0.00    -0.040 A 
ATOM      5  C2  GB4 d   1      -3.613 -11.017  21.592  0.00  0.00    -0.070 A 
ATOM      6  C3  GB4 d   1      -3.324 -12.326  21.181  0.00  0.00    -0.061 A 
ATOM      7  C4  GB4 d   1      -3.566 -12.717  19.865  0.00  0.00     0.035 A 
ATOM      8 CL7  GB4 d   1      -3.219 -14.362  19.295  0.00  0.00    -0.084 Cl
ATOM      9  H5  GB4 d   1      -4.255 -12.111  17.927  0.00  0.00     0.088 H 
ATOM     10  H6  GB4 d   1      -3.424 -10.716  22.616  0.00  0.00     0.084 H 
ATOM     11  H7  GB4 d   1      -2.911 -13.036  21.889  0.00  0.00     0.086 H 
ENDROOT
BRANCH   1  12
ATOM     12  C9  GB4 d   1      -4.446  -8.672  21.024  0.00  0.00    -0.066 C 
ATOM     13  C10 GB4 d   1      -4.160  -8.095  22.209  0.00  0.00    -0.015 C 
ATOM     14  H3  GB4 d   1      -3.728  -8.683  23.017  0.00  0.00     0.092 H 
ATOM     15  H4  GB4 d   1      -4.929  -8.058  20.265  0.00  0.00     0.085 H 
BRANCH  13  16
ATOM     16  C11 GB4 d   1      -4.440  -6.652  22.399  0.00  0.00     0.264 C 
ATOM     17  O12 GB4 d   1      -5.060  -6.042  21.551  0.00  0.00    -0.266 OA
ATOM     18  N13 GB4 d   1      -3.943  -5.991  23.449  0.00  0.00    -0.234 N 
ATOM     19  H1  GB4 d   1      -3.485  -6.492  24.183  0.00  0.00     0.197 HD
BRANCH  18  20
ATOM     20  O14 GB4 d   1      -4.063  -4.604  23.521  0.00  0.00    -0.287 OA
ATOM     21  H2  GB4 d   1      -3.661  -4.294  24.324  0.00  0.00     0.244 HD
ENDBRANCH  18  20
ENDBRANCH  13  16
ENDBRANCH   1  12
TORSDOF 3
