REMARK  7 active torsions:
REMARK  status: ('A' for Active; 'I' for Inactive)
REMARK    1  A    between atoms: N1_1  and  CA_2 
REMARK    2  A    between atoms: CA_2  and  CB_3 
REMARK    3  A    between atoms: CA_2  and  C_10 
REMARK    4  A    between atoms: CB_3  and  CG_4 
REMARK    5  A    between atoms: CG_4  and  CD_5 
REMARK    6  A    between atoms: CD_5  and  NE_6 
REMARK       I    between atoms: NE_6  and  CZ_7 
REMARK       I    between atoms: CZ_7  and  NH1_8 
REMARK       I    between atoms: C_10  and  N2_12 
REMARK    7  A    between atoms: N2_12  and  O2_13 
ROOT
ATOM      1  CB  AHL d   1      -4.175  -9.558  22.761  0.00  0.00    -0.029 C 
ATOM      2  H5  AHL d   1      -4.613 -10.326  22.107  0.00  0.00     0.036 H 
ATOM      3  H6  AHL d   1      -3.893 -10.012  23.722  0.00  0.00     0.036 H 
ENDROOT
BRANCH   1   4
ATOM      4  CA  AHL d   1      -5.264  -8.507  23.042  0.00  0.00     0.178 C 
ATOM      5  H4  AHL d   1      -5.511  -8.555  24.113  0.00  0.00     0.099 H 
BRANCH   4   6
ATOM      6  N1  AHL d   1      -6.448  -8.821  22.277  0.00  0.00    -0.066 N 
ATOM      7  H1  AHL d   1      -6.741  -9.763  22.483  0.00  0.00     0.275 HD
ATOM      8  H2  AHL d   1      -6.244  -8.740  21.293  0.00  0.00     0.275 HD
ATOM      9  H3  AHL d   1      -7.186  -8.179  22.521  0.00  0.00     0.275 HD
ENDBRANCH   4   6
BRANCH   4  10
ATOM     10  C   AHL d   1      -4.841  -7.109  22.728  0.00  0.00     0.271 C 
ATOM     11  O1  AHL d   1      -4.991  -6.653  21.600  0.00  0.00    -0.269 OA
ATOM     12  N2  AHL d   1      -4.305  -6.473  23.769  0.00  0.00    -0.236 N 
ATOM     13  H16 AHL d   1      -4.215  -6.945  24.646  0.00  0.00     0.197 HD
BRANCH  12  14
ATOM     14  O2  AHL d   1      -3.871  -5.161  23.645  0.00  0.00    -0.287 OA
ATOM     15  H17 AHL d   1      -3.195  -5.114  22.979  0.00  0.00     0.244 HD
ENDBRANCH  12  14
ENDBRANCH   4  10
ENDBRANCH   1   4
BRANCH   1  16
ATOM     16  CG  AHL d   1      -2.898  -9.053  22.094  0.00  0.00    -0.047 C 
ATOM     17  H7  AHL d   1      -2.519  -8.183  22.650  0.00  0.00     0.035 H 
ATOM     18  H8  AHL d   1      -3.123  -8.757  21.059  0.00  0.00     0.035 H 
BRANCH  16  19
ATOM     19  CD  AHL d   1      -1.829 -10.146  22.083  0.00  0.00     0.009 C 
ATOM     20  H9  AHL d   1      -1.685 -10.538  23.101  0.00  0.00     0.064 H 
ATOM     21  H10 AHL d   1      -0.879  -9.736  21.710  0.00  0.00     0.064 H 
BRANCH  19  22
ATOM     22  NE  AHL d   1      -2.290 -11.218  21.198  0.00  0.00    -0.227 N 
ATOM     23  CZ  AHL d   1      -2.279 -11.324  19.851  0.00  0.00     0.665 C 
ATOM     24  NH1 AHL d   1      -2.772 -12.432  19.304  0.00  0.00    -0.235 N 
ATOM     25  NH2 AHL d   1      -1.787 -10.373  19.037  0.00  0.00    -0.235 N 
ATOM     26  H12 AHL d   1      -2.777 -12.542  18.280  0.00  0.00     0.174 HD
ATOM     27  H13 AHL d   1      -3.148 -13.180  19.905  0.00  0.00     0.174 HD
ATOM     28  H14 AHL d   1      -1.399  -9.505  19.434  0.00  0.00     0.174 HD
ATOM     29  H15 AHL d   1      -1.798 -10.512  18.017  0.00  0.00     0.174 HD
ATOM     30  H11 AHL d   1      -2.692 -12.031  21.686  0.00  0.00     0.177 HD
ENDBRANCH  19  22
ENDBRANCH  16  19
ENDBRANCH   1  16
TORSDOF 7
