REMARK  9 active torsions:
REMARK  status: ('A' for Active; 'I' for Inactive)
REMARK    1  A    between atoms: N1_1  and  CA1_2 
REMARK    2  A    between atoms: CA1_2  and  C1_3 
REMARK    3  A    between atoms: CA1_2  and  CB1_6 
REMARK    4  A    between atoms: CB1_6  and  CG1_7 
REMARK    5  A    between atoms: CG1_7  and  CD1_8 
REMARK    6  A    between atoms: N2_10  and  CA2_11 
REMARK    7  A    between atoms: CA2_11  and  C2_12 
REMARK    8  A    between atoms: N3_14  and  CA3_15 
REMARK    9  A    between atoms: CA3_15  and  C3_16 
ROOT
ATOM      1  CD1 GSH d   1      30.263  39.402  33.311  0.00  0.00     0.151 C 
ATOM      2  OE1 GSH d   1      30.808  38.395  32.674  0.00  0.00    -0.177 OA
ATOM      3  N2  GSH d   1      29.423  40.241  32.672  0.00  0.00    -0.364 N 
ATOM      4  H9  GSH d   1      29.003  40.973  33.208  0.00  0.00     0.161 HD
ENDROOT
BRANCH   1   5
ATOM      5  CG1 GSH d   1      30.569  39.637  34.774  0.00  0.00    -0.001 C 
ATOM      6  H7  GSH d   1      30.893  40.680  34.906  0.00  0.00     0.045 H 
ATOM      7  H8  GSH d   1      29.655  39.460  35.360  0.00  0.00     0.045 H 
BRANCH   5   8
ATOM      8  CB1 GSH d   1      31.666  38.714  35.284  0.00  0.00    -0.022 C 
ATOM      9  H5  GSH d   1      31.328  37.687  35.080  0.00  0.00     0.037 H 
ATOM     10  H6  GSH d   1      32.561  38.932  34.682  0.00  0.00     0.037 H 
BRANCH   8  11
ATOM     11  CA1 GSH d   1      32.112  38.741  36.751  0.00  0.00     0.183 C 
ATOM     12  H4  GSH d   1      32.427  39.792  36.825  0.00  0.00     0.101 H 
BRANCH  11  13
ATOM     13  N1  GSH d   1      33.403  38.100  36.929  0.00  0.00    -0.065 N 
ATOM     14  H1  GSH d   1      33.944  38.193  36.083  0.00  0.00     0.275 HD
ATOM     15  H2  GSH d   1      33.267  37.123  37.136  0.00  0.00     0.275 HD
ATOM     16  H3  GSH d   1      33.894  38.540  37.692  0.00  0.00     0.275 HD
ENDBRANCH  11  13
BRANCH  11  17
ATOM     17  C1  GSH d   1      31.118  38.764  37.813  0.00  0.00     0.204 C 
ATOM     18  O11 GSH d   1      30.058  39.496  37.765  0.00  0.00    -0.646 OA
ATOM     19  O12 GSH d   1      31.310  37.849  38.612  0.00  0.00    -0.646 OA
ENDBRANCH  11  17
ENDBRANCH   8  11
ENDBRANCH   5   8
ENDBRANCH   1   5
BRANCH   3  20
ATOM     20  CA2 GSH d   1      29.085  40.159  31.268  0.00  0.00     0.056 C 
ATOM     21  H10 GSH d   1      27.998  40.276  31.142  0.00  0.00     0.076 H 
ATOM     22  H11 GSH d   1      29.397  39.182  30.869  0.00  0.00     0.076 H 
BRANCH  20  23
ATOM     23  C2  GSH d   1      29.798  41.254  30.533  0.00  0.00     0.169 C 
ATOM     24  O2  GSH d   1      29.759  42.549  31.026  0.00  0.00    -0.176 OA
ATOM     25  N3  GSH d   1      30.467  40.951  29.419  0.00  0.00    -0.361 N 
ATOM     26  H12 GSH d   1      30.442  40.040  29.007  0.00  0.00     0.162 HD
BRANCH  25  27
ATOM     27  CA3 GSH d   1      31.228  42.035  28.856  0.00  0.00     0.074 C 
ATOM     28  H13 GSH d   1      31.071  42.944  29.455  0.00  0.00     0.080 H 
ATOM     29  H14 GSH d   1      30.899  42.216  27.822  0.00  0.00     0.080 H 
BRANCH  27  30
ATOM     30  C3  GSH d   1      32.704  41.672  28.863  0.00  0.00     0.191 C 
ATOM     31  O31 GSH d   1      33.506  42.580  28.502  0.00  0.00    -0.647 OA
ATOM     32  O32 GSH d   1      33.119  40.514  29.174  0.00  0.00    -0.647 OA
ENDBRANCH  27  30
ENDBRANCH  25  27
ENDBRANCH  20  23
ENDBRANCH   3  20
TORSDOF 9
