REMARK  5 active torsions:
REMARK  status: ('A' for Active; 'I' for Inactive)
REMARK    1  A    between atoms: C23_2  and  C21_4 
REMARK    2  A    between atoms: C21_4  and  C22_5 
REMARK    3  A    between atoms: C22_5  and  N2_6 
REMARK    4  A    between atoms: C19_11  and  O3_12 
REMARK    5  A    between atoms: C2_23  and  C7_25 
ROOT
ATOM      1  N2  839 d   1       3.210  53.755  23.797  0.00  0.00    -0.345 N 
ATOM      2  C14 839 d   1       3.291  53.819  25.150  0.00  0.00     0.048 A 
ATOM      3  C16 839 d   1       4.375  54.140  23.187  0.00  0.00     0.046 A 
ATOM      4  C18 839 d   1       4.734  54.233  21.821  0.00  0.00    -0.053 A 
ATOM      5  C20 839 d   1       6.013  54.691  21.518  0.00  0.00    -0.049 A 
ATOM      6  C19 839 d   1       6.939  55.017  22.493  0.00  0.00     0.066 A 
ATOM      7  C17 839 d   1       6.640  54.893  23.890  0.00  0.00    -0.038 A 
ATOM      8  C15 839 d   1       5.320  54.485  24.157  0.00  0.00     0.007 A 
ATOM      9  C13 839 d   1       4.662  54.284  25.427  0.00  0.00     0.020 A 
ATOM     10  C4  839 d   1       5.058  54.471  26.832  0.00  0.00     0.062 A 
ATOM     11  C5  839 d   1       6.303  54.878  27.471  0.00  0.00     0.260 A 
ATOM     12  O1  839 d   1       7.319  55.283  26.883  0.00  0.00    -0.267 OA
ATOM     13  C3  839 d   1       4.121  54.149  27.881  0.00  0.00     0.060 A 
ATOM     14  C6  839 d   1       4.933  54.462  29.083  0.00  0.00     0.260 A 
ATOM     15  O2  839 d   1       4.446  54.292  30.241  0.00  0.00    -0.267 OA
ATOM     16  N1  839 d   1       6.214  54.902  28.847  0.00  0.00    -0.289 N 
ATOM     17  C2  839 d   1       2.772  53.703  27.517  0.00  0.00    -0.007 A 
ATOM     18  C1  839 d   1       2.410  53.506  26.171  0.00  0.00    -0.044 A 
ATOM     19  H5  839 d   1       4.037  53.957  21.038  0.00  0.00     0.087 H 
ATOM     20  H6  839 d   1       6.295  54.797  20.477  0.00  0.00     0.087 H 
ATOM     21  H8  839 d   1       7.365  55.095  24.670  0.00  0.00     0.089 H 
ATOM     22  H9  839 d   1       6.911  55.173  29.511  0.00  0.00     0.172 HD
ATOM     23  H10 839 d   1       1.432  53.105  25.932  0.00  0.00     0.088 H 
ENDROOT
BRANCH  17  24
ATOM     24  C7  839 d   1       1.775  53.418  28.540  0.00  0.00    -0.025 A 
ATOM     25  C12 839 d   1       1.006  52.181  28.611  0.00  0.00    -0.072 A 
ATOM     26  C11 839 d   1      -0.010  52.071  29.714  0.00  0.00    -0.082 A 
ATOM     27  H11 839 d   1       1.160  51.377  27.901  0.00  0.00     0.084 H 
ATOM     28  C10 839 d   1      -0.198  53.088  30.589  0.00  0.00    -0.083 A 
ATOM     29  H12 839 d   1      -0.600  51.166  29.810  0.00  0.00     0.083 H 
ATOM     30  C9  839 d   1       0.483  54.263  30.516  0.00  0.00    -0.082 A 
ATOM     31  H13 839 d   1      -0.924  52.959  31.383  0.00  0.00     0.083 H 
ATOM     32  C8  839 d   1       1.442  54.496  29.527  0.00  0.00    -0.072 A 
ATOM     33  H14 839 d   1       0.276  55.039  31.244  0.00  0.00     0.083 H 
ATOM     34  H15 839 d   1       1.944  55.455  29.474  0.00  0.00     0.084 H 
ENDBRANCH  17  24
BRANCH   1  35
ATOM     35  C22 839 d   1       1.981  53.279  23.130  0.00  0.00     0.009 C 
ATOM     36  H3  839 d   1       1.100  53.395  23.778  0.00  0.00     0.065 H 
ATOM     37  H4  839 d   1       1.808  53.806  22.180  0.00  0.00     0.065 H 
BRANCH  35  38
ATOM     38  C21 839 d   1       2.318  51.807  22.901  0.00  0.00     0.031 C 
ATOM     39  H1  839 d   1       3.126  51.747  22.157  0.00  0.00     0.051 H 
ATOM     40  H2  839 d   1       2.664  51.378  23.853  0.00  0.00     0.051 H 
BRANCH  38  41
ATOM     41  C23 839 d   1       1.145  50.984  22.402  0.00  0.00     0.174 C 
ATOM     42  O5  839 d   1       0.166  51.571  21.892  0.00  0.00    -0.648 OA
ATOM     43  O4  839 d   1       1.195  49.736  22.544  0.00  0.00    -0.648 OA
ENDBRANCH  38  41
ENDBRANCH  35  38
ENDBRANCH   1  35
BRANCH   6  44
ATOM     44  O3  839 d   1       8.172  55.422  22.074  0.00  0.00    -0.361 OA
ATOM     45  H7  839 d   1       8.714  55.616  22.830  0.00  0.00     0.217 HD
ENDBRANCH   6  44
TORSDOF 5
