REMARK  8 active torsions:
REMARK  status: ('A' for Active; 'I' for Inactive)
REMARK    1  A    between atoms: C2_2  and  C7_7 
REMARK    2  A    between atoms: C8_8  and  O5_28 
REMARK    3  A    between atoms: C19_19  and  O3_27 
REMARK    4  A    between atoms: C21_21  and  C22_22 
REMARK    5  A    between atoms: C21_21  and  N2_30 
REMARK    6  A    between atoms: C22_22  and  C23_23 
REMARK    7  A    between atoms: C23_23  and  O4_31 
REMARK    8  A    between atoms: O5_28  and  C24_29 
ROOT
ATOM      1  C1  330 d   1       2.650  53.776  26.383  0.00  0.00    -0.044 A 
ATOM      2  C2  330 d   1       2.906  53.923  27.752  0.00  0.00    -0.004 A 
ATOM      3  C3  330 d   1       4.269  54.368  28.104  0.00  0.00     0.060 A 
ATOM      4  C4  330 d   1       5.207  54.673  27.003  0.00  0.00     0.062 A 
ATOM      5  C5  330 d   1       6.459  55.065  27.668  0.00  0.00     0.260 A 
ATOM      6  C6  330 d   1       5.111  54.638  29.305  0.00  0.00     0.260 A 
ATOM      7  C13 330 d   1       4.853  54.467  25.565  0.00  0.00     0.020 A 
ATOM      8  C14 330 d   1       3.569  54.038  25.346  0.00  0.00     0.048 A 
ATOM      9  C15 330 d   1       5.470  54.690  24.338  0.00  0.00     0.007 A 
ATOM     10  C16 330 d   1       4.475  54.305  23.337  0.00  0.00     0.046 A 
ATOM     11  C17 330 d   1       6.747  55.088  24.013  0.00  0.00    -0.038 A 
ATOM     12  C18 330 d   1       4.810  54.394  21.920  0.00  0.00    -0.053 A 
ATOM     13  C19 330 d   1       7.066  55.177  22.669  0.00  0.00     0.066 A 
ATOM     14  C20 330 d   1       6.170  54.838  21.635  0.00  0.00    -0.049 A 
ATOM     15  O1  330 d   1       7.491  55.492  27.066  0.00  0.00    -0.267 OA
ATOM     16  N1  330 d   1       6.366  55.090  29.036  0.00  0.00    -0.289 N 
ATOM     17  O2  330 d   1       4.641  54.502  30.478  0.00  0.00    -0.267 OA
ATOM     18  N2  330 d   1       3.309  53.961  24.035  0.00  0.00    -0.345 N 
ATOM     19  H1  330 d   1       1.663  53.432  26.096  0.00  0.00     0.088 H 
ATOM     20  H6  330 d   1       7.475  55.323  24.781  0.00  0.00     0.089 H 
ATOM     21  H7  330 d   1       4.101  54.148  21.137  0.00  0.00     0.087 H 
ATOM     22  H8  330 d   1       6.499  54.909  20.605  0.00  0.00     0.087 H 
ATOM     23  H15 330 d   1       7.065  55.377  29.691  0.00  0.00     0.172 HD
ENDROOT
BRANCH   2  24
ATOM     24  C7  330 d   1       1.900  53.610  28.839  0.00  0.00     0.009 A 
ATOM     25  C8  330 d   1       1.659  54.646  29.726  0.00  0.00     0.079 A 
ATOM     26  C9  330 d   1       0.762  54.472  30.803  0.00  0.00    -0.050 A 
ATOM     27  C10 330 d   1       0.127  53.219  31.007  0.00  0.00    -0.080 A 
ATOM     28  H2  330 d   1       0.558  55.297  31.476  0.00  0.00     0.087 H 
ATOM     29  C11 330 d   1       0.346  52.186  30.087  0.00  0.00    -0.082 A 
ATOM     30  H3  330 d   1      -0.519  53.064  31.864  0.00  0.00     0.083 H 
ATOM     31  C12 330 d   1       1.268  52.369  29.004  0.00  0.00    -0.070 A 
ATOM     32  H4  330 d   1      -0.183  51.246  30.194  0.00  0.00     0.083 H 
ATOM     33  H5  330 d   1       1.475  51.555  28.319  0.00  0.00     0.085 H 
BRANCH  25  34
ATOM     34  O5  330 d   1       2.280  55.876  29.587  0.00  0.00    -0.355 OA
BRANCH  34  35
ATOM     35  C24 330 d   1       1.928  56.916  30.574  0.00  0.00     0.010 C 
ATOM     36  H17 330 d   1       2.487  57.837  30.352  0.00  0.00     0.066 H 
ATOM     37  H18 330 d   1       2.186  56.565  31.584  0.00  0.00     0.066 H 
ATOM     38  H19 330 d   1       0.849  57.121  30.522  0.00  0.00     0.066 H 
ENDBRANCH  34  35
ENDBRANCH  25  34
ENDBRANCH   2  24
BRANCH  18  39
ATOM     39  C21 330 d   1       2.029  53.465  23.534  0.00  0.00     0.002 C 
ATOM     40  H9  330 d   1       1.309  53.344  24.357  0.00  0.00     0.065 H 
ATOM     41  H10 330 d   1       1.613  54.150  22.780  0.00  0.00     0.065 H 
BRANCH  39  42
ATOM     42  C22 330 d   1       2.372  52.104  22.904  0.00  0.00    -0.030 C 
ATOM     43  H11 330 d   1       3.462  51.961  22.932  0.00  0.00     0.038 H 
ATOM     44  H12 330 d   1       2.028  52.096  21.859  0.00  0.00     0.038 H 
BRANCH  42  45
ATOM     45  C23 330 d   1       1.696  50.951  23.662  0.00  0.00     0.018 C 
ATOM     46  H13 330 d   1       0.605  51.083  23.619  0.00  0.00     0.074 H 
ATOM     47  H14 330 d   1       2.026  50.968  24.711  0.00  0.00     0.074 H 
BRANCH  45  48
ATOM     48  O4  330 d   1       2.047  49.653  23.069  0.00  0.00    -0.401 OA
ATOM     49  H20 330 d   1       1.761  49.632  22.163  0.00  0.00     0.209 HD
ENDBRANCH  45  48
ENDBRANCH  42  45
ENDBRANCH  39  42
ENDBRANCH  18  39
BRANCH  13  50
ATOM     50  O3  330 d   1       8.299  55.586  22.368  0.00  0.00    -0.361 OA
ATOM     51  H16 330 d   1       8.774  55.774  23.169  0.00  0.00     0.217 HD
ENDBRANCH  13  50
TORSDOF 8
