REMARK  22 active torsions:
REMARK  status: ('A' for Active; 'I' for Inactive)
REMARK    1  A    between atoms: C1_1  and  C6_4 
REMARK    2  A    between atoms: C6_4  and  N8_5 
REMARK    3  A    between atoms: C6_4  and  C10_6 
REMARK    4  A    between atoms: C10_6  and  C12_7 
REMARK    5  A    between atoms: C12_7  and  C14_8 
REMARK       I    between atoms: C14_8  and  N18_10 
REMARK    6  A    between atoms: N18_10  and  C20_11 
REMARK    7  A    between atoms: C20_11  and  C22_12 
REMARK    8  A    between atoms: C20_11  and  C24_13 
REMARK       I    between atoms: C24_13  and  N30_15 
REMARK    9  A    between atoms: N30_15  and  C29_16 
REMARK   10  A    between atoms: C29_16  and  P34_17 
REMARK   11  A    between atoms: P34_17  and  C33_18 
REMARK   12  A    between atoms: P34_17  and  O58_29 
REMARK   13  A    between atoms: C33_18  and  C35_19 
REMARK   14  A    between atoms: C35_19  and  C37_20 
REMARK   15  A    between atoms: C37_20  and  C39_21 
REMARK   16  A    between atoms: C39_21  and  N44_22 
REMARK   17  A    between atoms: N44_22  and  C43_23 
REMARK   18  A    between atoms: C43_23  and  C45_24 
REMARK   19  A    between atoms: C45_24  and  C47_25 
REMARK   20  A    between atoms: C47_25  and  C49_26 
REMARK   21  A    between atoms: C49_26  and  N54_27 
REMARK   22  A    between atoms: O58_29  and  P60_30 
ROOT
ATOM      1  P34 GGA d   1      -5.271  13.150  -3.964  0.00  0.00     0.225 P 
ATOM      2  O56 GGA d   1      -5.313  11.943  -3.401  0.00  0.00    -0.289 OA
ENDROOT
BRANCH   1   3
ATOM      3  C29 GGA d   1      -5.832  14.299  -2.927  0.00  0.00     0.067 C 
ATOM      4  H15 GGA d   1      -5.315  14.242  -1.958  0.00  0.00     0.079 H 
ATOM      5  H16 GGA d   1      -5.708  15.307  -3.350  0.00  0.00     0.079 H 
BRANCH   3   6
ATOM      6  N30 GGA d   1      -7.200  13.969  -2.793  0.00  0.00    -0.350 N 
ATOM      7  C24 GGA d   1      -8.214  14.894  -2.861  0.00  0.00     0.240 C 
ATOM      8  O26 GGA d   1      -8.059  16.110  -3.036  0.00  0.00    -0.271 OA
ATOM      9  H14 GGA d   1      -7.443  13.011  -2.640  0.00  0.00     0.163 HD
BRANCH   7  10
ATOM     10  C20 GGA d   1      -9.682  14.465  -2.793  0.00  0.00     0.086 C 
ATOM     11  H10 GGA d   1      -9.979  14.255  -3.831  0.00  0.00     0.086 H 
BRANCH  10  12
ATOM     12  N18 GGA d   1     -10.537  15.546  -2.390  0.00  0.00    -0.348 N 
ATOM     13  C14 GGA d   1     -10.814  15.937  -1.090  0.00  0.00     0.218 C 
ATOM     14  O16 GGA d   1     -10.312  15.372  -0.109  0.00  0.00    -0.274 OA
ATOM     15  H9  GGA d   1     -10.976  16.069  -3.121  0.00  0.00     0.163 HD
BRANCH  13  16
ATOM     16  C12 GGA d   1     -11.776  17.051  -0.915  0.00  0.00     0.012 C 
ATOM     17  H7  GGA d   1     -11.367  17.966  -1.368  0.00  0.00     0.047 H 
ATOM     18  H8  GGA d   1     -12.729  16.795  -1.401  0.00  0.00     0.047 H 
BRANCH  16  19
ATOM     19  C10 GGA d   1     -12.003  17.274   0.561  0.00  0.00    -0.021 C 
ATOM     20  H5  GGA d   1     -12.388  16.348   1.013  0.00  0.00     0.037 H 
ATOM     21  H6  GGA d   1     -11.050  17.546   1.038  0.00  0.00     0.037 H 
BRANCH  19  22
ATOM     22  C6  GGA d   1     -13.003  18.386   0.774  0.00  0.00     0.183 C 
ATOM     23  H1  GGA d   1     -12.590  19.330   0.388  0.00  0.00     0.101 H 
BRANCH  22  24
ATOM     24  C1  GGA d   1     -13.234  18.507   2.275  0.00  0.00     0.204 C 
ATOM     25  O2  GGA d   1     -14.456  18.563   2.896  0.00  0.00    -0.646 OA
ATOM     26  O4  GGA d   1     -11.996  18.601   3.002  0.00  0.00    -0.646 OA
ENDBRANCH  22  24
BRANCH  22  27
ATOM     27  N8  GGA d   1     -14.265  18.100   0.077  0.00  0.00    -0.065 N 
ATOM     28  H2  GGA d   1     -14.092  18.024  -0.913  0.00  0.00     0.275 HD
ATOM     29  H3  GGA d   1     -14.920  18.847   0.247  0.00  0.00     0.275 HD
ATOM     30  H4  GGA d   1     -14.649  17.233   0.419  0.00  0.00     0.275 HD
ENDBRANCH  22  27
ENDBRANCH  19  22
ENDBRANCH  16  19
ENDBRANCH  13  16
ENDBRANCH  10  12
BRANCH  10  31
ATOM     31  C22 GGA d   1      -9.832  13.107  -2.065  0.00  0.00    -0.049 C 
ATOM     32  H11 GGA d   1      -9.114  12.386  -2.483  0.00  0.00     0.030 H 
ATOM     33  H12 GGA d   1     -10.855  12.728  -2.204  0.00  0.00     0.030 H 
ATOM     34  H13 GGA d   1      -9.633  13.242  -0.992  0.00  0.00     0.030 H 
ENDBRANCH  10  31
ENDBRANCH   7  10
ENDBRANCH   3   6
ENDBRANCH   1   3
BRANCH   1  35
ATOM     35  C33 GGA d   1      -6.309  12.924  -5.215  0.00  0.00     0.009 C 
ATOM     36  H17 GGA d   1      -7.301  12.665  -4.816  0.00  0.00     0.047 H 
ATOM     37  H18 GGA d   1      -5.940  12.100  -5.843  0.00  0.00     0.047 H 
BRANCH  35  38
ATOM     38  C35 GGA d   1      -6.430  14.184  -6.068  0.00  0.00    -0.055 C 
ATOM     39  H19 GGA d   1      -5.450  14.416  -6.510  0.00  0.00     0.033 H 
ATOM     40  H20 GGA d   1      -6.752  15.021  -5.431  0.00  0.00     0.033 H 
BRANCH  38  41
ATOM     41  C37 GGA d   1      -7.449  13.986  -7.187  0.00  0.00    -0.042 C 
ATOM     42  H21 GGA d   1      -8.263  14.712  -7.045  0.00  0.00     0.035 H 
ATOM     43  H22 GGA d   1      -7.851  12.965  -7.111  0.00  0.00     0.035 H 
BRANCH  41  44
ATOM     44  C39 GGA d   1      -6.880  14.173  -8.590  0.00  0.00     0.082 C 
ATOM     45  H23 GGA d   1      -6.109  13.416  -8.798  0.00  0.00     0.075 H 
ATOM     46  H24 GGA d   1      -6.446  15.178  -8.700  0.00  0.00     0.075 H 
BRANCH  44  47
ATOM     47  N44 GGA d   1      -8.026  14.004  -9.496  0.00  0.00    -0.075 N 
ATOM     48  H25 GGA d   1      -8.737  14.678  -9.258  0.00  0.00     0.277 HD
ATOM     49  H26 GGA d   1      -8.396  13.072  -9.390  0.00  0.00     0.277 HD
BRANCH  47  50
ATOM     50  C43 GGA d   1      -7.625  14.203 -10.882  0.00  0.00     0.082 C 
ATOM     51  H27 GGA d   1      -6.895  13.431 -11.169  0.00  0.00     0.075 H 
ATOM     52  H28 GGA d   1      -7.170  15.198 -10.995  0.00  0.00     0.075 H 
BRANCH  50  53
ATOM     53  C45 GGA d   1      -8.867  14.099 -11.784  0.00  0.00    -0.041 C 
ATOM     54  H29 GGA d   1      -9.617  14.838 -11.465  0.00  0.00     0.035 H 
ATOM     55  H30 GGA d   1      -9.294  13.088 -11.709  0.00  0.00     0.035 H 
BRANCH  53  56
ATOM     56  C47 GGA d   1      -8.456  14.377 -13.237  0.00  0.00    -0.041 C 
ATOM     57  H31 GGA d   1      -7.730  13.619 -13.565  0.00  0.00     0.035 H 
ATOM     58  H32 GGA d   1      -8.000  15.376 -13.306  0.00  0.00     0.035 H 
BRANCH  56  59
ATOM     59  C49 GGA d   1      -9.699  14.318 -14.133  0.00  0.00     0.080 C 
ATOM     60  H33 GGA d   1     -10.430  15.067 -13.793  0.00  0.00     0.075 H 
ATOM     61  H34 GGA d   1     -10.146  13.315 -14.071  0.00  0.00     0.075 H 
BRANCH  59  62
ATOM     62  N54 GGA d   1      -9.325  14.599 -15.523  0.00  0.00    -0.079 N 
ATOM     63  H35 GGA d   1     -10.146  14.559 -16.107  0.00  0.00     0.274 HD
ATOM     64  H36 GGA d   1      -8.656  13.913 -15.836  0.00  0.00     0.274 HD
ATOM     65  H37 GGA d   1      -8.916  15.518 -15.582  0.00  0.00     0.274 HD
ENDBRANCH  59  62
ENDBRANCH  56  59
ENDBRANCH  53  56
ENDBRANCH  50  53
ENDBRANCH  47  50
ENDBRANCH  44  47
ENDBRANCH  41  44
ENDBRANCH  38  41
ENDBRANCH  35  38
ENDBRANCH   1  35
BRANCH   1  66
ATOM     66  O58 GGA d   1      -3.865  13.412  -4.607  0.00  0.00    -0.219 OA
BRANCH  66  67
ATOM     67  P60 GGA d   1      -3.003  14.689  -4.349  0.00  0.00     0.428 P 
ATOM     68  O62 GGA d   1      -3.707  15.942  -4.785  0.00  0.00    -0.617 OA
ATOM     69  O64 GGA d   1      -2.769  14.879  -3.036  0.00  0.00    -0.617 OA
ATOM     70  O66 GGA d   1      -1.718  14.533  -5.121  0.00  0.00    -0.617 OA
ENDBRANCH  66  67
ENDBRANCH   1  66
TORSDOF 22
