REMARK  13 active torsions:
REMARK  status: ('A' for Active; 'I' for Inactive)
REMARK    1  A    between atoms: C1_1  and  C8_8 
REMARK    2  A    between atoms: C4_4  and  O5_5 
REMARK    3  A    between atoms: C8_8  and  C9_9 
REMARK    4  A    between atoms: C9_9  and  C10_10 
REMARK    5  A    between atoms: C10_10  and  C11_11 
REMARK    6  A    between atoms: C10_10  and  N12_12 
REMARK       I    between atoms: N12_12  and  C13_13 
REMARK    7  A    between atoms: C13_13  and  C15_15 
REMARK    8  A    between atoms: C15_15  and  C16_16 
REMARK    9  A    between atoms: C17_17  and  C25_25 
REMARK   10  A    between atoms: C21_21  and  O31_31 
REMARK   11  A    between atoms: O31_31  and  C32_32 
REMARK   12  A    between atoms: C32_32  and  C33_33 
REMARK   13  A    between atoms: C33_33  and  N34_34 
ROOT
ATOM      1  C16 IOG d   1      34.722   0.152  26.420  0.00  0.00    -0.009 A 
ATOM      2  C17 IOG d   1      35.662  -0.766  27.121  0.00  0.00     0.050 A 
ATOM      3  N18 IOG d   1      35.425  -2.118  26.590  0.00  0.00    -0.354 N 
ATOM      4  C19 IOG d   1      34.410  -2.067  25.700  0.00  0.00     0.046 A 
ATOM      5  C20 IOG d   1      33.867  -3.137  24.963  0.00  0.00    -0.024 C 
ATOM      6  C21 IOG d   1      32.925  -2.824  23.953  0.00  0.00     0.071 C 
ATOM      7  C22 IOG d   1      32.364  -1.549  23.896  0.00  0.00    -0.050 C 
ATOM      8  C23 IOG d   1      32.825  -0.517  24.744  0.00  0.00    -0.068 C 
ATOM      9  C24 IOG d   1      33.909  -0.786  25.605  0.00  0.00    -0.000 A 
ATOM     10  H17 IOG d   1      35.948  -2.965  26.854  0.00  0.00     0.166 HD
ATOM     11  H18 IOG d   1      34.159  -4.162  25.161  0.00  0.00     0.091 H 
ATOM     12  H19 IOG d   1      31.564  -1.347  23.193  0.00  0.00     0.087 H 
ATOM     13  H20 IOG d   1      32.356   0.460  24.733  0.00  0.00     0.085 H 
ENDROOT
BRANCH   1  14
ATOM     14  C15 IOG d   1      34.426   1.596  26.431  0.00  0.00     0.036 C 
ATOM     15  H15 IOG d   1      35.362   2.141  26.623  0.00  0.00     0.054 H 
ATOM     16  H16 IOG d   1      34.034   1.877  25.443  0.00  0.00     0.054 H 
BRANCH  14  17
ATOM     17  C13 IOG d   1      33.439   1.992  27.454  0.00  0.00     0.222 C 
ATOM     18  N12 IOG d   1      32.910   1.060  28.266  0.00  0.00    -0.357 N 
ATOM     19  H14 IOG d   1      33.190   0.102  28.211  0.00  0.00     0.162 HD
ATOM     20  O14 IOG d   1      33.110   3.198  27.547  0.00  0.00    -0.273 OA
BRANCH  18  21
ATOM     21  C10 IOG d   1      31.891   1.515  29.250  0.00  0.00     0.009 C 
ATOM     22  H10 IOG d   1      31.677   2.577  29.058  0.00  0.00     0.071 H 
BRANCH  21  23
ATOM     23  C9  IOG d   1      30.604   0.681  29.030  0.00  0.00    -0.043 C 
ATOM     24  H8  IOG d   1      30.782  -0.359  29.340  0.00  0.00     0.036 H 
ATOM     25  H9  IOG d   1      29.783   1.106  29.627  0.00  0.00     0.036 H 
BRANCH  23  26
ATOM     26  C8  IOG d   1      30.226   0.718  27.527  0.00  0.00    -0.039 C 
ATOM     27  H6  IOG d   1      30.205   1.762  27.180  0.00  0.00     0.040 H 
ATOM     28  H7  IOG d   1      30.972   0.154  26.948  0.00  0.00     0.040 H 
BRANCH  26  29
ATOM     29  C1  IOG d   1      28.863   0.096  27.333  0.00  0.00    -0.058 A 
ATOM     30  C2  IOG d   1      27.763   0.896  27.659  0.00  0.00    -0.074 A 
ATOM     31  C3  IOG d   1      26.462   0.401  27.512  0.00  0.00    -0.051 A 
ATOM     32  H1  IOG d   1      27.919   1.904  28.027  0.00  0.00     0.084 H 
ATOM     33  C4  IOG d   1      26.293  -0.920  27.073  0.00  0.00     0.065 A 
ATOM     34  H2  IOG d   1      25.604   1.025  27.733  0.00  0.00     0.087 H 
ATOM     35  C6  IOG d   1      27.377  -1.707  26.701  0.00  0.00    -0.051 A 
ATOM     36  C7  IOG d   1      28.687  -1.201  26.848  0.00  0.00    -0.074 A 
ATOM     37  H4  IOG d   1      27.218  -2.702  26.301  0.00  0.00     0.087 H 
ATOM     38  H5  IOG d   1      29.544  -1.811  26.588  0.00  0.00     0.084 H 
BRANCH  33  39
ATOM     39  O5  IOG d   1      25.017  -1.332  26.882  0.00  0.00    -0.361 OA
ATOM     40  H3  IOG d   1      25.018  -2.235  26.587  0.00  0.00     0.217 HD
ENDBRANCH  33  39
ENDBRANCH  26  29
ENDBRANCH  23  26
ENDBRANCH  21  23
BRANCH  21  41
ATOM     41  C11 IOG d   1      32.317   1.369  30.716  0.00  0.00    -0.057 C 
ATOM     42  H11 IOG d   1      33.231   1.955  30.892  0.00  0.00     0.030 H 
ATOM     43  H12 IOG d   1      32.513   0.309  30.937  0.00  0.00     0.030 H 
ATOM     44  H13 IOG d   1      31.513   1.738  31.370  0.00  0.00     0.030 H 
ENDBRANCH  21  41
ENDBRANCH  18  21
ENDBRANCH  14  17
ENDBRANCH   1  14
BRANCH   2  45
ATOM     45  C25 IOG d   1      36.732  -0.382  28.105  0.00  0.00    -0.009 A 
ATOM     46  C26 IOG d   1      36.589   0.728  28.954  0.00  0.00    -0.071 A 
ATOM     47  C27 IOG d   1      37.619   1.038  29.881  0.00  0.00    -0.082 A 
ATOM     48  H21 IOG d   1      35.698   1.344  28.902  0.00  0.00     0.084 H 
ATOM     49  C28 IOG d   1      38.799   0.290  29.917  0.00  0.00    -0.083 A 
ATOM     50  H22 IOG d   1      37.488   1.865  30.569  0.00  0.00     0.083 H 
ATOM     51  C29 IOG d   1      38.935  -0.798  29.080  0.00  0.00    -0.082 A 
ATOM     52  H23 IOG d   1      39.599   0.562  30.596  0.00  0.00     0.083 H 
ATOM     53  C30 IOG d   1      37.894  -1.155  28.171  0.00  0.00    -0.071 A 
ATOM     54  H24 IOG d   1      39.843  -1.389  29.113  0.00  0.00     0.083 H 
ATOM     55  H25 IOG d   1      38.005  -2.024  27.533  0.00  0.00     0.084 H 
ENDBRANCH   2  45
BRANCH   6  56
ATOM     56  O31 IOG d   1      32.342  -3.802  23.230  0.00  0.00    -0.349 OA
BRANCH  56  57
ATOM     57  C32 IOG d   1      33.045  -4.662  22.320  0.00  0.00     0.049 C 
ATOM     58  H26 IOG d   1      32.355  -5.460  22.009  0.00  0.00     0.077 H 
ATOM     59  H27 IOG d   1      33.895  -5.103  22.861  0.00  0.00     0.077 H 
BRANCH  57  60
ATOM     60  C33 IOG d   1      33.589  -3.992  21.056  0.00  0.00     0.103 C 
ATOM     61  H28 IOG d   1      34.536  -4.473  20.771  0.00  0.00     0.079 H 
ATOM     62  H29 IOG d   1      33.766  -2.926  21.260  0.00  0.00     0.079 H 
BRANCH  60  63
ATOM     63  N34 IOG d   1      32.615  -4.121  19.929  0.00  0.00    -0.069 N 
ATOM     64  C35 IOG d   1      33.260  -3.310  18.860  0.00  0.00     0.084 C 
ATOM     65  C36 IOG d   1      32.289  -3.090  17.688  0.00  0.00    -0.042 C 
ATOM     66  H31 IOG d   1      34.154  -3.838  18.495  0.00  0.00     0.076 H 
ATOM     67  H32 IOG d   1      33.554  -2.334  19.274  0.00  0.00     0.076 H 
ATOM     68  C37 IOG d   1      31.024  -2.381  18.182  0.00  0.00    -0.062 C 
ATOM     69  H33 IOG d   1      32.015  -4.063  17.254  0.00  0.00     0.035 H 
ATOM     70  H34 IOG d   1      32.778  -2.471  16.921  0.00  0.00     0.035 H 
ATOM     71  C38 IOG d   1      30.363  -3.322  19.200  0.00  0.00    -0.042 C 
ATOM     72  H35 IOG d   1      30.341  -2.192  17.340  0.00  0.00     0.033 H 
ATOM     73  H36 IOG d   1      31.287  -1.427  18.662  0.00  0.00     0.033 H 
ATOM     74  C39 IOG d   1      31.347  -3.514  20.361  0.00  0.00     0.084 C 
ATOM     75  H37 IOG d   1      30.145  -4.292  18.728  0.00  0.00     0.035 H 
ATOM     76  H38 IOG d   1      29.428  -2.877  19.571  0.00  0.00     0.035 H 
ATOM     77  H39 IOG d   1      31.560  -2.532  20.809  0.00  0.00     0.076 H 
ATOM     78  H40 IOG d   1      30.881  -4.167  21.114  0.00  0.00     0.076 H 
ATOM     79  H30 IOG d   1      32.476  -5.078  19.644  0.00  0.00     0.280 HD
ENDBRANCH  60  63
ENDBRANCH  57  60
ENDBRANCH  56  57
ENDBRANCH   6  56
TORSDOF 13
