REMARK  9 active torsions:
REMARK  status: ('A' for Active; 'I' for Inactive)
REMARK    1  A    between atoms: C1_1  and  C8_8 
REMARK    2  A    between atoms: C4_4  and  O5_5 
REMARK    3  A    between atoms: C8_8  and  C9_9 
REMARK    4  A    between atoms: C9_9  and  C10_10 
REMARK    5  A    between atoms: C10_10  and  C11_11 
REMARK    6  A    between atoms: C10_10  and  N12_12 
REMARK       I    between atoms: N12_12  and  C13_13 
REMARK    7  A    between atoms: C13_13  and  C15_15 
REMARK    8  A    between atoms: C15_15  and  C16_16 
REMARK    9  A    between atoms: C17_17  and  C25_25 
ROOT
ATOM      1  N12 IOK d   1      19.508  35.264  51.600  0.00  0.00    -0.357 N 
ATOM      2  C13 IOK d   1      19.707  33.974  51.859  0.00  0.00     0.222 C 
ATOM      3  O14 IOK d   1      20.040  33.195  50.930  0.00  0.00    -0.273 OA
ATOM      4  H14 IOK d   1      19.250  35.890  52.336  0.00  0.00     0.162 HD
ENDROOT
BRANCH   2   5
ATOM      5  C15 IOK d   1      19.554  33.456  53.255  0.00  0.00     0.036 C 
ATOM      6  H15 IOK d   1      20.544  33.453  53.733  0.00  0.00     0.054 H 
ATOM      7  H16 IOK d   1      19.169  32.427  53.202  0.00  0.00     0.054 H 
BRANCH   5   8
ATOM      8  C16 IOK d   1      18.617  34.269  54.111  0.00  0.00    -0.009 A 
ATOM      9  C17 IOK d   1      18.921  35.153  55.178  0.00  0.00     0.050 A 
ATOM     10  N18 IOK d   1      17.752  35.646  55.665  0.00  0.00    -0.354 N 
ATOM     11  C19 IOK d   1      16.713  35.135  54.938  0.00  0.00     0.043 A 
ATOM     12  H17 IOK d   1      17.663  36.300  56.456  0.00  0.00     0.166 HD
ATOM     13  C20 IOK d   1      15.336  35.324  55.083  0.00  0.00    -0.056 A 
ATOM     14  C24 IOK d   1      17.240  34.316  53.961  0.00  0.00    -0.000 A 
ATOM     15  C21 IOK d   1      14.481  34.660  54.197  0.00  0.00    -0.081 A 
ATOM     16  H18 IOK d   1      14.941  35.968  55.861  0.00  0.00     0.086 H 
ATOM     17  C22 IOK d   1      15.016  33.839  53.180  0.00  0.00    -0.082 A 
ATOM     18  H19 IOK d   1      13.407  34.776  54.291  0.00  0.00     0.083 H 
ATOM     19  C23 IOK d   1      16.382  33.621  53.072  0.00  0.00    -0.070 A 
ATOM     20  H20 IOK d   1      14.346  33.370  52.469  0.00  0.00     0.083 H 
ATOM     21  H21 IOK d   1      16.781  32.939  52.330  0.00  0.00     0.084 H 
BRANCH   9  22
ATOM     22  C25 IOK d   1      20.223  35.580  55.762  0.00  0.00    -0.009 A 
ATOM     23  C26 IOK d   1      21.475  35.211  55.273  0.00  0.00    -0.071 A 
ATOM     24  C27 IOK d   1      22.652  35.675  55.894  0.00  0.00    -0.082 A 
ATOM     25  H22 IOK d   1      21.544  34.562  54.408  0.00  0.00     0.084 H 
ATOM     26  C28 IOK d   1      22.573  36.484  57.022  0.00  0.00    -0.083 A 
ATOM     27  H23 IOK d   1      23.620  35.401  55.492  0.00  0.00     0.083 H 
ATOM     28  C29 IOK d   1      21.320  36.874  57.512  0.00  0.00    -0.082 A 
ATOM     29  H24 IOK d   1      23.478  36.812  57.521  0.00  0.00     0.083 H 
ATOM     30  C30 IOK d   1      20.157  36.435  56.873  0.00  0.00    -0.071 A 
ATOM     31  H25 IOK d   1      21.253  37.514  58.384  0.00  0.00     0.083 H 
ATOM     32  H26 IOK d   1      19.190  36.760  57.241  0.00  0.00     0.084 H 
ENDBRANCH   9  22
ENDBRANCH   5   8
ENDBRANCH   2   5
BRANCH   1  33
ATOM     33  C10 IOK d   1      19.670  35.765  50.226  0.00  0.00     0.009 C 
ATOM     34  H10 IOK d   1      20.384  35.127  49.684  0.00  0.00     0.071 H 
BRANCH  33  35
ATOM     35  C9  IOK d   1      18.304  35.705  49.517  0.00  0.00    -0.043 C 
ATOM     36  H8  IOK d   1      18.202  36.576  48.853  0.00  0.00     0.036 H 
ATOM     37  H9  IOK d   1      18.245  34.782  48.922  0.00  0.00     0.036 H 
BRANCH  35  38
ATOM     38  C8  IOK d   1      17.166  35.717  50.544  0.00  0.00    -0.039 C 
ATOM     39  H6  IOK d   1      17.178  34.767  51.098  0.00  0.00     0.040 H 
ATOM     40  H7  IOK d   1      17.327  36.551  51.243  0.00  0.00     0.040 H 
BRANCH  38  41
ATOM     41  C1  IOK d   1      15.813  35.883  49.888  0.00  0.00    -0.058 A 
ATOM     42  C2  IOK d   1      14.703  36.091  50.726  0.00  0.00    -0.074 A 
ATOM     43  C3  IOK d   1      13.432  36.265  50.178  0.00  0.00    -0.051 A 
ATOM     44  H1  IOK d   1      14.835  36.116  51.802  0.00  0.00     0.084 H 
ATOM     45  C4  IOK d   1      13.260  36.231  48.796  0.00  0.00     0.065 A 
ATOM     46  H2  IOK d   1      12.579  36.426  50.827  0.00  0.00     0.087 H 
ATOM     47  C6  IOK d   1      14.368  36.066  47.958  0.00  0.00    -0.051 A 
ATOM     48  C7  IOK d   1      15.642  35.833  48.513  0.00  0.00    -0.074 A 
ATOM     49  H4  IOK d   1      14.246  36.117  46.882  0.00  0.00     0.087 H 
ATOM     50  H5  IOK d   1      16.485  35.615  47.867  0.00  0.00     0.084 H 
BRANCH  45  51
ATOM     51  O5  IOK d   1      12.021  36.392  48.290  0.00  0.00    -0.361 OA
ATOM     52  H3  IOK d   1      11.454  35.705  48.619  0.00  0.00     0.217 HD
ENDBRANCH  45  51
ENDBRANCH  38  41
ENDBRANCH  35  38
ENDBRANCH  33  35
BRANCH  33  53
ATOM     53  C11 IOK d   1      20.219  37.196  50.274  0.00  0.00    -0.057 C 
ATOM     54  H11 IOK d   1      21.192  37.198  50.786  0.00  0.00     0.030 H 
ATOM     55  H12 IOK d   1      19.515  37.840  50.821  0.00  0.00     0.030 H 
ATOM     56  H13 IOK d   1      20.343  37.576  49.249  0.00  0.00     0.030 H 
ENDBRANCH  33  53
ENDBRANCH   1  33
TORSDOF 9
