REMARK  6 active torsions:
REMARK  status: ('A' for Active; 'I' for Inactive)
REMARK    1  A    between atoms: PAP_2  and  CAJ_5 
REMARK    2  A    between atoms: CAJ_5  and  CAM_6 
REMARK       I    between atoms: CAM_6  and  N_8 
REMARK    3  A    between atoms: N_8  and  CA_9 
REMARK    4  A    between atoms: CA_9  and  C_10 
REMARK    5  A    between atoms: CA_9  and  CB_13 
REMARK    6  A    between atoms: CB_13  and  CG_14 
REMARK       I    between atoms: CG_14  and  ND2_16 
ROOT
ATOM      1  CA  1IP d   1      40.579  29.495  17.335  0.00  0.00     0.104 C 
ATOM      2  H4  1IP d   1      39.913  29.658  16.475  0.00  0.00     0.090 H 
ENDROOT
BRANCH   1   3
ATOM      3  N   1IP d   1      41.763  28.753  16.878  0.00  0.00    -0.346 N 
ATOM      4  CAM 1IP d   1      42.467  29.114  15.810  0.00  0.00     0.231 C 
ATOM      5  OAC 1IP d   1      42.225  30.102  15.115  0.00  0.00    -0.273 OA
ATOM      6  H3  1IP d   1      42.050  27.944  17.391  0.00  0.00     0.163 HD
BRANCH   4   7
ATOM      7  CAJ 1IP d   1      43.648  28.194  15.493  0.00  0.00     0.112 C 
ATOM      8  H1  1IP d   1      43.493  27.225  15.990  0.00  0.00     0.068 H 
ATOM      9  H2  1IP d   1      43.705  28.043  14.405  0.00  0.00     0.068 H 
BRANCH   7  10
ATOM     10  PAP 1IP d   1      45.202  28.915  16.073  0.00  0.00     0.268 P 
ATOM     11  OAG 1IP d   1      46.337  27.802  15.821  0.00  0.00    -0.639 OA
ATOM     12  OAH 1IP d   1      45.562  30.127  15.073  0.00  0.00    -0.639 OA
ATOM     13  OAE 1IP d   1      45.151  29.362  17.487  0.00  0.00    -0.639 OA
ENDBRANCH   7  10
ENDBRANCH   4   7
ENDBRANCH   1   3
BRANCH   1  14
ATOM     14  C   1IP d   1      40.965  30.858  17.911  0.00  0.00     0.197 C 
ATOM     15  O1  1IP d   1      40.044  31.549  18.397  0.00  0.00    -0.646 OA
ATOM     16  O   1IP d   1      42.172  31.185  17.849  0.00  0.00    -0.646 OA
ENDBRANCH   1  14
BRANCH   1  17
ATOM     17  CB  1IP d   1      39.835  28.666  18.384  0.00  0.00     0.037 C 
ATOM     18  H5  1IP d   1      39.498  27.729  17.917  0.00  0.00     0.051 H 
ATOM     19  H6  1IP d   1      38.962  29.238  18.730  0.00  0.00     0.051 H 
BRANCH  17  20
ATOM     20  CG  1IP d   1      40.707  28.323  19.596  0.00  0.00     0.217 C 
ATOM     21  OD1 1IP d   1      40.306  27.527  20.442  0.00  0.00    -0.274 OA
ATOM     22  ND2 1IP d   1      41.883  28.940  19.660  0.00  0.00    -0.370 N 
ATOM     23  H7  1IP d   1      42.501  28.761  20.426  0.00  0.00     0.159 HD
ATOM     24  H8  1IP d   1      42.150  29.583  18.942  0.00  0.00     0.159 HD
ENDBRANCH  17  20
ENDBRANCH   1  17
TORSDOF 6
