REMARK  18 active torsions:
REMARK  status: ('A' for Active; 'I' for Inactive)
REMARK       I    between atoms: N1_1  and  C8_6 
REMARK    1  A    between atoms: C15_9  and  N1_1 
REMARK    2  A    between atoms: C8_6  and  C4_2 
REMARK    3  A    between atoms: C_17  and  C6_4 
REMARK       I    between atoms: C6_4  and  N_22 
REMARK    4  A    between atoms: C2_19  and  C7_5 
REMARK    5  A    between atoms: C10_7  and  C13_8 
REMARK    6  A    between atoms: N_22  and  C10_7 
REMARK    7  A    between atoms: C13_8  and  C14_26 
REMARK    8  A    between atoms: C15_9  and  C17_10 
REMARK    9  A    between atoms: C16_28  and  C15_9 
REMARK   10  A    between atoms: C17_10  and  C28_16 
REMARK   11  A    between atoms: C19_31  and  C20_11 
REMARK   12  A    between atoms: N_22  and  C9_23 
REMARK   13  A    between atoms: C9_23  and  C11_24 
REMARK   14  A    between atoms: C11_24  and  C12_25 
REMARK   15  A    between atoms: C18_29  and  C16_28 
REMARK   16  A    between atoms: C16_28  and  O2_41 
REMARK   17  A    between atoms: N2_30  and  C18_29 
REMARK   18  A    between atoms: N2_30  and  C19_31 
ROOT
ATOM      1  N1  F2I d   1      14.192  -4.572  17.080  0.00  0.00    -0.349 N 
ATOM      2  C8  F2I d   1      14.132  -4.258  18.443  0.00  0.00     0.252 C 
ATOM      3  O1  F2I d   1      14.665  -4.959  19.294  0.00  0.00    -0.268 OA
ATOM      4  H1  F2I d   1      13.741  -3.942  16.447  0.00  0.00     0.163 HD
ENDROOT
BRANCH   1   5
ATOM      5  C15 F2I d   1      14.867  -5.760  16.489  0.00  0.00     0.042 C 
ATOM      6  H10 F2I d   1      15.034  -6.510  17.276  0.00  0.00     0.077 H 
BRANCH   5   7
ATOM      7  C17 F2I d   1      13.842  -6.318  15.475  0.00  0.00    -0.020 C 
ATOM      8  H11 F2I d   1      14.241  -7.238  15.023  0.00  0.00     0.043 H 
ATOM      9  H12 F2I d   1      13.664  -5.570  14.688  0.00  0.00     0.043 H 
BRANCH   7  10
ATOM     10  C28 F2I d   1      12.524  -6.633  16.180  0.00  0.00    -0.050 A 
ATOM     11  C27 F2I d   1      12.496  -7.363  17.416  0.00  0.00    -0.039 A 
ATOM     12  C26 F2I d   1      11.267  -7.638  18.070  0.00  0.00     0.119 A 
ATOM     13  H36 F2I d   1      13.425  -7.708  17.855  0.00  0.00     0.089 H 
ATOM     14  C31 F2I d   1      10.049  -7.191  17.499  0.00  0.00    -0.009 A 
ATOM     15  F   F2I d   1      11.263  -8.306  19.205  0.00  0.00    -0.206 F 
ATOM     16  C30 F2I d   1      10.070  -6.471  16.277  0.00  0.00     0.119 A 
ATOM     17  H38 F2I d   1       9.107  -7.398  17.993  0.00  0.00     0.092 H 
ATOM     18  C29 F2I d   1      11.302  -6.194  15.625  0.00  0.00    -0.039 A 
ATOM     19  F1  F2I d   1       8.952  -6.052  15.744  0.00  0.00    -0.206 F 
ATOM     20  H37 F2I d   1      11.304  -5.641  14.693  0.00  0.00     0.089 H 
ENDBRANCH   7  10
ENDBRANCH   5   7
BRANCH   5  21
ATOM     21  C16 F2I d   1      16.242  -5.420  15.881  0.00  0.00     0.078 C 
ATOM     22  H27 F2I d   1      16.136  -4.630  15.123  0.00  0.00     0.088 H 
BRANCH  21  23
ATOM     23  C18 F2I d   1      17.204  -4.986  16.978  0.00  0.00     0.107 C 
ATOM     24  H28 F2I d   1      17.276  -5.784  17.732  0.00  0.00     0.079 H 
ATOM     25  H29 F2I d   1      16.822  -4.069  17.450  0.00  0.00     0.079 H 
BRANCH  23  26
ATOM     26  N2  F2I d   1      18.527  -4.726  16.431  0.00  0.00    -0.069 N 
ATOM     27  H30 F2I d   1      18.477  -3.924  15.822  0.00  0.00     0.277 HD
ATOM     28  H31 F2I d   1      18.827  -5.531  15.903  0.00  0.00     0.277 HD
BRANCH  26  29
ATOM     29  C19 F2I d   1      19.501  -4.461  17.484  0.00  0.00     0.105 C 
ATOM     30  H32 F2I d   1      20.449  -4.122  17.040  0.00  0.00     0.083 H 
ATOM     31  H33 F2I d   1      19.116  -3.686  18.163  0.00  0.00     0.083 H 
BRANCH  29  32
ATOM     32  C20 F2I d   1      19.726  -5.777  18.262  0.00  0.00    -0.032 A 
ATOM     33  C21 F2I d   1      19.735  -5.804  19.683  0.00  0.00    -0.075 A 
ATOM     34  C22 F2I d   1      19.923  -7.031  20.377  0.00  0.00    -0.081 A 
ATOM     35  H13 F2I d   1      19.598  -4.885  20.241  0.00  0.00     0.084 H 
ATOM     36  C23 F2I d   1      20.103  -8.249  19.660  0.00  0.00    -0.067 A 
ATOM     37  H14 F2I d   1      19.929  -7.040  21.461  0.00  0.00     0.083 H 
ATOM     38  C24 F2I d   1      20.097  -8.248  18.239  0.00  0.00     0.007 A 
ATOM     39  H34 F2I d   1      20.245  -9.178  20.200  0.00  0.00     0.085 H 
ATOM     40  C25 F2I d   1      19.910  -7.017  17.546  0.00  0.00    -0.059 A 
ATOM     41  I   F2I d   1      20.351 -10.046  17.177  0.00  0.00    -0.045 I 
ATOM     42  H35 F2I d   1      19.906  -7.012  16.462  0.00  0.00     0.086 H 
ENDBRANCH  29  32
ENDBRANCH  26  29
ENDBRANCH  23  26
ENDBRANCH  21  23
BRANCH  21  43
ATOM     43  O2  F2I d   1      16.788  -6.577  15.322  0.00  0.00    -0.392 OA
ATOM     44  H39 F2I d   1      16.221  -6.890  14.627  0.00  0.00     0.210 HD
ENDBRANCH  21  43
ENDBRANCH   5  21
ENDBRANCH   1   5
BRANCH   2  45
ATOM     45  C4  F2I d   1      13.338  -3.042  18.819  0.00  0.00     0.033 A 
ATOM     46  C5  F2I d   1      12.258  -2.651  17.976  0.00  0.00    -0.052 A 
ATOM     47  C   F2I d   1      11.476  -1.517  18.305  0.00  0.00     0.033 A 
ATOM     48  H2  F2I d   1      12.035  -3.222  17.082  0.00  0.00     0.086 H 
ATOM     49  C1  F2I d   1      11.775  -0.770  19.480  0.00  0.00    -0.062 A 
ATOM     50  C2  F2I d   1      12.853  -1.154  20.328  0.00  0.00    -0.060 A 
ATOM     51  H15 F2I d   1      11.177   0.099  19.731  0.00  0.00     0.085 H 
ATOM     52  C3  F2I d   1      13.632  -2.295  19.991  0.00  0.00    -0.062 A 
ATOM     53  H16 F2I d   1      14.454  -2.596  20.631  0.00  0.00     0.085 H 
BRANCH  47  54
ATOM     54  C6  F2I d   1      10.329  -1.091  17.411  0.00  0.00     0.253 C 
ATOM     55  O   F2I d   1      10.373   0.041  16.958  0.00  0.00    -0.267 OA
ATOM     56  N   F2I d   1       9.220  -1.964  17.109  0.00  0.00    -0.348 N 
BRANCH  56  57
ATOM     57  C10 F2I d   1       8.897  -3.102  17.997  0.00  0.00    -0.002 C 
ATOM     58  H6  F2I d   1       8.731  -3.998  17.380  0.00  0.00     0.064 H 
ATOM     59  H7  F2I d   1       9.746  -3.276  18.675  0.00  0.00     0.064 H 
BRANCH  57  60
ATOM     60  C13 F2I d   1       7.631  -2.836  18.841  0.00  0.00    -0.053 C 
ATOM     61  H8  F2I d   1       7.342  -3.768  19.349  0.00  0.00     0.034 H 
ATOM     62  H9  F2I d   1       6.820  -2.516  18.171  0.00  0.00     0.034 H 
BRANCH  60  63
ATOM     63  C14 F2I d   1       7.855  -1.746  19.900  0.00  0.00    -0.075 C 
ATOM     64  H24 F2I d   1       6.928  -1.595  20.472  0.00  0.00     0.027 H 
ATOM     65  H25 F2I d   1       8.138  -0.806  19.404  0.00  0.00     0.027 H 
ATOM     66  H26 F2I d   1       8.660  -2.057  20.582  0.00  0.00     0.027 H 
ENDBRANCH  60  63
ENDBRANCH  57  60
ENDBRANCH  56  57
BRANCH  56  67
ATOM     67  C9  F2I d   1       8.369  -1.681  15.920  0.00  0.00    -0.002 C 
ATOM     68  H17 F2I d   1       7.944  -0.672  16.029  0.00  0.00     0.064 H 
ATOM     69  H18 F2I d   1       7.555  -2.421  15.892  0.00  0.00     0.064 H 
BRANCH  67  70
ATOM     70  C11 F2I d   1       9.131  -1.745  14.581  0.00  0.00    -0.053 C 
ATOM     71  H19 F2I d   1      10.107  -1.254  14.705  0.00  0.00     0.034 H 
ATOM     72  H20 F2I d   1       8.547  -1.213  13.815  0.00  0.00     0.034 H 
BRANCH  70  73
ATOM     73  C12 F2I d   1       9.360  -3.186  14.114  0.00  0.00    -0.075 C 
ATOM     74  H21 F2I d   1       9.905  -3.179  13.159  0.00  0.00     0.027 H 
ATOM     75  H22 F2I d   1       8.390  -3.686  13.979  0.00  0.00     0.027 H 
ATOM     76  H23 F2I d   1       9.950  -3.727  14.869  0.00  0.00     0.027 H 
ENDBRANCH  70  73
ENDBRANCH  67  70
ENDBRANCH  56  67
ENDBRANCH  47  54
BRANCH  50  77
ATOM     77  C7  F2I d   1      13.166  -0.356  21.573  0.00  0.00    -0.051 C 
ATOM     78  H3  F2I d   1      12.458   0.481  21.660  0.00  0.00     0.033 H 
ATOM     79  H4  F2I d   1      14.192   0.036  21.509  0.00  0.00     0.033 H 
ATOM     80  H5  F2I d   1      13.076  -1.005  22.457  0.00  0.00     0.033 H 
ENDBRANCH  50  77
ENDBRANCH   2  45
TORSDOF 18
