REMARK  14 active torsions:
REMARK  status: ('A' for Active; 'I' for Inactive)
REMARK    1  A    between atoms: C7_7  and  C2_2 
REMARK    2  A    between atoms: N1_8  and  C7_7 
REMARK    3  A    between atoms: C7_7  and  C17_23 
REMARK       I    between atoms: C8_9  and  N1_8 
REMARK    4  A    between atoms: C9_10  and  C8_9 
REMARK    5  A    between atoms: C29_37  and  C11_12 
REMARK    6  A    between atoms: C13_14  and  N2_16 
REMARK    7  A    between atoms: N2_16  and  S1_17 
REMARK    8  A    between atoms: N2_16  and  C16_19 
REMARK    9  A    between atoms: S1_17  and  C15_18 
REMARK   10  A    between atoms: C20_25  and  N3_26 
REMARK   11  A    between atoms: C20_25  and  C21_27 
REMARK   12  A    between atoms: C20_25  and  C22_28 
REMARK   13  A    between atoms: C30_39  and  C20_25 
REMARK   14  A    between atoms: C22_28  and  C26_32 
ROOT
ATOM      1  C9  I02 d   1      30.139  43.995   1.519  0.00  0.00     0.035 A 
ATOM      2  C10 I02 d   1      30.330  42.578   1.508  0.00  0.00    -0.053 A 
ATOM      3  C11 I02 d   1      29.309  41.696   1.044  0.00  0.00     0.022 A 
ATOM      4  C12 I02 d   1      28.070  42.211   0.589  0.00  0.00    -0.042 A 
ATOM      5  C13 I02 d   1      27.838  43.631   0.582  0.00  0.00     0.046 A 
ATOM      6  C14 I02 d   1      28.895  44.518   1.030  0.00  0.00    -0.041 A 
ATOM      7  H7  I02 d   1      31.269  42.166   1.859  0.00  0.00     0.086 H 
ATOM      8  H8  I02 d   1      27.296  41.534   0.246  0.00  0.00     0.088 H 
ATOM      9  H9  I02 d   1      28.743  45.591   0.995  0.00  0.00     0.088 H 
ENDROOT
BRANCH   3  10
ATOM     10  C29 I02 d   1      29.597  40.292   1.137  0.00  0.00     0.203 A 
ATOM     11  N4  I02 d   1      29.119  39.239   0.416  0.00  0.00    -0.121 NA
ATOM     12  N35 I02 d   1      29.665  38.162   0.841  0.00  0.00    -0.124 NA
ATOM     13  C30 I02 d   1      30.479  38.487   1.863  0.00  0.00     0.205 A 
ATOM     14  O4  I02 d   1      30.402  39.789   2.029  0.00  0.00    -0.270 OA
BRANCH  13  15
ATOM     15  C20 I02 d   1      31.446  37.765   2.743  0.00  0.00     0.192 C 
BRANCH  15  16
ATOM     16  N3  I02 d   1      31.404  38.506   4.015  0.00  0.00    -0.063 N 
ATOM     17  H19 I02 d   1      32.036  38.079   4.674  0.00  0.00     0.275 HD
ATOM     18  H20 I02 d   1      30.467  38.484   4.386  0.00  0.00     0.275 HD
ATOM     19  H21 I02 d   1      31.680  39.462   3.856  0.00  0.00     0.275 HD
ENDBRANCH  15  16
BRANCH  15  20
ATOM     20  C21 I02 d   1      30.960  36.327   2.970  0.00  0.00    -0.038 C 
ATOM     21  H22 I02 d   1      30.992  35.775   2.019  0.00  0.00     0.031 H 
ATOM     22  H23 I02 d   1      29.928  36.344   3.349  0.00  0.00     0.031 H 
ATOM     23  H24 I02 d   1      31.612  35.831   3.704  0.00  0.00     0.031 H 
ENDBRANCH  15  20
BRANCH  15  24
ATOM     24  C22 I02 d   1      32.842  37.765   2.102  0.00  0.00    -0.003 C 
ATOM     25  H25 I02 d   1      32.796  37.132   1.204  0.00  0.00     0.044 H 
ATOM     26  H26 I02 d   1      33.541  37.322   2.827  0.00  0.00     0.044 H 
BRANCH  24  27
ATOM     27  C26 I02 d   1      33.403  39.109   1.687  0.00  0.00    -0.055 A 
ATOM     28  C25 I02 d   1      33.103  39.601   0.335  0.00  0.00    -0.077 A 
ATOM     29  C24 I02 d   1      33.614  40.897  -0.057  0.00  0.00    -0.082 A 
ATOM     30  H29 I02 d   1      32.513  39.007  -0.353  0.00  0.00     0.084 H 
ATOM     31  C23 I02 d   1      34.406  41.655   0.899  0.00  0.00    -0.083 A 
ATOM     32  H28 I02 d   1      33.410  41.295  -1.044  0.00  0.00     0.083 H 
ATOM     33  C28 I02 d   1      34.713  41.172   2.239  0.00  0.00    -0.082 A 
ATOM     34  H27 I02 d   1      34.786  42.625   0.600  0.00  0.00     0.083 H 
ATOM     35  C27 I02 d   1      34.208  39.870   2.639  0.00  0.00    -0.077 A 
ATOM     36  H31 I02 d   1      35.305  41.771   2.922  0.00  0.00     0.083 H 
ATOM     37  H30 I02 d   1      34.424  39.471   3.624  0.00  0.00     0.084 H 
ENDBRANCH  24  27
ENDBRANCH  15  24
ENDBRANCH  13  15
ENDBRANCH   3  10
BRANCH   1  38
ATOM     38  C8  I02 d   1      31.164  44.915   2.036  0.00  0.00     0.252 C 
ATOM     39  N1  I02 d   1      31.857  44.458   3.117  0.00  0.00    -0.349 N 
ATOM     40  H6  I02 d   1      31.629  43.550   3.469  0.00  0.00     0.163 HD
ATOM     41  O1  I02 d   1      31.360  46.020   1.528  0.00  0.00    -0.268 OA
BRANCH  39  42
ATOM     42  C7  I02 d   1      32.907  45.206   3.792  0.00  0.00     0.034 C 
ATOM     43  H5  I02 d   1      33.119  46.113   3.207  0.00  0.00     0.079 H 
BRANCH  42  44
ATOM     44  C2  I02 d   1      32.496  45.621   5.150  0.00  0.00    -0.036 A 
ATOM     45  C1  I02 d   1      32.225  44.648   6.230  0.00  0.00    -0.072 A 
ATOM     46  C6  I02 d   1      31.846  45.180   7.505  0.00  0.00    -0.045 A 
ATOM     47  H1  I02 d   1      32.309  43.580   6.064  0.00  0.00     0.084 H 
ATOM     48  C5  I02 d   1      31.767  46.624   7.634  0.00  0.00     0.116 A 
ATOM     49  H4  I02 d   1      31.626  44.528   8.343  0.00  0.00     0.088 H 
ATOM     50  C4  I02 d   1      32.010  47.583   6.581  0.00  0.00    -0.045 A 
ATOM     51  F1  I02 d   1      31.454  47.126   8.835  0.00  0.00    -0.206 F 
ATOM     52  C3  I02 d   1      32.375  47.064   5.295  0.00  0.00    -0.072 A 
ATOM     53  H3  I02 d   1      31.920  48.649   6.756  0.00  0.00     0.088 H 
ATOM     54  H2  I02 d   1      32.555  47.727   4.456  0.00  0.00     0.084 H 
ENDBRANCH  42  44
BRANCH  42  55
ATOM     55  C17 I02 d   1      34.193  44.340   3.848  0.00  0.00    -0.053 C 
ATOM     56  H16 I02 d   1      34.991  44.901   4.357  0.00  0.00     0.030 H 
ATOM     57  H17 I02 d   1      34.514  44.093   2.825  0.00  0.00     0.030 H 
ATOM     58  H18 I02 d   1      33.986  43.412   4.401  0.00  0.00     0.030 H 
ENDBRANCH  42  55
ENDBRANCH  39  42
ENDBRANCH   1  38
BRANCH   5  59
ATOM     59  N2  I02 d   1      26.578  44.058   0.213  0.00  0.00    -0.281 N 
BRANCH  59  60
ATOM     60  S1  I02 d   1      25.794  45.194   1.046  0.00  0.00     0.228 S 
ATOM     61  O2  I02 d   1      26.334  45.218   2.367  0.00  0.00    -0.206 OA
ATOM     62  O3  I02 d   1      24.401  44.889   0.877  0.00  0.00    -0.206 OA
BRANCH  60  63
ATOM     63  C15 I02 d   1      26.149  46.801   0.319  0.00  0.00     0.033 C 
ATOM     64  H10 I02 d   1      25.618  47.583   0.881  0.00  0.00     0.051 H 
ATOM     65  H11 I02 d   1      25.814  46.811  -0.729  0.00  0.00     0.051 H 
ATOM     66  H12 I02 d   1      27.232  46.991   0.360  0.00  0.00     0.051 H 
ENDBRANCH  60  63
ENDBRANCH  59  60
BRANCH  59  67
ATOM     67  C16 I02 d   1      25.956  43.594  -1.043  0.00  0.00    -0.004 C 
ATOM     68  H13 I02 d   1      26.592  42.825  -1.505  0.00  0.00     0.058 H 
ATOM     69  H14 I02 d   1      25.847  44.443  -1.734  0.00  0.00     0.058 H 
ATOM     70  H15 I02 d   1      24.965  43.169  -0.826  0.00  0.00     0.058 H 
ENDBRANCH  59  67
ENDBRANCH   5  59
TORSDOF 14
