REMARK  17 active torsions:
REMARK  status: ('A' for Active; 'I' for Inactive)
REMARK    1  A    between atoms: C7_7  and  C2_2 
REMARK    2  A    between atoms: N1_8  and  C7_7 
REMARK    3  A    between atoms: C7_7  and  C17_23 
REMARK       I    between atoms: C8_9  and  N1_8 
REMARK    4  A    between atoms: C9_10  and  C8_9 
REMARK    5  A    between atoms: C18_25  and  C11_12 
REMARK    6  A    between atoms: C13_14  and  N2_16 
REMARK    7  A    between atoms: N2_16  and  S1_17 
REMARK    8  A    between atoms: N2_16  and  C16_19 
REMARK    9  A    between atoms: S1_17  and  C15_18 
REMARK   10  A    between atoms: O4_26  and  C18_25 
REMARK   11  A    between atoms: C19_28  and  O4_26 
REMARK   12  A    between atoms: C20_29  and  C19_28 
REMARK   13  A    between atoms: C20_29  and  N3_30 
REMARK   14  A    between atoms: C20_29  and  C21_31 
REMARK   15  A    between atoms: C22_32  and  C20_29 
REMARK   16  A    between atoms: C21_31  and  O6_39 
REMARK   17  A    between atoms: C26_36  and  C22_32 
ROOT
ATOM      1  C9  I03 d   1      30.294  43.725   1.546  0.00  0.00     0.035 A 
ATOM      2  C10 I03 d   1      30.461  42.283   1.407  0.00  0.00    -0.052 A 
ATOM      3  C11 I03 d   1      29.361  41.475   0.907  0.00  0.00     0.042 A 
ATOM      4  C12 I03 d   1      28.130  42.085   0.579  0.00  0.00    -0.041 A 
ATOM      5  C13 I03 d   1      27.938  43.490   0.676  0.00  0.00     0.046 A 
ATOM      6  C14 I03 d   1      29.037  44.295   1.157  0.00  0.00    -0.041 A 
ATOM      7  H7  I03 d   1      31.401  41.816   1.675  0.00  0.00     0.086 H 
ATOM      8  H8  I03 d   1      27.308  41.464   0.243  0.00  0.00     0.088 H 
ATOM      9  H9  I03 d   1      28.907  45.369   1.226  0.00  0.00     0.088 H 
ENDROOT
BRANCH   3  10
ATOM     10  C18 I03 d   1      29.423  40.040   0.640  0.00  0.00     0.293 C 
ATOM     11  O5  I03 d   1      28.781  39.484  -0.196  0.00  0.00    -0.259 OA
BRANCH  10  12
ATOM     12  O4  I03 d   1      30.283  39.423   1.472  0.00  0.00    -0.315 OA
BRANCH  12  13
ATOM     13  C19 I03 d   1      30.424  37.946   1.535  0.00  0.00     0.062 C 
ATOM     14  H19 I03 d   1      30.666  37.549   0.538  0.00  0.00     0.079 H 
ATOM     15  H20 I03 d   1      29.486  37.495   1.892  0.00  0.00     0.079 H 
BRANCH  13  16
ATOM     16  C20 I03 d   1      31.539  37.637   2.494  0.00  0.00     0.170 C 
BRANCH  16  17
ATOM     17  N3  I03 d   1      31.397  38.494   3.673  0.00  0.00    -0.066 N 
ATOM     18  H21 I03 d   1      32.140  38.295   4.324  0.00  0.00     0.275 HD
ATOM     19  H22 I03 d   1      30.508  38.315   4.113  0.00  0.00     0.275 HD
ATOM     20  H23 I03 d   1      31.445  39.461   3.393  0.00  0.00     0.275 HD
ENDBRANCH  16  17
BRANCH  16  21
ATOM     21  C21 I03 d   1      31.234  36.215   2.892  0.00  0.00     0.050 C 
ATOM     22  H24 I03 d   1      31.371  35.553   2.025  0.00  0.00     0.077 H 
ATOM     23  H25 I03 d   1      30.194  36.147   3.245  0.00  0.00     0.077 H 
BRANCH  21  24
ATOM     24  O6  I03 d   1      32.039  35.857   3.843  0.00  0.00    -0.398 OA
ATOM     25  H33 I03 d   1      31.919  36.431   4.590  0.00  0.00     0.209 HD
ENDBRANCH  21  24
ENDBRANCH  16  21
BRANCH  16  26
ATOM     26  C22 I03 d   1      32.949  37.826   1.900  0.00  0.00    -0.006 C 
ATOM     27  H26 I03 d   1      32.994  37.220   0.983  0.00  0.00     0.044 H 
ATOM     28  H27 I03 d   1      33.663  37.429   2.637  0.00  0.00     0.044 H 
BRANCH  26  29
ATOM     29  C26 I03 d   1      33.420  39.213   1.534  0.00  0.00    -0.056 A 
ATOM     30  C25 I03 d   1      33.092  39.749   0.210  0.00  0.00    -0.077 A 
ATOM     31  C24 I03 d   1      33.673  41.013  -0.191  0.00  0.00    -0.082 A 
ATOM     32  H30 I03 d   1      32.428  39.210  -0.456  0.00  0.00     0.084 H 
ATOM     33  C23 I03 d   1      34.549  41.714   0.739  0.00  0.00    -0.083 A 
ATOM     34  H29 I03 d   1      33.460  41.431  -1.168  0.00  0.00     0.083 H 
ATOM     35  C28 I03 d   1      34.836  41.210   2.078  0.00  0.00    -0.082 A 
ATOM     36  H28 I03 d   1      35.005  42.646   0.424  0.00  0.00     0.083 H 
ATOM     37  C27 I03 d   1      34.250  39.941   2.486  0.00  0.00    -0.077 A 
ATOM     38  H32 I03 d   1      35.472  41.769   2.755  0.00  0.00     0.083 H 
ATOM     39  H31 I03 d   1      34.428  39.545   3.479  0.00  0.00     0.084 H 
ENDBRANCH  26  29
ENDBRANCH  16  26
ENDBRANCH  13  16
ENDBRANCH  12  13
ENDBRANCH  10  12
ENDBRANCH   3  10
BRANCH   1  40
ATOM     40  C8  I03 d   1      31.298  44.676   2.110  0.00  0.00     0.252 C 
ATOM     41  N1  I03 d   1      32.034  44.236   3.180  0.00  0.00    -0.349 N 
ATOM     42  H6  I03 d   1      31.870  43.305   3.507  0.00  0.00     0.163 HD
ATOM     43  O1  I03 d   1      31.464  45.805   1.656  0.00  0.00    -0.268 OA
BRANCH  41  44
ATOM     44  C7  I03 d   1      33.042  45.036   3.875  0.00  0.00     0.034 C 
ATOM     45  H5  I03 d   1      33.304  45.887   3.229  0.00  0.00     0.079 H 
BRANCH  44  46
ATOM     46  C2  I03 d   1      32.568  45.598   5.187  0.00  0.00    -0.036 A 
ATOM     47  C1  I03 d   1      32.212  44.697   6.288  0.00  0.00    -0.072 A 
ATOM     48  C6  I03 d   1      31.892  45.272   7.548  0.00  0.00    -0.045 A 
ATOM     49  H1  I03 d   1      32.193  43.623   6.145  0.00  0.00     0.084 H 
ATOM     50  C5  I03 d   1      31.844  46.716   7.625  0.00  0.00     0.116 A 
ATOM     51  H4  I03 d   1      31.692  44.654   8.416  0.00  0.00     0.088 H 
ATOM     52  C4  I03 d   1      32.102  47.622   6.534  0.00  0.00    -0.045 A 
ATOM     53  F1  I03 d   1      31.554  47.230   8.820  0.00  0.00    -0.206 F 
ATOM     54  C3  I03 d   1      32.513  47.044   5.278  0.00  0.00    -0.072 A 
ATOM     55  H3  I03 d   1      31.992  48.694   6.653  0.00  0.00     0.088 H 
ATOM     56  H2  I03 d   1      32.772  47.669   4.431  0.00  0.00     0.084 H 
ENDBRANCH  44  46
BRANCH  44  57
ATOM     57  C17 I03 d   1      34.315  44.150   4.069  0.00  0.00    -0.053 C 
ATOM     58  H16 I03 d   1      35.090  44.731   4.591  0.00  0.00     0.030 H 
ATOM     59  H17 I03 d   1      34.694  43.833   3.086  0.00  0.00     0.030 H 
ATOM     60  H18 I03 d   1      34.057  43.263   4.666  0.00  0.00     0.030 H 
ENDBRANCH  44  57
ENDBRANCH  41  44
ENDBRANCH   1  40
BRANCH   5  61
ATOM     61  N2  I03 d   1      26.702  43.986   0.295  0.00  0.00    -0.281 N 
BRANCH  61  62
ATOM     62  S1  I03 d   1      25.919  45.156   1.106  0.00  0.00     0.228 S 
ATOM     63  O2  I03 d   1      26.493  45.217   2.410  0.00  0.00    -0.206 OA
ATOM     64  O3  I03 d   1      24.535  44.825   0.944  0.00  0.00    -0.206 OA
BRANCH  62  65
ATOM     65  C15 I03 d   1      26.201  46.716   0.285  0.00  0.00     0.033 C 
ATOM     66  H10 I03 d   1      25.675  47.516   0.827  0.00  0.00     0.051 H 
ATOM     67  H11 I03 d   1      25.823  46.661  -0.746  0.00  0.00     0.051 H 
ATOM     68  H12 I03 d   1      27.279  46.932   0.269  0.00  0.00     0.051 H 
ENDBRANCH  62  65
ENDBRANCH  61  62
BRANCH  61  69
ATOM     69  C16 I03 d   1      26.066  43.616  -0.982  0.00  0.00    -0.004 C 
ATOM     70  H13 I03 d   1      26.653  42.822  -1.468  0.00  0.00     0.058 H 
ATOM     71  H14 I03 d   1      26.025  44.496  -1.640  0.00  0.00     0.058 H 
ATOM     72  H15 I03 d   1      25.045  43.253  -0.792  0.00  0.00     0.058 H 
ENDBRANCH  61  69
ENDBRANCH   5  61
TORSDOF 17
