REMARK  6 active torsions:
REMARK  status: ('A' for Active; 'I' for Inactive)
REMARK    1  A    between atoms: C6_5  and  N6_7 
REMARK    2  A    between atoms: C9_9  and  C10_11 
REMARK    3  A    between atoms: C10_11  and  N1'_12 
REMARK    4  A    between atoms: C4'_14  and  C5'_15 
REMARK    5  A    between atoms: C5'_15  and  O5'_16 
REMARK    6  A    between atoms: C3'_17  and  O3'_18 
ROOT
ATOM      1  N1' NON d   1      -1.305 -11.778 -16.780  0.00  0.00    -0.064 N 
ATOM      2  C6' NON d   1       0.137 -11.641 -17.077  0.00  0.00     0.091 C 
ATOM      3  C4' NON d   1       0.186 -11.492 -18.600  0.00  0.00     0.016 C 
ATOM      4  C3' NON d   1      -1.231 -11.654 -19.096  0.00  0.00     0.066 C 
ATOM      5  C2' NON d   1      -2.064 -11.206 -17.904  0.00  0.00     0.108 C 
ATOM      6  H8  NON d   1      -1.494 -12.768 -16.767  0.00  0.00     0.280 HD
ATOM      7  H9  NON d   1       0.690 -12.535 -16.753  0.00  0.00     0.076 H 
ATOM      8  H10 NON d   1       0.556 -10.752 -16.583  0.00  0.00     0.076 H 
ATOM      9  H11 NON d   1       0.839 -12.262 -19.038  0.00  0.00     0.049 H 
ATOM     10  H15 NON d   1      -1.426 -11.033 -19.983  0.00  0.00     0.086 H 
ATOM     11  H17 NON d   1      -2.113 -10.109 -17.838  0.00  0.00     0.080 H 
ATOM     12  H18 NON d   1      -3.083 -11.617 -17.950  0.00  0.00     0.080 H 
ENDROOT
BRANCH   1  13
ATOM     13  C10 NON d   1      -1.778 -11.276 -15.484  0.00  0.00     0.111 C 
ATOM     14  H6  NON d   1      -2.871 -11.173 -15.553  0.00  0.00     0.083 H 
ATOM     15  H7  NON d   1      -1.528 -12.036 -14.729  0.00  0.00     0.083 H 
BRANCH  13  16
ATOM     16  C9  NON d   1      -1.240  -9.970 -14.993  0.00  0.00     0.014 A 
ATOM     17  C4  NON d   1      -1.562  -8.699 -15.434  0.00  0.00     0.098 A 
ATOM     18  C5  NON d   1      -0.848  -7.782 -14.684  0.00  0.00     0.107 A 
ATOM     19  N3  NON d   1      -2.417  -8.361 -16.429  0.00  0.00    -0.239 NA
ATOM     20  C6  NON d   1      -1.041  -6.341 -14.983  0.00  0.00     0.151 A 
ATOM     21  N7  NON d   1      -0.095  -8.476 -13.786  0.00  0.00    -0.360 N 
ATOM     22  N1  NON d   1      -1.889  -5.993 -15.981  0.00  0.00    -0.223 NA
ATOM     23  C2  NON d   1      -2.644  -6.954 -16.786  0.00  0.00     0.089 A 
ATOM     24  H1  NON d   1      -3.316  -6.652 -17.581  0.00  0.00     0.146 H 
ATOM     25  C8  NON d   1      -0.329  -9.808 -13.951  0.00  0.00    -0.012 A 
ATOM     26  H5  NON d   1       0.547  -8.062 -13.095  0.00  0.00     0.165 HD
ATOM     27  H2  NON d   1       0.120 -10.610 -13.367  0.00  0.00     0.112 H 
BRANCH  20  28
ATOM     28  N6  NON d   1      -0.406  -5.480 -14.317  0.00  0.00    -0.382 N 
ATOM     29  H3  NON d   1       0.231  -5.778 -13.565  0.00  0.00     0.157 HD
ATOM     30  H4  NON d   1      -0.524  -4.478 -14.525  0.00  0.00     0.157 HD
ENDBRANCH  20  28
ENDBRANCH  13  16
ENDBRANCH   1  13
BRANCH   3  31
ATOM     31  C5' NON d   1       0.690 -10.115 -18.980  0.00  0.00     0.024 C 
ATOM     32  H12 NON d   1      -0.103  -9.368 -18.831  0.00  0.00     0.074 H 
ATOM     33  H13 NON d   1       1.009 -10.106 -20.033  0.00  0.00     0.074 H 
BRANCH  31  34
ATOM     34  O5' NON d   1       1.796  -9.830 -18.132  0.00  0.00    -0.400 OA
ATOM     35  H14 NON d   1       2.141  -8.970 -18.341  0.00  0.00     0.209 HD
ENDBRANCH  31  34
ENDBRANCH   3  31
BRANCH   4  36
ATOM     36  O3' NON d   1      -1.485 -13.035 -19.390  0.00  0.00    -0.393 OA
ATOM     37  H16 NON d   1      -2.377 -13.132 -19.702  0.00  0.00     0.210 HD
ENDBRANCH   4  36
TORSDOF 6
