REMARK  4 active torsions:
REMARK  status: ('A' for Active; 'I' for Inactive)
REMARK    1  A    between atoms: C1_1  and  C2_2 
REMARK       I    between atoms: C1_1  and  N2_3 
REMARK    2  A    between atoms: C2_2  and  O1P_6 
REMARK    3  A    between atoms: N2_3  and  O2_4 
REMARK    4  A    between atoms: O1P_6  and  P_10 
ROOT
ATOM      1  C2  PGH d   1     -41.604 -11.083 -23.113  0.00  0.00     0.107 C 
ATOM      2  H1  PGH d   1     -41.465 -12.165 -22.972  0.00  0.00     0.090 H 
ATOM      3  H2  PGH d   1     -41.486 -10.834 -24.178  0.00  0.00     0.090 H 
ENDROOT
BRANCH   1   4
ATOM      4  C1  PGH d   1     -40.544 -10.178 -22.132  0.00  0.00     0.265 C 
ATOM      5  N2  PGH d   1     -40.064 -11.078 -21.276  0.00  0.00    -0.236 N 
ATOM      6  H3  PGH d   1     -40.322 -12.044 -21.278  0.00  0.00     0.197 HD
ATOM      7  O1  PGH d   1     -40.355  -8.974 -22.291  0.00  0.00    -0.269 OA
BRANCH   5   8
ATOM      8  O2  PGH d   1     -39.120 -10.491 -20.337  0.00  0.00    -0.287 OA
ATOM      9  H4  PGH d   1     -38.803 -11.164 -19.746  0.00  0.00     0.244 HD
ENDBRANCH   5   8
ENDBRANCH   1   4
BRANCH   1  10
ATOM     10  O1P PGH d   1     -42.937 -10.616 -22.574  0.00  0.00    -0.273 OA
BRANCH  10  11
ATOM     11  P   PGH d   1     -44.248 -11.227 -23.160  0.00  0.00     0.422 P 
ATOM     12  O2P PGH d   1     -45.243 -10.939 -22.137  0.00  0.00    -0.617 OA
ATOM     13  O3P PGH d   1     -44.053 -12.696 -23.275  0.00  0.00    -0.617 OA
ATOM     14  O4P PGH d   1     -44.495 -10.620 -24.527  0.00  0.00    -0.617 OA
ENDBRANCH  10  11
ENDBRANCH   1  10
TORSDOF 4
