REMARK  1 active torsions:
REMARK  status: ('A' for Active; 'I' for Inactive)
REMARK    1  A    between atoms: C1_1  and  P1_7 
ROOT
ATOM      1  O1  PPF d   1      13.754  38.055  19.818  0.00  0.00    -0.632 OA
ATOM      2  O2  PPF d   1      13.971  37.193  17.429  0.00  0.00    -0.632 OA
ATOM      3  O3  PPF d   1      15.791  36.846  19.102  0.00  0.00    -0.632 OA
ATOM      4  P1  PPF d   1      14.317  37.000  18.897  0.00  0.00     0.364 P 
ENDROOT
BRANCH   4   5
ATOM      5  C1  PPF d   1      13.463  35.581  19.433  0.00  0.00     0.307 C 
ATOM      6  O4  PPF d   1      13.859  34.409  19.235  0.00  0.00    -0.637 OA
ATOM      7  O5  PPF d   1      12.385  35.739  20.031  0.00  0.00    -0.637 OA
ENDBRANCH   4   5
TORSDOF 1
