REMARK  19 active torsions:
REMARK  status: ('A' for Active; 'I' for Inactive)
REMARK    1  A    between atoms: CA_2  and  N_1 
REMARK    2  A    between atoms: C_3  and  CA_2 
REMARK    3  A    between atoms: CA_2  and  CB_5 
REMARK    4  A    between atoms: CA_7  and  N_6 
REMARK    5  A    between atoms: CA_7  and  CB_8 
REMARK    6  A    between atoms: C_15  and  CA_7 
REMARK    7  A    between atoms: CB_8  and  CG2_9 
REMARK    8  A    between atoms: CB_8  and  OG1_10 
REMARK    9  A    between atoms: OG1_10  and  P_11 
REMARK   10  A    between atoms: C_23  and  C6_22 
REMARK   11  A    between atoms: C9_35  and  C2_26 
REMARK   12  A    between atoms: C10_36  and  C9_35 
REMARK   13  A    between atoms: C10_36  and  C11_37 
REMARK   14  A    between atoms: C10_36  and  N_38 
REMARK   15  A    between atoms: N_40  and  CA_41 
REMARK   16  A    between atoms: CA_41  and  C_42 
REMARK   17  A    between atoms: CA_41  and  CB_44 
REMARK   18  A    between atoms: CB_44  and  CG_45 
REMARK   19  A    between atoms: CG_45  and  CD_46 
ROOT
ATOM      1  C   YCP d   1      37.691  26.762  26.528  0.00  0.00     0.175 C 
ATOM      2  O1  YCP d   1      38.856  26.417  27.070  0.00  0.00    -0.175 OA
ATOM      3  N   NAL d   1      37.817  27.857  25.721  0.00  0.00    -0.358 N 
ATOM      4  H33 NAL d   1      36.977  28.125  25.248  0.00  0.00     0.162 HD
ENDROOT
BRANCH   1   5
ATOM      5  C6  YCP d   1      36.267  26.192  26.485  0.00  0.00     0.078 C 
ATOM      6  N1  YCP d   1      35.312  26.491  25.398  0.00  0.00    -0.349 N 
ATOM      7  C   D11 d   1      34.451  27.459  25.528  0.00  0.00     0.179 C 
ATOM      8  C2  YCP d   1      35.589  25.634  24.201  0.00  0.00    -0.002 C 
ATOM      9  O   D11 d   1      34.461  28.313  26.605  0.00  0.00    -0.175 OA
ATOM     10  C3  YCP d   1      35.702  24.164  24.195  0.00  0.00    -0.050 C 
ATOM     11  H14 YCP d   1      36.547  25.998  23.801  0.00  0.00     0.064 H 
ATOM     12  H15 YCP d   1      34.783  25.864  23.489  0.00  0.00     0.064 H 
ATOM     13  C4  YCP d   1      36.699  24.009  25.386  0.00  0.00    -0.061 C 
ATOM     14  H16 YCP d   1      36.120  23.784  23.251  0.00  0.00     0.035 H 
ATOM     15  H17 YCP d   1      34.738  23.673  24.394  0.00  0.00     0.035 H 
ATOM     16  C5  YCP d   1      36.609  24.693  26.788  0.00  0.00    -0.039 C 
ATOM     17  H18 YCP d   1      37.673  24.321  24.982  0.00  0.00     0.033 H 
ATOM     18  H19 YCP d   1      36.719  22.930  25.599  0.00  0.00     0.033 H 
ATOM     19  H20 YCP d   1      37.569  24.615  27.319  0.00  0.00     0.036 H 
ATOM     20  H21 YCP d   1      35.816  24.230  27.394  0.00  0.00     0.036 H 
ATOM     21  H22 YCP d   1      35.751  26.591  27.371  0.00  0.00     0.086 H 
BRANCH   7  22
ATOM     22  CA  D11 d   1      33.344  27.922  24.577  0.00  0.00     0.101 C 
ATOM     23  H9  D11 d   1      33.424  27.302  23.672  0.00  0.00     0.089 H 
BRANCH  22  24
ATOM     24  N   D11 d   1      33.670  29.294  24.115  0.00  0.00    -0.356 N 
ATOM     25  C   PHE d   1      34.772  29.846  23.653  0.00  0.00     0.182 C 
ATOM     26  O   PHE d   1      35.928  29.149  23.502  0.00  0.00    -0.175 OA
ATOM     27  H8  D11 d   1      32.897  29.926  24.165  0.00  0.00     0.162 HD
BRANCH  25  28
ATOM     28  CA  PHE d   1      34.574  31.345  23.313  0.00  0.00     0.160 C 
ATOM     29  H4  PHE d   1      33.519  31.619  23.463  0.00  0.00     0.096 H 
BRANCH  28  30
ATOM     30  N   PHE d   1      35.407  32.060  24.283  0.00  0.00    -0.068 N 
ATOM     31  H1  PHE d   1      35.331  33.053  24.125  0.00  0.00     0.275 HD
ATOM     32  H2  PHE d   1      36.368  31.776  24.175  0.00  0.00     0.275 HD
ATOM     33  H3  PHE d   1      35.096  31.844  25.217  0.00  0.00     0.275 HD
ENDBRANCH  28  30
BRANCH  28  34
ATOM     34  CB  PHE d   1      34.944  31.671  21.863  0.00  0.00    -0.043 C 
ATOM     35  H5  PHE d   1      34.289  31.108  21.182  0.00  0.00     0.030 H 
ATOM     36  H6  PHE d   1      35.992  31.390  21.680  0.00  0.00     0.030 H 
ATOM     37  H7  PHE d   1      34.818  32.749  21.686  0.00  0.00     0.030 H 
ENDBRANCH  28  34
ENDBRANCH  25  28
ENDBRANCH  22  24
BRANCH  22  38
ATOM     38  CB  D11 d   1      32.010  27.579  25.132  0.00  0.00     0.075 C 
ATOM     39  H10 D11 d   1      31.882  28.152  26.062  0.00  0.00     0.087 H 
BRANCH  38  40
ATOM     40  CG2 D11 d   1      31.705  26.108  25.417  0.00  0.00    -0.049 C 
ATOM     41  H11 D11 d   1      30.686  26.017  25.822  0.00  0.00     0.031 H 
ATOM     42  H12 D11 d   1      32.427  25.719  26.150  0.00  0.00     0.031 H 
ATOM     43  H13 D11 d   1      31.782  25.530  24.484  0.00  0.00     0.031 H 
ENDBRANCH  38  40
BRANCH  38  44
ATOM     44  OG1 D11 d   1      31.026  27.922  24.205  0.00  0.00    -0.275 OA
BRANCH  44  45
ATOM     45  P   D11 d   1      30.065  29.195  24.240  0.00  0.00     0.422 P 
ATOM     46  O1P D11 d   1      30.947  30.557  24.017  0.00  0.00    -0.617 OA
ATOM     47  O2P D11 d   1      29.357  29.303  25.696  0.00  0.00    -0.617 OA
ATOM     48  O3P D11 d   1      29.156  28.835  22.945  0.00  0.00    -0.617 OA
ENDBRANCH  44  45
ENDBRANCH  38  44
ENDBRANCH  22  38
ENDBRANCH   7  22
ENDBRANCH   1   5
BRANCH   3  49
ATOM     49  C10 NAL d   1      39.037  28.749  25.417  0.00  0.00     0.079 C 
ATOM     50  H32 NAL d   1      39.882  28.051  25.321  0.00  0.00     0.086 H 
BRANCH  49  51
ATOM     51  C9  NAL d   1      39.099  29.637  24.117  0.00  0.00    -0.015 C 
ATOM     52  H30 NAL d   1      38.111  30.077  23.918  0.00  0.00     0.043 H 
ATOM     53  H31 NAL d   1      39.839  30.440  24.249  0.00  0.00     0.043 H 
BRANCH  51  54
ATOM     54  C2  NAL d   1      39.512  28.736  22.947  0.00  0.00    -0.055 A 
ATOM     55  C1  NAL d   1      40.838  28.486  22.485  0.00  0.00    -0.066 A 
ATOM     56  C8A NAL d   1      41.111  27.613  21.374  0.00  0.00    -0.025 A 
ATOM     57  H23 NAL d   1      41.668  28.970  22.988  0.00  0.00     0.085 H 
ATOM     58  C4A NAL d   1      39.985  26.941  20.710  0.00  0.00    -0.026 A 
ATOM     59  C8  NAL d   1      42.483  27.414  20.956  0.00  0.00    -0.072 A 
ATOM     60  C4  NAL d   1      38.645  27.166  21.158  0.00  0.00    -0.072 A 
ATOM     61  C5  NAL d   1      40.308  26.077  19.612  0.00  0.00    -0.072 A 
ATOM     62  C3  NAL d   1      38.444  28.060  22.265  0.00  0.00    -0.076 A 
ATOM     63  H25 NAL d   1      37.806  26.677  20.677  0.00  0.00     0.084 H 
ATOM     64  H24 NAL d   1      37.429  28.234  22.604  0.00  0.00     0.084 H 
ATOM     65  C6  NAL d   1      41.647  25.860  19.177  0.00  0.00    -0.082 A 
ATOM     66  H26 NAL d   1      39.503  25.570  19.093  0.00  0.00     0.084 H 
ATOM     67  C7  NAL d   1      42.712  26.529  19.849  0.00  0.00    -0.082 A 
ATOM     68  H27 NAL d   1      41.854  25.195  18.346  0.00  0.00     0.083 H 
ATOM     69  H28 NAL d   1      43.729  26.364  19.512  0.00  0.00     0.083 H 
ATOM     70  H29 NAL d   1      43.304  27.913  21.459  0.00  0.00     0.084 H 
ENDBRANCH  51  54
ENDBRANCH  49  51
BRANCH  49  71
ATOM     71  C11 NAL d   1      39.308  29.631  26.639  0.00  0.00     0.175 C 
ATOM     72  O2  NAL d   1      38.129  30.095  27.173  0.00  0.00    -0.175 OA
ATOM     73  N   GLN d   1      40.467  29.850  27.268  0.00  0.00    -0.358 N 
ATOM     74  H34 GLN d   1      41.264  29.442  26.823  0.00  0.00     0.162 HD
BRANCH  73  75
ATOM     75  CA  GLN d   1      40.772  30.593  28.511  0.00  0.00     0.076 C 
ATOM     76  H35 GLN d   1      40.281  30.041  29.326  0.00  0.00     0.085 H 
BRANCH  75  77
ATOM     77  C   GLN d   1      40.263  32.051  28.590  0.00  0.00     0.172 C 
ATOM     78  O   GLN d   1      39.633  32.417  29.747  0.00  0.00    -0.175 OA
ATOM     79  N   NH2 d   1      40.483  32.798  27.486  0.00  0.00    -0.379 N 
ATOM     80  H42 NH2 d   1      40.183  33.752  27.459  0.00  0.00     0.158 HD
ATOM     81  H43 NH2 d   1      40.946  32.397  26.695  0.00  0.00     0.158 HD
ENDBRANCH  75  77
BRANCH  75  82
ATOM     82  CB  GLN d   1      42.296  30.601  28.791  0.00  0.00    -0.032 C 
ATOM     83  H36 GLN d   1      42.662  31.479  28.238  0.00  0.00     0.037 H 
ATOM     84  H37 GLN d   1      42.659  29.684  28.304  0.00  0.00     0.037 H 
BRANCH  82  85
ATOM     85  CG  GLN d   1      43.081  30.649  30.131  0.00  0.00    -0.001 C 
ATOM     86  H38 GLN d   1      42.896  29.707  30.667  0.00  0.00     0.045 H 
ATOM     87  H39 GLN d   1      42.691  31.490  30.723  0.00  0.00     0.045 H 
BRANCH  85  88
ATOM     88  CD  GLN d   1      44.617  30.829  29.995  0.00  0.00     0.149 C 
ATOM     89  OE1 GLN d   1      45.474  29.941  30.539  0.00  0.00    -0.178 OA
ATOM     90  NE2 GLN d   1      45.078  31.909  29.313  0.00  0.00    -0.381 N 
ATOM     91  H40 GLN d   1      46.062  32.052  29.209  0.00  0.00     0.158 HD
ATOM     92  H41 GLN d   1      44.433  32.562  28.915  0.00  0.00     0.158 HD
ENDBRANCH  85  88
ENDBRANCH  82  85
ENDBRANCH  75  82
ENDBRANCH  73  75
ENDBRANCH  49  71
ENDBRANCH   3  49
TORSDOF 19
