REMARK  9 active torsions:
REMARK  status: ('A' for Active; 'I' for Inactive)
REMARK    1  A    between atoms: NBF_3  and  CAN_4 
REMARK    2  A    between atoms: CAN_4  and  CAA_5 
REMARK    3  A    between atoms: NBG_8  and  CAS_9 
REMARK    4  A    between atoms: CAS_9  and  CAX_10 
REMARK    5  A    between atoms: CAY_15  and  CBA_16 
REMARK    6  A    between atoms: C6_24  and  NAV_25 
REMARK    7  A    between atoms: NAV_25  and  CBE_26 
REMARK    8  A    between atoms: CBE_26  and  CAB_27 
REMARK    9  A    between atoms: CBE_26  and  CAZ_28 
ROOT
ATOM      1  CAX AEE d   1     -49.908  -0.117 -15.888  0.00  0.00    -0.033 A 
ATOM      2  CAI AEE d   1     -50.913   0.855 -15.906  0.00  0.00    -0.074 A 
ATOM      3  CAK AEE d   1     -51.593   1.120 -17.098  0.00  0.00    -0.070 A 
ATOM      4  CAJ AEE d   1     -49.591  -0.837 -17.035  0.00  0.00    -0.074 A 
ATOM      5  CAL AEE d   1     -50.270  -0.571 -18.218  0.00  0.00    -0.070 A 
ATOM      6  CAY AEE d   1     -51.260   0.410 -18.261  0.00  0.00    -0.009 A 
ATOM      7  H18 AEE d   1     -51.163   1.399 -15.002  0.00  0.00     0.084 H 
ATOM      8  H19 AEE d   1     -52.374   1.871 -17.124  0.00  0.00     0.084 H 
ATOM      9  H20 AEE d   1     -48.821  -1.599 -17.006  0.00  0.00     0.084 H 
ATOM     10  H21 AEE d   1     -50.028  -1.131 -19.114  0.00  0.00     0.084 H 
ENDROOT
BRANCH   6  11
ATOM     11  CBA AEE d   1     -51.942   0.639 -19.457  0.00  0.00     0.045 A 
ATOM     12  NAW AEE d   1     -53.090   1.323 -19.573  0.00  0.00    -0.339 N 
ATOM     13  C4  AEE d   1     -53.447   1.314 -20.853  0.00  0.00     0.143 A 
ATOM     14  H22 AEE d   1     -53.605   1.776 -18.804  0.00  0.00     0.167 HD
ATOM     15  C5  AEE d   1     -52.494   0.578 -21.540  0.00  0.00     0.058 A 
ATOM     16  N3  AEE d   1     -54.494   1.837 -21.527  0.00  0.00    -0.223 NA
ATOM     17  CAM AEE d   1     -51.590   0.170 -20.656  0.00  0.00    -0.039 A 
ATOM     18  C6  AEE d   1     -52.652   0.406 -22.916  0.00  0.00     0.139 A 
ATOM     19  H23 AEE d   1     -50.715  -0.441 -20.872  0.00  0.00     0.088 H 
ATOM     20  N1  AEE d   1     -53.735   0.956 -23.530  0.00  0.00    -0.224 NA
ATOM     21  C2  AEE d   1     -54.633   1.653 -22.845  0.00  0.00     0.091 A 
ATOM     22  H24 AEE d   1     -55.488   2.078 -23.359  0.00  0.00     0.146 H 
BRANCH  18  23
ATOM     23  NAV AEE d   1     -51.750  -0.302 -23.612  0.00  0.00    -0.366 N 
ATOM     24  H25 AEE d   1     -50.804  -0.451 -23.234  0.00  0.00     0.161 HD
BRANCH  23  25
ATOM     25  CBE AEE d   1     -52.121  -0.863 -24.916  0.00  0.00     0.033 C 
ATOM     26  H26 AEE d   1     -53.164  -1.207 -24.864  0.00  0.00     0.079 H 
BRANCH  25  27
ATOM     27  CAB AEE d   1     -51.250  -2.069 -25.301  0.00  0.00    -0.053 C 
ATOM     28  H27 AEE d   1     -51.567  -2.451 -26.282  0.00  0.00     0.030 H 
ATOM     29  H28 AEE d   1     -51.364  -2.860 -24.545  0.00  0.00     0.030 H 
ATOM     30  H29 AEE d   1     -50.196  -1.759 -25.351  0.00  0.00     0.030 H 
ENDBRANCH  25  27
BRANCH  25  31
ATOM     31  CAZ AEE d   1     -52.029   0.263 -25.954  0.00  0.00    -0.036 A 
ATOM     32  CAG AEE d   1     -51.447   1.500 -25.584  0.00  0.00    -0.075 A 
ATOM     33  CAD AEE d   1     -51.360   2.561 -26.494  0.00  0.00    -0.082 A 
ATOM     34  H30 AEE d   1     -51.062   1.628 -24.579  0.00  0.00     0.084 H 
ATOM     35  CAC AEE d   1     -51.864   2.352 -27.784  0.00  0.00    -0.083 A 
ATOM     36  H31 AEE d   1     -50.919   3.510 -26.210  0.00  0.00     0.083 H 
ATOM     37  CAE AEE d   1     -52.440   1.121 -28.159  0.00  0.00    -0.082 A 
ATOM     38  H32 AEE d   1     -51.810   3.155 -28.510  0.00  0.00     0.083 H 
ATOM     39  CAH AEE d   1     -52.542   0.067 -27.248  0.00  0.00    -0.075 A 
ATOM     40  H33 AEE d   1     -52.809   0.991 -29.170  0.00  0.00     0.083 H 
ATOM     41  H34 AEE d   1     -53.002  -0.873 -27.530  0.00  0.00     0.084 H 
ENDBRANCH  25  31
ENDBRANCH  23  25
ENDBRANCH  18  23
ENDBRANCH   6  11
BRANCH   1  42
ATOM     42  CAS AEE d   1     -49.193  -0.448 -14.580  0.00  0.00     0.107 C 
ATOM     43  H16 AEE d   1     -48.278  -1.028 -14.772  0.00  0.00     0.083 H 
ATOM     44  H17 AEE d   1     -48.937   0.471 -14.033  0.00  0.00     0.083 H 
BRANCH  42  45
ATOM     45  NBG AEE d   1     -50.189  -1.267 -13.807  0.00  0.00    -0.064 N 
ATOM     46  CAQ AEE d   1     -50.623  -0.583 -12.561  0.00  0.00     0.106 C 
ATOM     47  CAO AEE d   1     -49.561  -0.778 -11.452  0.00  0.00     0.106 C 
ATOM     48  H1  AEE d   1     -50.748   0.491 -12.760  0.00  0.00     0.078 H 
ATOM     49  H2  AEE d   1     -51.581  -1.008 -12.227  0.00  0.00     0.078 H 
ATOM     50  NBF AEE d   1     -49.302  -2.224 -11.147  0.00  0.00    -0.068 N 
ATOM     51  H3  AEE d   1     -49.914  -0.283 -10.536  0.00  0.00     0.078 H 
ATOM     52  H4  AEE d   1     -48.620  -0.314 -11.780  0.00  0.00     0.078 H 
ATOM     53  CAP AEE d   1     -49.008  -3.080 -12.342  0.00  0.00     0.106 C 
ATOM     54  H5  AEE d   1     -48.453  -2.234 -10.604  0.00  0.00     0.280 HD
ATOM     55  CAR AEE d   1     -49.788  -2.709 -13.636  0.00  0.00     0.106 C 
ATOM     56  H11 AEE d   1     -49.255  -4.120 -12.083  0.00  0.00     0.078 H 
ATOM     57  H12 AEE d   1     -47.933  -3.001 -12.560  0.00  0.00     0.078 H 
ATOM     58  H13 AEE d   1     -50.707  -3.313 -13.653  0.00  0.00     0.078 H 
ATOM     59  H14 AEE d   1     -49.155  -2.981 -14.494  0.00  0.00     0.078 H 
ATOM     60  H15 AEE d   1     -51.013  -1.299 -14.387  0.00  0.00     0.280 HD
BRANCH  50  61
ATOM     61  CAN AEE d   1     -50.355  -2.793 -10.258  0.00  0.00     0.080 C 
ATOM     62  H6  AEE d   1     -50.073  -3.818  -9.976  0.00  0.00     0.075 H 
ATOM     63  H7  AEE d   1     -51.312  -2.811 -10.800  0.00  0.00     0.075 H 
BRANCH  61  64
ATOM     64  CAA AEE d   1     -50.515  -1.941  -8.975  0.00  0.00    -0.053 C 
ATOM     65  H8  AEE d   1     -51.296  -2.381  -8.338  0.00  0.00     0.029 H 
ATOM     66  H9  AEE d   1     -50.801  -0.915  -9.249  0.00  0.00     0.029 H 
ATOM     67  H10 AEE d   1     -49.562  -1.922  -8.426  0.00  0.00     0.029 H 
ENDBRANCH  61  64
ENDBRANCH  50  61
ENDBRANCH  42  45
ENDBRANCH   1  42
TORSDOF 9
