REMARK  9 active torsions:
REMARK  status: ('A' for Active; 'I' for Inactive)
REMARK    1  A    between atoms: NBF_3  and  CAN_4 
REMARK    2  A    between atoms: CAN_4  and  CAA_5 
REMARK    3  A    between atoms: NBG_8  and  CAS_9 
REMARK    4  A    between atoms: CAS_9  and  CAX_10 
REMARK    5  A    between atoms: CAY_15  and  CBA_16 
REMARK    6  A    between atoms: C6_24  and  NAV_25 
REMARK    7  A    between atoms: NAV_25  and  CBE_26 
REMARK    8  A    between atoms: CBE_26  and  CAB_27 
REMARK    9  A    between atoms: CBE_26  and  CAZ_28 
ROOT
ATOM      1  CAX AEE d   1     -50.428  -0.068 -15.983  0.00  0.00    -0.033 A 
ATOM      2  CAI AEE d   1     -51.502   0.820 -16.141  0.00  0.00    -0.074 A 
ATOM      3  CAK AEE d   1     -52.086   0.979 -17.407  0.00  0.00    -0.070 A 
ATOM      4  CAJ AEE d   1     -49.962  -0.793 -17.102  0.00  0.00    -0.074 A 
ATOM      5  CAL AEE d   1     -50.553  -0.636 -18.370  0.00  0.00    -0.070 A 
ATOM      6  CAY AEE d   1     -51.617   0.277 -18.550  0.00  0.00    -0.009 A 
ATOM      7  H18 AEE d   1     -51.878   1.379 -15.292  0.00  0.00     0.084 H 
ATOM      8  H19 AEE d   1     -52.922   1.660 -17.517  0.00  0.00     0.084 H 
ATOM      9  H20 AEE d   1     -49.134  -1.483 -16.982  0.00  0.00     0.084 H 
ATOM     10  H21 AEE d   1     -50.191  -1.217 -19.211  0.00  0.00     0.084 H 
ENDROOT
BRANCH   6  11
ATOM     11  CBA AEE d   1     -52.266   0.458 -19.799  0.00  0.00     0.045 A 
ATOM     12  NAW AEE d   1     -53.405   1.172 -19.956  0.00  0.00    -0.339 N 
ATOM     13  C4  AEE d   1     -53.783   1.140 -21.224  0.00  0.00     0.143 A 
ATOM     14  H22 AEE d   1     -53.903   1.666 -19.202  0.00  0.00     0.167 HD
ATOM     15  C5  AEE d   1     -52.852   0.359 -21.917  0.00  0.00     0.058 A 
ATOM     16  N3  AEE d   1     -54.834   1.660 -21.851  0.00  0.00    -0.223 NA
ATOM     17  CAM AEE d   1     -51.934  -0.042 -21.006  0.00  0.00    -0.039 A 
ATOM     18  C6  AEE d   1     -53.056   0.151 -23.316  0.00  0.00     0.139 A 
ATOM     19  H23 AEE d   1     -51.067  -0.667 -21.215  0.00  0.00     0.088 H 
ATOM     20  N1  AEE d   1     -54.162   0.745 -23.895  0.00  0.00    -0.224 NA
ATOM     21  C2  AEE d   1     -55.014   1.468 -23.165  0.00  0.00     0.091 A 
ATOM     22  H24 AEE d   1     -55.876   1.913 -23.649  0.00  0.00     0.146 H 
BRANCH  18  23
ATOM     23  NAV AEE d   1     -52.184  -0.597 -24.067  0.00  0.00    -0.366 N 
ATOM     24  H25 AEE d   1     -51.272  -0.847 -23.660  0.00  0.00     0.161 HD
BRANCH  23  25
ATOM     25  CBE AEE d   1     -52.500  -1.062 -25.443  0.00  0.00     0.033 C 
ATOM     26  H26 AEE d   1     -53.530  -1.449 -25.430  0.00  0.00     0.079 H 
BRANCH  25  27
ATOM     27  CAB AEE d   1     -51.583  -2.200 -25.918  0.00  0.00    -0.053 C 
ATOM     28  H27 AEE d   1     -51.867  -2.498 -26.938  0.00  0.00     0.030 H 
ATOM     29  H28 AEE d   1     -51.688  -3.062 -25.242  0.00  0.00     0.030 H 
ATOM     30  H29 AEE d   1     -50.538  -1.855 -25.914  0.00  0.00     0.030 H 
ENDBRANCH  25  27
BRANCH  25  31
ATOM     31  CAZ AEE d   1     -52.443   0.108 -26.451  0.00  0.00    -0.036 A 
ATOM     32  CAG AEE d   1     -51.965   1.376 -26.054  0.00  0.00    -0.075 A 
ATOM     33  CAD AEE d   1     -51.923   2.462 -26.948  0.00  0.00    -0.082 A 
ATOM     34  H30 AEE d   1     -51.622   1.516 -25.035  0.00  0.00     0.084 H 
ATOM     35  CAC AEE d   1     -52.362   2.261 -28.271  0.00  0.00    -0.083 A 
ATOM     36  H31 AEE d   1     -51.561   3.432 -26.626  0.00  0.00     0.083 H 
ATOM     37  CAE AEE d   1     -52.835   0.993 -28.675  0.00  0.00    -0.082 A 
ATOM     38  H32 AEE d   1     -52.337   3.080 -28.980  0.00  0.00     0.083 H 
ATOM     39  CAH AEE d   1     -52.882  -0.084 -27.773  0.00  0.00    -0.075 A 
ATOM     40  H33 AEE d   1     -53.167   0.848 -29.697  0.00  0.00     0.083 H 
ATOM     41  H34 AEE d   1     -53.252  -1.051 -28.093  0.00  0.00     0.084 H 
ENDBRANCH  25  31
ENDBRANCH  23  25
ENDBRANCH  18  23
ENDBRANCH   6  11
BRANCH   1  42
ATOM     42  CAS AEE d   1     -49.786  -0.256 -14.578  0.00  0.00     0.107 C 
ATOM     43  H16 AEE d   1     -48.808  -0.750 -14.677  0.00  0.00     0.083 H 
ATOM     44  H17 AEE d   1     -49.655   0.723 -14.093  0.00  0.00     0.083 H 
BRANCH  42  45
ATOM     45  NBG AEE d   1     -50.703  -1.107 -13.763  0.00  0.00    -0.064 N 
ATOM     46  CAQ AEE d   1     -50.721  -0.781 -12.297  0.00  0.00     0.106 C 
ATOM     47  CAO AEE d   1     -49.581  -1.472 -11.486  0.00  0.00     0.106 C 
ATOM     48  H1  AEE d   1     -50.618   0.308 -12.182  0.00  0.00     0.078 H 
ATOM     49  H2  AEE d   1     -51.687  -1.103 -11.882  0.00  0.00     0.078 H 
ATOM     50  NBF AEE d   1     -49.439  -2.918 -11.818  0.00  0.00    -0.068 N 
ATOM     51  H3  AEE d   1     -49.804  -1.377 -10.413  0.00  0.00     0.078 H 
ATOM     52  H4  AEE d   1     -48.631  -0.964 -11.710  0.00  0.00     0.078 H 
ATOM     53  CAP AEE d   1     -49.303  -3.160 -13.278  0.00  0.00     0.106 C 
ATOM     54  H5  AEE d   1     -48.582  -3.231 -11.389  0.00  0.00     0.280 HD
ATOM     55  CAR AEE d   1     -50.503  -2.564 -14.051  0.00  0.00     0.106 C 
ATOM     56  H11 AEE d   1     -49.260  -4.244 -13.461  0.00  0.00     0.078 H 
ATOM     57  H12 AEE d   1     -48.375  -2.690 -13.636  0.00  0.00     0.078 H 
ATOM     58  H13 AEE d   1     -51.414  -3.109 -13.763  0.00  0.00     0.078 H 
ATOM     59  H14 AEE d   1     -50.326  -2.690 -15.129  0.00  0.00     0.078 H 
ATOM     60  H15 AEE d   1     -51.631  -0.890 -14.090  0.00  0.00     0.280 HD
BRANCH  50  61
ATOM     61  CAN AEE d   1     -50.542  -3.735 -11.233  0.00  0.00     0.080 C 
ATOM     62  H6  AEE d   1     -50.873  -4.482 -11.970  0.00  0.00     0.075 H 
ATOM     63  H7  AEE d   1     -51.385  -3.077 -10.973  0.00  0.00     0.075 H 
BRANCH  61  64
ATOM     64  CAA AEE d   1     -50.045  -4.456  -9.962  0.00  0.00    -0.053 C 
ATOM     65  H8  AEE d   1     -50.863  -5.056  -9.537  0.00  0.00     0.029 H 
ATOM     66  H9  AEE d   1     -49.715  -3.711  -9.223  0.00  0.00     0.029 H 
ATOM     67  H10 AEE d   1     -49.203  -5.115 -10.220  0.00  0.00     0.029 H 
ENDBRANCH  61  64
ENDBRANCH  50  61
ENDBRANCH  42  45
ENDBRANCH   1  42
TORSDOF 9
