REMARK  9 active torsions:
REMARK  status: ('A' for Active; 'I' for Inactive)
REMARK    1  A    between atoms: CAN_7  and  NBE_6 
REMARK    2  A    between atoms: CAJ_8  and  CAN_7 
REMARK    3  A    between atoms: CAJ_8  and  CAK_9 
REMARK    4  A    between atoms: CAK_9  and  OAV_10 
REMARK    5  A    between atoms: OAV_10  and  CBA_11 
REMARK    6  A    between atoms: CAZ_12  and  OAT_14 
REMARK    7  A    between atoms: OAT_14  and  CAA_15 
REMARK    8  A    between atoms: C6_22  and  NAS_23 
REMARK    9  A    between atoms: NAS_23  and  CAY_24 
ROOT
ATOM      1  CBA IRE d   1     -51.059  -0.411 -19.607  0.00  0.00     0.103 A 
ATOM      2  CAZ IRE d   1     -51.851   0.322 -18.738  0.00  0.00     0.103 A 
ATOM      3  CAH IRE d   1     -52.942   1.052 -19.210  0.00  0.00    -0.019 A 
ATOM      4  CAI IRE d   1     -51.372  -0.409 -20.968  0.00  0.00    -0.032 A 
ATOM      5  C5  IRE d   1     -52.464   0.324 -21.452  0.00  0.00     0.042 A 
ATOM      6  C4  IRE d   1     -53.245   1.057 -20.563  0.00  0.00     0.075 A 
ATOM      7  N3  IRE d   1     -54.287   1.766 -21.024  0.00  0.00    -0.241 NA
ATOM      8  C2  IRE d   1     -54.585   1.767 -22.319  0.00  0.00     0.089 A 
ATOM      9  N1  IRE d   1     -53.869   1.082 -23.206  0.00  0.00    -0.224 NA
ATOM     10  C6  IRE d   1     -52.803   0.352 -22.818  0.00  0.00     0.142 A 
ATOM     11  H16 IRE d   1     -53.555   1.617 -18.517  0.00  0.00     0.091 H 
ATOM     12  H20 IRE d   1     -50.763  -0.981 -21.658  0.00  0.00     0.089 H 
ATOM     13  H21 IRE d   1     -55.437   2.343 -22.663  0.00  0.00     0.146 H 
ENDROOT
BRANCH   1  14
ATOM     14  OAV IRE d   1     -50.011  -1.115 -19.052  0.00  0.00    -0.348 OA
BRANCH  14  15
ATOM     15  CAK IRE d   1     -49.337  -2.173 -19.937  0.00  0.00     0.028 C 
ATOM     16  H14 IRE d   1     -48.562  -1.702 -20.559  0.00  0.00     0.075 H 
ATOM     17  H15 IRE d   1     -50.086  -2.652 -20.584  0.00  0.00     0.075 H 
BRANCH  15  18
ATOM     18  CAJ IRE d   1     -48.605  -3.375 -18.872  0.00  0.00    -0.022 C 
ATOM     19  H12 IRE d   1     -49.364  -3.763 -18.177  0.00  0.00     0.038 H 
ATOM     20  H13 IRE d   1     -48.200  -4.203 -19.473  0.00  0.00     0.038 H 
BRANCH  18  21
ATOM     21  CAN IRE d   1     -47.407  -2.673 -18.034  0.00  0.00     0.086 C 
ATOM     22  H10 IRE d   1     -47.177  -1.701 -18.495  0.00  0.00     0.076 H 
ATOM     23  H11 IRE d   1     -47.745  -2.517 -16.999  0.00  0.00     0.076 H 
BRANCH  21  24
ATOM     24  NBE IRE d   1     -46.161  -3.498 -18.011  0.00  0.00    -0.067 N 
ATOM     25  CAO IRE d   1     -45.304  -2.997 -16.897  0.00  0.00     0.103 C 
ATOM     26  CAL IRE d   1     -43.827  -3.493 -16.996  0.00  0.00     0.042 C 
ATOM     27  H1  IRE d   1     -45.307  -1.897 -16.919  0.00  0.00     0.079 H 
ATOM     28  H2  IRE d   1     -45.728  -3.346 -15.944  0.00  0.00     0.079 H 
ATOM     29  OAU IRE d   1     -43.220  -3.247 -18.306  0.00  0.00    -0.388 OA
ATOM     30  H3  IRE d   1     -43.808  -4.575 -16.800  0.00  0.00     0.076 H 
ATOM     31  H4  IRE d   1     -43.232  -2.972 -16.232  0.00  0.00     0.076 H 
ATOM     32  CAM IRE d   1     -43.994  -3.906 -19.350  0.00  0.00     0.042 C 
ATOM     33  CAP IRE d   1     -45.496  -3.489 -19.358  0.00  0.00     0.103 C 
ATOM     34  H5  IRE d   1     -43.934  -4.994 -19.196  0.00  0.00     0.076 H 
ATOM     35  H6  IRE d   1     -43.555  -3.649 -20.325  0.00  0.00     0.076 H 
ATOM     36  H7  IRE d   1     -46.041  -4.185 -20.013  0.00  0.00     0.079 H 
ATOM     37  H8  IRE d   1     -45.566  -2.470 -19.767  0.00  0.00     0.079 H 
ATOM     38  H9  IRE d   1     -46.410  -4.453 -17.805  0.00  0.00     0.280 HD
ENDBRANCH  21  24
ENDBRANCH  18  21
ENDBRANCH  15  18
ENDBRANCH  14  15
ENDBRANCH   1  14
BRANCH   2  39
ATOM     39  OAT IRE d   1     -51.528   0.289 -17.416  0.00  0.00    -0.353 OA
BRANCH  39  40
ATOM     40  CAA IRE d   1     -51.880   1.501 -16.695  0.00  0.00     0.010 C 
ATOM     41  H17 IRE d   1     -51.589   1.397 -15.639  0.00  0.00     0.066 H 
ATOM     42  H18 IRE d   1     -52.966   1.665 -16.762  0.00  0.00     0.066 H 
ATOM     43  H19 IRE d   1     -51.352   2.358 -17.139  0.00  0.00     0.066 H 
ENDBRANCH  39  40
ENDBRANCH   2  39
BRANCH  10  44
ATOM     44  NAS IRE d   1     -52.074  -0.355 -23.704  0.00  0.00    -0.340 N 
ATOM     45  H22 IRE d   1     -51.335  -0.949 -23.302  0.00  0.00     0.167 HD
BRANCH  44  46
ATOM     46  CAY IRE d   1     -52.184  -0.387 -25.047  0.00  0.00     0.035 A 
ATOM     47  CAG IRE d   1     -52.170   0.790 -25.800  0.00  0.00    -0.033 A 
ATOM     48  CAX IRE d   1     -52.260   0.730 -27.191  0.00  0.00     0.074 A 
ATOM     49  H23 IRE d   1     -52.089   1.750 -25.303  0.00  0.00     0.089 H 
ATOM     50 CL   IRE d   1     -52.264   2.191 -28.123  0.00  0.00    -0.081 Cl
ATOM     51  CAW IRE d   1     -52.359  -0.499 -27.837  0.00  0.00     0.138 A 
ATOM     52  FAB IRE d   1     -52.448  -0.520 -29.177  0.00  0.00    -0.204 F 
ATOM     53  CAD IRE d   1     -52.366  -1.685 -27.098  0.00  0.00    -0.042 A 
ATOM     54  CAE IRE d   1     -52.270  -1.627 -25.705  0.00  0.00    -0.054 A 
ATOM     55  H24 IRE d   1     -52.445  -2.642 -27.601  0.00  0.00     0.088 H 
ATOM     56  H25 IRE d   1     -52.262  -2.544 -25.128  0.00  0.00     0.087 H 
ENDBRANCH  44  46
ENDBRANCH  10  44
TORSDOF 9
