REMARK  32 active torsions:
REMARK  status: ('A' for Active; 'I' for Inactive)
REMARK    1  A    between atoms: CA_2  and  N_1 
REMARK    2  A    between atoms: CA_2  and  CB_5 
REMARK    3  A    between atoms: C_3  and  CA_2 
REMARK       I    between atoms: N_7  and  C_3 
REMARK    4  A    between atoms: CB_5  and  OG_6 
REMARK    5  A    between atoms: CA_8  and  N_7 
REMARK    6  A    between atoms: CA_8  and  CB_11 
REMARK    7  A    between atoms: C_9  and  CA_8 
REMARK       I    between atoms: N_18  and  C_9 
REMARK    8  A    between atoms: CB_11  and  CG_12 
REMARK    9  A    between atoms: CA_19  and  N_18 
REMARK   10  A    between atoms: C_20  and  CA_19 
REMARK       I    between atoms: N_22  and  C_20 
REMARK   11  A    between atoms: CA_23  and  N_22 
REMARK   12  A    between atoms: CA_23  and  CB_26 
REMARK   13  A    between atoms: C_24  and  CA_23 
REMARK       I    between atoms: N_30  and  C_24 
REMARK   14  A    between atoms: CB_26  and  CG_27 
REMARK   15  A    between atoms: CA_31  and  N_30 
REMARK   16  A    between atoms: C_32  and  CA_31 
REMARK       I    between atoms: N_34  and  C_32 
REMARK   17  A    between atoms: CA_35  and  N_34 
REMARK   18  A    between atoms: CA_35  and  CB_38 
REMARK   19  A    between atoms: C_36  and  CA_35 
REMARK       I    between atoms: N_45  and  C_36 
REMARK   20  A    between atoms: CB_38  and  CG_39 
REMARK   21  A    between atoms: CA_46  and  N_45 
REMARK   22  A    between atoms: CA_46  and  CB_49 
REMARK   23  A    between atoms: C_47  and  CA_46 
REMARK       I    between atoms: N_50  and  C_47 
REMARK   24  A    between atoms: CA_51  and  N_50 
REMARK   25  A    between atoms: CA_51  and  CB_54 
REMARK   26  A    between atoms: C_52  and  CA_51 
REMARK       I    between atoms: C_52  and  N_58 
REMARK   27  A    between atoms: CB_54  and  CG_55 
REMARK   28  A    between atoms: N_58  and  CA_59 
REMARK   29  A    between atoms: CA_59  and  CB_62 
REMARK   30  A    between atoms: CA_59  and  C_60 
REMARK   31  A    between atoms: C_60  and  O1_69 
REMARK   32  A    between atoms: CB_62  and  CG_63 
ROOT
ATOM      1  CA  PHE d   1     -16.688  -7.230  -0.452  0.00  0.00     0.093 C 
ATOM      2  H28 PHE d   1     -16.749  -7.281  -1.549  0.00  0.00     0.088 H 
ENDROOT
BRANCH   1   3
ATOM      3  N   PHE d   1     -15.480  -6.475  -0.114  0.00  0.00    -0.346 N 
ATOM      4  C   GLY d   1     -15.319  -5.186  -0.414  0.00  0.00     0.236 C 
ATOM      5  O   GLY d   1     -16.151  -4.511  -1.051  0.00  0.00    -0.272 OA
ATOM      6  H27 PHE d   1     -14.741  -6.949   0.365  0.00  0.00     0.163 HD
BRANCH   4   7
ATOM      7  CA  GLY d   1     -14.031  -4.557   0.089  0.00  0.00     0.069 C 
ATOM      8  H25 GLY d   1     -13.575  -5.229   0.832  0.00  0.00     0.078 H 
ATOM      9  H26 GLY d   1     -13.344  -4.429  -0.760  0.00  0.00     0.078 H 
BRANCH   7  10
ATOM     10  N   GLY d   1     -14.259  -3.250   0.712  0.00  0.00    -0.351 N 
ATOM     11  C   ASP d   1     -14.929  -3.118   1.848  0.00  0.00     0.241 C 
ATOM     12  O   ASP d   1     -15.567  -4.056   2.358  0.00  0.00    -0.271 OA
ATOM     13  H24 GLY d   1     -13.897  -2.432   0.266  0.00  0.00     0.163 HD
BRANCH  11  14
ATOM     14  CA  ASP d   1     -14.863  -1.730   2.503  0.00  0.00     0.098 C 
ATOM     15  H21 ASP d   1     -14.016  -1.723   3.204  0.00  0.00     0.088 H 
BRANCH  14  16
ATOM     16  N   ASP d   1     -14.633  -0.684   1.485  0.00  0.00    -0.346 N 
ATOM     17  C   GLY d   1     -13.449  -0.079   1.327  0.00  0.00     0.236 C 
ATOM     18  O   GLY d   1     -12.446  -0.402   1.958  0.00  0.00    -0.272 OA
ATOM     19  H20 ASP d   1     -15.392  -0.417   0.890  0.00  0.00     0.163 HD
BRANCH  17  20
ATOM     20  CA  GLY d   1     -13.374   1.063   0.322  0.00  0.00     0.069 C 
ATOM     21  H18 GLY d   1     -12.985   1.946   0.850  0.00  0.00     0.078 H 
ATOM     22  H19 GLY d   1     -12.667   0.766  -0.467  0.00  0.00     0.078 H 
BRANCH  20  23
ATOM     23  N   GLY d   1     -14.615   1.448  -0.323  0.00  0.00    -0.351 N 
ATOM     24  C   PHE d   1     -15.302   2.542   0.007  0.00  0.00     0.241 C 
ATOM     25  O   PHE d   1     -14.889   3.397   0.797  0.00  0.00    -0.271 OA
ATOM     26  H17 GLY d   1     -14.973   0.864  -1.051  0.00  0.00     0.163 HD
BRANCH  24  27
ATOM     27  CA  PHE d   1     -16.665   2.694  -0.674  0.00  0.00     0.093 C 
ATOM     28  H9  PHE d   1     -16.819   1.807  -1.307  0.00  0.00     0.088 H 
BRANCH  27  29
ATOM     29  N   PHE d   1     -17.772   2.731   0.288  0.00  0.00    -0.346 N 
ATOM     30  C   SER d   1     -18.906   2.062   0.084  0.00  0.00     0.251 C 
ATOM     31  O   SER d   1     -19.185   1.509  -0.997  0.00  0.00    -0.271 OA
ATOM     32  H8  PHE d   1     -17.672   3.274   1.121  0.00  0.00     0.163 HD
BRANCH  30  33
ATOM     33  CA  SER d   1     -19.878   2.000   1.275  0.00  0.00     0.195 C 
ATOM     34  H4  SER d   1     -19.899   2.992   1.749  0.00  0.00     0.102 H 
BRANCH  33  35
ATOM     35  N   SER d   1     -21.266   1.662   0.846  0.00  0.00    -0.064 N 
ATOM     36  H1  SER d   1     -21.869   1.631   1.653  0.00  0.00     0.275 HD
ATOM     37  H2  SER d   1     -21.267   0.762   0.391  0.00  0.00     0.275 HD
ATOM     38  H3  SER d   1     -21.599   2.364   0.204  0.00  0.00     0.275 HD
ENDBRANCH  33  35
BRANCH  33  39
ATOM     39  CB  SER d   1     -19.388   0.974   2.313  0.00  0.00     0.051 C 
ATOM     40  H5  SER d   1     -20.106   0.938   3.146  0.00  0.00     0.077 H 
ATOM     41  H6  SER d   1     -18.404   1.290   2.690  0.00  0.00     0.077 H 
BRANCH  39  42
ATOM     42  OG  SER d   1     -19.270  -0.324   1.750  0.00  0.00    -0.398 OA
ATOM     43  H7  SER d   1     -18.647  -0.301   1.033  0.00  0.00     0.209 HD
ENDBRANCH  39  42
ENDBRANCH  33  39
ENDBRANCH  30  33
ENDBRANCH  27  29
BRANCH  27  44
ATOM     44  CB  PHE d   1     -16.650   3.920  -1.594  0.00  0.00    -0.014 C 
ATOM     45  H10 PHE d   1     -16.351   4.799  -1.005  0.00  0.00     0.043 H 
ATOM     46  H11 PHE d   1     -17.663   4.074  -1.993  0.00  0.00     0.043 H 
BRANCH  44  47
ATOM     47  CG  PHE d   1     -15.693   3.764  -2.751  0.00  0.00    -0.056 A 
ATOM     48  CD1 PHE d   1     -16.142   3.265  -3.984  0.00  0.00    -0.077 A 
ATOM     49  CE1 PHE d   1     -15.245   3.086  -5.059  0.00  0.00    -0.082 A 
ATOM     50  H12 PHE d   1     -17.189   3.014  -4.112  0.00  0.00     0.084 H 
ATOM     51  CZ  PHE d   1     -13.874   3.406  -4.887  0.00  0.00    -0.083 A 
ATOM     52  H14 PHE d   1     -15.602   2.707  -6.010  0.00  0.00     0.083 H 
ATOM     53  CE2 PHE d   1     -13.418   3.890  -3.663  0.00  0.00    -0.082 A 
ATOM     54  H16 PHE d   1     -13.180   3.274  -5.709  0.00  0.00     0.083 H 
ATOM     55  CD2 PHE d   1     -14.334   4.068  -2.592  0.00  0.00    -0.077 A 
ATOM     56  H15 PHE d   1     -12.369   4.130  -3.529  0.00  0.00     0.083 H 
ATOM     57  H13 PHE d   1     -13.977   4.444  -1.640  0.00  0.00     0.084 H 
ENDBRANCH  44  47
ENDBRANCH  27  44
ENDBRANCH  24  27
ENDBRANCH  20  23
ENDBRANCH  17  20
ENDBRANCH  14  16
BRANCH  14  58
ATOM     58  CB  ASP d   1     -16.153  -1.419   3.300  0.00  0.00     0.043 C 
ATOM     59  H22 ASP d   1     -17.006  -1.864   2.767  0.00  0.00     0.052 H 
ATOM     60  H23 ASP d   1     -16.278  -0.327   3.346  0.00  0.00     0.052 H 
BRANCH  58  61
ATOM     61  CG  ASP d   1     -16.139  -1.966   4.735  0.00  0.00     0.175 C 
ATOM     62  OD1 ASP d   1     -15.059  -2.283   5.277  0.00  0.00    -0.648 OA
ATOM     63  OD2 ASP d   1     -17.244  -2.073   5.332  0.00  0.00    -0.648 OA
ENDBRANCH  58  61
ENDBRANCH  14  58
ENDBRANCH  11  14
ENDBRANCH   7  10
ENDBRANCH   4   7
ENDBRANCH   1   3
BRANCH   1  64
ATOM     64  CB  PHE d   1     -16.594  -8.670   0.088  0.00  0.00    -0.014 C 
ATOM     65  H29 PHE d   1     -17.574  -9.151  -0.044  0.00  0.00     0.043 H 
ATOM     66  H30 PHE d   1     -16.351  -8.620   1.160  0.00  0.00     0.043 H 
BRANCH  64  67
ATOM     67  CG  PHE d   1     -15.540  -9.537  -0.601  0.00  0.00    -0.056 A 
ATOM     68  CD1 PHE d   1     -14.508 -10.102   0.130  0.00  0.00    -0.077 A 
ATOM     69  CE1 PHE d   1     -13.544 -10.907  -0.486  0.00  0.00    -0.082 A 
ATOM     70  H31 PHE d   1     -14.446  -9.917   1.196  0.00  0.00     0.084 H 
ATOM     71  CZ  PHE d   1     -13.619 -11.163  -1.855  0.00  0.00    -0.083 A 
ATOM     72  H33 PHE d   1     -12.738 -11.332   0.101  0.00  0.00     0.083 H 
ATOM     73  CE2 PHE d   1     -14.653 -10.610  -2.598  0.00  0.00    -0.082 A 
ATOM     74  H35 PHE d   1     -12.876 -11.789  -2.335  0.00  0.00     0.083 H 
ATOM     75  CD2 PHE d   1     -15.606  -9.808  -1.970  0.00  0.00    -0.077 A 
ATOM     76  H34 PHE d   1     -14.720 -10.801  -3.663  0.00  0.00     0.083 H 
ATOM     77  H32 PHE d   1     -16.414  -9.386  -2.556  0.00  0.00     0.084 H 
ENDBRANCH  64  67
ENDBRANCH   1  64
BRANCH   1  78
ATOM     78  C   PHE d   1     -17.971  -6.561   0.050  0.00  0.00     0.241 C 
ATOM     79  O   PHE d   1     -19.022  -6.727  -0.534  0.00  0.00    -0.271 OA
ATOM     80  N   ALA d   1     -17.884  -5.796   1.129  0.00  0.00    -0.346 N 
ATOM     81  H36 ALA d   1     -16.993  -5.675   1.567  0.00  0.00     0.163 HD
BRANCH  80  82
ATOM     82  CA  ALA d   1     -19.049  -5.125   1.696  0.00  0.00     0.086 C 
ATOM     83  H37 ALA d   1     -19.869  -5.858   1.717  0.00  0.00     0.086 H 
BRANCH  82  84
ATOM     84  CB  ALA d   1     -18.768  -4.710   3.128  0.00  0.00    -0.049 C 
ATOM     85  H38 ALA d   1     -19.653  -4.206   3.544  0.00  0.00     0.030 H 
ATOM     86  H39 ALA d   1     -17.910  -4.022   3.149  0.00  0.00     0.030 H 
ATOM     87  H40 ALA d   1     -18.537  -5.601   3.730  0.00  0.00     0.030 H 
ENDBRANCH  82  84
BRANCH  82  88
ATOM     88  C   ALA d   1     -19.535  -3.931   0.849  0.00  0.00     0.240 C 
ATOM     89  O   ALA d   1     -20.645  -3.430   1.049  0.00  0.00    -0.271 OA
ATOM     90  N   ASP d   1     -18.710  -3.486  -0.102  0.00  0.00    -0.346 N 
ATOM     91  H41 ASP d   1     -17.786  -3.865  -0.155  0.00  0.00     0.163 HD
BRANCH  90  92
ATOM     92  CA  ASP d   1     -19.110  -2.463  -1.070  0.00  0.00     0.098 C 
ATOM     93  H42 ASP d   1     -19.509  -1.601  -0.515  0.00  0.00     0.088 H 
BRANCH  92  94
ATOM     94  CB  ASP d   1     -17.902  -2.014  -1.913  0.00  0.00     0.043 C 
ATOM     95  H43 ASP d   1     -18.273  -1.450  -2.781  0.00  0.00     0.052 H 
ATOM     96  H44 ASP d   1     -17.367  -2.910  -2.260  0.00  0.00     0.052 H 
BRANCH  94  97
ATOM     97  CG  ASP d   1     -16.921  -1.131  -1.147  0.00  0.00     0.175 C 
ATOM     98  OD1 ASP d   1     -17.102  -0.896   0.065  0.00  0.00    -0.648 OA
ATOM     99  OD2 ASP d   1     -15.944  -0.664  -1.777  0.00  0.00    -0.648 OA
ENDBRANCH  94  97
ENDBRANCH  92  94
BRANCH  92 100
ATOM    100  C   ASP d   1     -20.178  -2.959  -2.052  0.00  0.00     0.241 C 
ATOM    101  O   ASP d   1     -20.867  -2.153  -2.673  0.00  0.00    -0.271 OA
ATOM    102  N   PHE d   1     -20.278  -4.273  -2.221  0.00  0.00    -0.345 N 
ATOM    103  H45 PHE d   1     -19.782  -4.876  -1.596  0.00  0.00     0.163 HD
BRANCH 102 104
ATOM    104  CA  PHE d   1     -21.088  -4.877  -3.290  0.00  0.00     0.097 C 
ATOM    105  H46 PHE d   1     -21.528  -4.055  -3.874  0.00  0.00     0.089 H 
BRANCH 104 106
ATOM    106  CB  PHE d   1     -20.199  -5.707  -4.223  0.00  0.00    -0.013 C 
ATOM    107  H47 PHE d   1     -20.848  -6.295  -4.889  0.00  0.00     0.043 H 
ATOM    108  H48 PHE d   1     -19.592  -6.388  -3.608  0.00  0.00     0.043 H 
BRANCH 106 109
ATOM    109  CG  PHE d   1     -19.274  -4.883  -5.071  0.00  0.00    -0.056 A 
ATOM    110  CD1 PHE d   1     -18.008  -4.531  -4.596  0.00  0.00    -0.077 A 
ATOM    111  CE1 PHE d   1     -17.137  -3.744  -5.390  0.00  0.00    -0.082 A 
ATOM    112  H49 PHE d   1     -17.690  -4.862  -3.614  0.00  0.00     0.084 H 
ATOM    113  CZ  PHE d   1     -17.562  -3.302  -6.644  0.00  0.00    -0.083 A 
ATOM    114  H51 PHE d   1     -16.149  -3.487  -5.026  0.00  0.00     0.083 H 
ATOM    115  CE2 PHE d   1     -18.836  -3.659  -7.123  0.00  0.00    -0.082 A 
ATOM    116  H53 PHE d   1     -16.910  -2.683  -7.250  0.00  0.00     0.083 H 
ATOM    117  CD2 PHE d   1     -19.675  -4.442  -6.332  0.00  0.00    -0.077 A 
ATOM    118  H52 PHE d   1     -19.163  -3.327  -8.102  0.00  0.00     0.083 H 
ATOM    119  H50 PHE d   1     -20.657  -4.713  -6.704  0.00  0.00     0.084 H 
ENDBRANCH 106 109
ENDBRANCH 104 106
BRANCH 104 120
ATOM    120  C   PHE d   1     -22.243  -5.749  -2.776  0.00  0.00     0.163 C 
ATOM    121  O   PHE d   1     -22.066  -6.530  -1.837  0.00  0.00    -0.648 OA
BRANCH 120 122
ATOM    122  O1  PHE d   1     -23.441  -5.662  -3.346  0.00  0.00    -0.775 OA
ATOM    123  H54 PHE d   1     -23.685  -6.509  -3.700  0.00  0.00     0.167 HD
ENDBRANCH 120 122
ENDBRANCH 104 120
ENDBRANCH 102 104
ENDBRANCH  92 100
ENDBRANCH  90  92
ENDBRANCH  82  88
ENDBRANCH  80  82
ENDBRANCH   1  78
TORSDOF 32
