REMARK  8 active torsions:
REMARK  status: ('A' for Active; 'I' for Inactive)
REMARK    1  A    between atoms: NBD_3  and  CAB_4 
REMARK    2  A    between atoms: CBC_7  and  CAO_8 
REMARK    3  A    between atoms: CAO_8  and  OAT_9 
REMARK    4  A    between atoms: OAT_9  and  CAY_10 
REMARK    5  A    between atoms: CAX_12  and  OAS_13 
REMARK    6  A    between atoms: OAS_13  and  CAA_14 
REMARK    7  A    between atoms: C6_21  and  NAR_22 
REMARK    8  A    between atoms: NAR_22  and  CAW_23 
ROOT
ATOM      1  CAY ZD6 d   1     -24.722  11.528 -11.655  0.00  0.00     0.104 A 
ATOM      2  CAI ZD6 d   1     -23.500  11.113 -12.155  0.00  0.00    -0.019 A 
ATOM      3  CAX ZD6 d   1     -25.484  10.669 -10.884  0.00  0.00     0.102 A 
ATOM      4  CAJ ZD6 d   1     -25.012   9.377 -10.625  0.00  0.00    -0.032 A 
ATOM      5  C5  ZD6 d   1     -23.780   8.960 -11.136  0.00  0.00     0.042 A 
ATOM      6  C4  ZD6 d   1     -23.023   9.840 -11.894  0.00  0.00     0.075 A 
ATOM      7  N3  ZD6 d   1     -21.833   9.434 -12.401  0.00  0.00    -0.241 NA
ATOM      8  C2  ZD6 d   1     -21.373   8.209 -12.166  0.00  0.00     0.089 A 
ATOM      9  N1  ZD6 d   1     -22.055   7.351 -11.416  0.00  0.00    -0.224 NA
ATOM     10  C6  ZD6 d   1     -23.252   7.669 -10.893  0.00  0.00     0.142 A 
ATOM     11  H16 ZD6 d   1     -22.909  11.793 -12.758  0.00  0.00     0.091 H 
ATOM     12  H20 ZD6 d   1     -25.605   8.696 -10.025  0.00  0.00     0.089 H 
ATOM     13  H21 ZD6 d   1     -20.425   7.905 -12.594  0.00  0.00     0.146 H 
ENDROOT
BRANCH   1  14
ATOM     14  OAT ZD6 d   1     -25.247  12.767 -11.887  0.00  0.00    -0.348 OA
BRANCH  14  15
ATOM     15  CAO ZD6 d   1     -24.388  13.752 -12.429  0.00  0.00     0.030 C 
ATOM     16  H14 ZD6 d   1     -23.567  13.986 -11.735  0.00  0.00     0.075 H 
ATOM     17  H15 ZD6 d   1     -23.971  13.426 -13.393  0.00  0.00     0.075 H 
BRANCH  15  18
ATOM     18  CBC ZD6 d   1     -25.312  14.949 -12.608  0.00  0.00    -0.030 C 
ATOM     19  CAK ZD6 d   1     -24.692  15.960 -13.554  0.00  0.00    -0.037 C 
ATOM     20  CAM ZD6 d   1     -25.666  17.109 -13.830  0.00  0.00     0.084 C 
ATOM     21  H1  ZD6 d   1     -23.775  16.364 -13.100  0.00  0.00     0.036 H 
ATOM     22  H2  ZD6 d   1     -24.443  15.462 -14.502  0.00  0.00     0.036 H 
ATOM     23  NBD ZD6 d   1     -26.206  17.735 -12.596  0.00  0.00    -0.075 N 
ATOM     24  H3  ZD6 d   1     -26.508  16.718 -14.420  0.00  0.00     0.075 H 
ATOM     25  H4  ZD6 d   1     -25.139  17.881 -14.410  0.00  0.00     0.075 H 
ATOM     26  CAN ZD6 d   1     -26.550  16.815 -11.466  0.00  0.00     0.084 C 
ATOM     27  H5  ZD6 d   1     -25.555  18.430 -12.265  0.00  0.00     0.279 HD
ATOM     28  CAL ZD6 d   1     -25.548  15.672 -11.281  0.00  0.00    -0.037 C 
ATOM     29  H9  ZD6 d   1     -27.542  16.380 -11.661  0.00  0.00     0.075 H 
ATOM     30  H10 ZD6 d   1     -26.583  17.402 -10.537  0.00  0.00     0.075 H 
ATOM     31  H11 ZD6 d   1     -25.945  14.958 -10.545  0.00  0.00     0.036 H 
ATOM     32  H12 ZD6 d   1     -24.594  16.082 -10.917  0.00  0.00     0.036 H 
ATOM     33  H13 ZD6 d   1     -26.273  14.600 -13.014  0.00  0.00     0.043 H 
BRANCH  23  34
ATOM     34  CAB ZD6 d   1     -27.481  18.348 -13.023  0.00  0.00     0.066 C 
ATOM     35  H6  ZD6 d   1     -27.957  18.841 -12.163  0.00  0.00     0.068 H 
ATOM     36  H7  ZD6 d   1     -28.150  17.568 -13.415  0.00  0.00     0.068 H 
ATOM     37  H8  ZD6 d   1     -27.285  19.092 -13.809  0.00  0.00     0.068 H 
ENDBRANCH  23  34
ENDBRANCH  15  18
ENDBRANCH  14  15
ENDBRANCH   1  14
BRANCH   3  38
ATOM     38  OAS ZD6 d   1     -26.694  11.171 -10.429  0.00  0.00    -0.353 OA
BRANCH  38  39
ATOM     39  CAA ZD6 d   1     -27.458  10.401  -9.473  0.00  0.00     0.010 C 
ATOM     40  H17 ZD6 d   1     -28.383  10.942  -9.222  0.00  0.00     0.066 H 
ATOM     41  H18 ZD6 d   1     -26.861  10.252  -8.561  0.00  0.00     0.066 H 
ATOM     42  H19 ZD6 d   1     -27.712   9.423  -9.909  0.00  0.00     0.066 H 
ENDBRANCH  38  39
ENDBRANCH   3  38
BRANCH  10  43
ATOM     43  NAR ZD6 d   1     -23.968   6.708 -10.104  0.00  0.00    -0.338 N 
ATOM     44  H22 ZD6 d   1     -24.936   6.912  -9.818  0.00  0.00     0.167 HD
BRANCH  43  45
ATOM     45  CAW ZD6 d   1     -23.373   5.488  -9.711  0.00  0.00     0.072 A 
ATOM     46  CAF ZD6 d   1     -23.932   4.278 -10.088  0.00  0.00    -0.053 A 
ATOM     47  CAE ZD6 d   1     -23.343   3.092  -9.663  0.00  0.00    -0.064 A 
ATOM     48  H23 ZD6 d   1     -24.820   4.256 -10.709  0.00  0.00     0.087 H 
ATOM     49  CAU ZD6 d   1     -22.195   3.152  -8.870  0.00  0.00     0.014 A 
ATOM     50  H24 ZD6 d   1     -23.769   2.135  -9.943  0.00  0.00     0.085 H 
ATOM     51 BR   ZD6 d   1     -21.233   1.639  -8.212  0.00  0.00    -0.051 Br
ATOM     52  CAH ZD6 d   1     -21.659   4.355  -8.500  0.00  0.00    -0.027 A 
ATOM     53  CAV ZD6 d   1     -22.238   5.504  -8.915  0.00  0.00     0.144 A 
ATOM     54  H25 ZD6 d   1     -20.773   4.387  -7.876  0.00  0.00     0.090 H 
ATOM     55  FAC ZD6 d   1     -21.644   6.622  -8.490  0.00  0.00    -0.204 F 
ENDBRANCH  43  45
ENDBRANCH  10  43
TORSDOF 8
