REMARK WARNING: 32 MAX_TORS EXCEEDED!!!
REMARK  52 active torsions:
REMARK  status: ('A' for Active; 'I' for Inactive)
REMARK    1  A    between atoms: CA_2  and  N_1 
REMARK    2  A    between atoms: C_3  and  CA_2 
REMARK       I    between atoms: N_5  and  C_3 
REMARK    3  A    between atoms: CA_6  and  N_5 
REMARK    4  A    between atoms: CA_6  and  CB_9 
REMARK    5  A    between atoms: C_7  and  CA_6 
REMARK       I    between atoms: N_10  and  C_7 
REMARK    6  A    between atoms: CA_11  and  N_10 
REMARK    7  A    between atoms: CA_11  and  CB_14 
REMARK    8  A    between atoms: C_12  and  CA_11 
REMARK       I    between atoms: N_16  and  C_12 
REMARK    9  A    between atoms: CB_14  and  OG_15 
REMARK   10  A    between atoms: CA_17  and  N_16 
REMARK   11  A    between atoms: CA_17  and  CB_20 
REMARK   12  A    between atoms: C_18  and  CA_17 
REMARK       I    between atoms: N_24  and  C_18 
REMARK   13  A    between atoms: CB_20  and  CG_21 
REMARK   14  A    between atoms: CA_25  and  N_24 
REMARK   15  A    between atoms: C_26  and  CA_25 
REMARK       I    between atoms: N_28  and  C_26 
REMARK   16  A    between atoms: CA_29  and  N_28 
REMARK   17  A    between atoms: CA_29  and  CB_32 
REMARK   18  A    between atoms: C_30  and  CA_29 
REMARK       I    between atoms: N_34  and  C_30 
REMARK   19  A    between atoms: CB_32  and  OG_33 
REMARK   20  A    between atoms: CA_35  and  N_34 
REMARK   21  A    between atoms: C_36  and  CA_35 
REMARK       I    between atoms: N_38  and  C_36 
REMARK   22  A    between atoms: CA_39  and  N_38 
REMARK   23  A    between atoms: CA_39  and  CB_42 
REMARK   24  A    between atoms: C_40  and  CA_39 
REMARK       I    between atoms: N_52  and  C_40 
REMARK   25  A    between atoms: CB_42  and  CG_43 
REMARK   26  A    between atoms: CA_53  and  N_52 
REMARK   27  A    between atoms: CA_53  and  CB_56 
REMARK   28  A    between atoms: C_54  and  CA_53 
REMARK       I    between atoms: N_58  and  C_54 
REMARK   29  A    between atoms: CB_56  and  OG_57 
REMARK   30  A    between atoms: CA_59  and  N_58 
REMARK   31  A    between atoms: CA_59  and  CB_62 
REMARK   32  A    between atoms: C_60  and  CA_59 
REMARK       I    between atoms: N_64  and  C_60 
REMARK   33  A    between atoms: CB_62  and  OG_63 
REMARK   34  A    between atoms: CA_65  and  N_64 
REMARK   35  A    between atoms: CA_65  and  CB_68 
REMARK   36  A    between atoms: C_66  and  CA_65 
REMARK       I    between atoms: N_73  and  C_66 
REMARK   37  A    between atoms: CB_68  and  CG_69 
REMARK   38  A    between atoms: CG_69  and  CD_70 
REMARK   39  A    between atoms: CA_74  and  N_73 
REMARK   40  A    between atoms: CA_74  and  CB_77 
REMARK   41  A    between atoms: C_75  and  CA_74 
REMARK       I    between atoms: N_81  and  C_75 
REMARK   42  A    between atoms: CB_77  and  CG_78 
REMARK       I    between atoms: CG_78  and  ND2_80 
REMARK   43  A    between atoms: CA_82  and  N_81 
REMARK   44  A    between atoms: CA_82  and  CB_85 
REMARK   45  A    between atoms: C_83  and  CA_82 
REMARK       I    between atoms: N_89  and  C_83 
REMARK   46  A    between atoms: CB_85  and  CG_86 
REMARK       I    between atoms: CG_86  and  ND2_88 
REMARK   47  A    between atoms: C_91  and  CA_90 
REMARK       I    between atoms: C_91  and  N_96 
REMARK   48  A    between atoms: N_96  and  CA_97 
REMARK   49  A    between atoms: CA_97  and  CB_100 
REMARK   50  A    between atoms: CA_97  and  C_98 
REMARK   51  A    between atoms: C_98  and  O1_110 
REMARK   52  A    between atoms: CB_100  and  CG_101 
ROOT
ATOM      1  CA  SER d   1      18.866  16.294  62.080  0.00  0.00     0.109 C 
ATOM      2  H42 SER d   1      19.641  15.918  62.765  0.00  0.00     0.090 H 
ENDROOT
BRANCH   1   3
ATOM      3  N   SER d   1      18.595  17.694  62.413  0.00  0.00    -0.344 N 
ATOM      4  C   TRP d   1      19.593  18.532  62.675  0.00  0.00     0.241 C 
ATOM      5  O   TRP d   1      20.764  18.214  62.570  0.00  0.00    -0.271 OA
ATOM      6  H41 SER d   1      17.651  18.023  62.444  0.00  0.00     0.163 HD
BRANCH   4   7
ATOM      7  CA  TRP d   1      19.243  19.922  63.179  0.00  0.00     0.093 C 
ATOM      8  H32 TRP d   1      19.915  20.620  62.659  0.00  0.00     0.088 H 
BRANCH   7   9
ATOM      9  N   TRP d   1      17.872  20.450  62.957  0.00  0.00    -0.346 N 
ATOM     10  C   GLY d   1      17.692  21.770  62.810  0.00  0.00     0.236 C 
ATOM     11  O   GLY d   1      18.632  22.546  62.816  0.00  0.00    -0.272 OA
ATOM     12  H31 TRP d   1      17.091  19.826  62.918  0.00  0.00     0.163 HD
BRANCH  10  13
ATOM     13  CA  GLY d   1      16.274  22.313  62.651  0.00  0.00     0.069 C 
ATOM     14  H29 GLY d   1      16.045  22.974  63.500  0.00  0.00     0.078 H 
ATOM     15  H30 GLY d   1      16.211  22.885  61.714  0.00  0.00     0.078 H 
BRANCH  13  16
ATOM     16  N   GLY d   1      15.303  21.233  62.614  0.00  0.00    -0.350 N 
ATOM     17  C   SER d   1      14.782  20.709  63.714  0.00  0.00     0.242 C 
ATOM     18  O   SER d   1      14.985  21.151  64.831  0.00  0.00    -0.271 OA
ATOM     19  H28 GLY d   1      15.017  20.872  61.726  0.00  0.00     0.163 HD
BRANCH  17  20
ATOM     20  CA  SER d   1      13.875  19.494  63.518  0.00  0.00     0.109 C 
ATOM     21  H24 SER d   1      13.118  19.485  64.316  0.00  0.00     0.090 H 
BRANCH  20  22
ATOM     22  N   SER d   1      13.197  19.585  62.238  0.00  0.00    -0.344 N 
ATOM     23  C   GLY d   1      12.163  20.405  62.075  0.00  0.00     0.236 C 
ATOM     24  O   GLY d   1      11.720  21.105  62.995  0.00  0.00    -0.272 OA
ATOM     25  H23 SER d   1      13.511  19.025  61.471  0.00  0.00     0.163 HD
BRANCH  23  26
ATOM     26  CA  GLY d   1      11.528  20.442  60.693  0.00  0.00     0.069 C 
ATOM     27  H21 GLY d   1      10.440  20.533  60.823  0.00  0.00     0.078 H 
ATOM     28  H22 GLY d   1      11.910  21.331  60.169  0.00  0.00     0.078 H 
BRANCH  26  29
ATOM     29  N   GLY d   1      11.784  19.276  59.847  0.00  0.00    -0.351 N 
ATOM     30  C   ASP d   1      11.353  18.042  60.126  0.00  0.00     0.241 C 
ATOM     31  O   ASP d   1      10.712  17.756  61.134  0.00  0.00    -0.271 OA
ATOM     32  H20 GLY d   1      12.313  19.410  59.009  0.00  0.00     0.163 HD
BRANCH  30  33
ATOM     33  CA  ASP d   1      11.697  16.954  59.114  0.00  0.00     0.098 C 
ATOM     34  H17 ASP d   1      10.736  16.543  58.772  0.00  0.00     0.088 H 
BRANCH  33  35
ATOM     35  N   ASP d   1      12.368  17.452  57.924  0.00  0.00    -0.345 N 
ATOM     36  C   SER d   1      11.670  17.970  56.918  0.00  0.00     0.243 C 
ATOM     37  O   SER d   1      10.432  18.011  56.901  0.00  0.00    -0.271 OA
ATOM     38  H16 ASP d   1      13.365  17.404  57.862  0.00  0.00     0.163 HD
BRANCH  36  39
ATOM     39  CA  SER d   1      12.490  18.561  55.769  0.00  0.00     0.109 C 
ATOM     40  H12 SER d   1      13.462  18.047  55.728  0.00  0.00     0.090 H 
BRANCH  39  41
ATOM     41  N   SER d   1      11.836  18.427  54.467  0.00  0.00    -0.344 N 
ATOM     42  C   ALA d   1      12.529  18.409  53.328  0.00  0.00     0.240 C 
ATOM     43  O   ALA d   1      13.763  18.412  53.285  0.00  0.00    -0.271 OA
ATOM     44  H11 SER d   1      10.840  18.346  54.430  0.00  0.00     0.163 HD
BRANCH  42  45
ATOM     45  CA  ALA d   1      11.696  18.392  52.038  0.00  0.00     0.086 C 
ATOM     46  H7  ALA d   1      10.635  18.374  52.327  0.00  0.00     0.086 H 
BRANCH  45  47
ATOM     47  N   ALA d   1      11.923  19.599  51.234  0.00  0.00    -0.347 N 
ATOM     48  C   GLY d   1      11.786  20.841  51.705  0.00  0.00     0.243 C 
ATOM     49  O   GLY d   1      11.462  21.099  52.869  0.00  0.00    -0.272 OA
ATOM     50  H6  ALA d   1      12.196  19.485  50.279  0.00  0.00     0.163 HD
BRANCH  48  51
ATOM     51  CA  GLY d   1      12.044  21.966  50.716  0.00  0.00     0.152 C 
ATOM     52  H4  GLY d   1      11.553  21.712  49.765  0.00  0.00     0.090 H 
ATOM     53  H5  GLY d   1      11.605  22.890  51.120  0.00  0.00     0.090 H 
BRANCH  51  54
ATOM     54  N   GLY d   1      13.499  22.212  50.446  0.00  0.00    -0.071 N 
ATOM     55  H1  GLY d   1      13.595  22.967  49.785  0.00  0.00     0.274 HD
ATOM     56  H2  GLY d   1      13.916  21.377  50.065  0.00  0.00     0.274 HD
ATOM     57  H3  GLY d   1      13.964  22.457  51.306  0.00  0.00     0.274 HD
ENDBRANCH  51  54
ENDBRANCH  48  51
ENDBRANCH  45  47
BRANCH  45  58
ATOM     58  CB  ALA d   1      11.976  17.148  51.212  0.00  0.00    -0.049 C 
ATOM     59  H8  ALA d   1      11.802  16.253  51.827  0.00  0.00     0.030 H 
ATOM     60  H9  ALA d   1      13.022  17.161  50.872  0.00  0.00     0.030 H 
ATOM     61  H10 ALA d   1      11.307  17.129  50.339  0.00  0.00     0.030 H 
ENDBRANCH  45  58
ENDBRANCH  42  45
ENDBRANCH  39  41
BRANCH  39  62
ATOM     62  CB  SER d   1      12.708  20.054  56.056  0.00  0.00     0.044 C 
ATOM     63  H13 SER d   1      11.772  20.594  55.852  0.00  0.00     0.077 H 
ATOM     64  H14 SER d   1      13.501  20.430  55.393  0.00  0.00     0.077 H 
BRANCH  62  65
ATOM     65  OG  SER d   1      13.089  20.291  57.405  0.00  0.00    -0.398 OA
ATOM     66  H15 SER d   1      13.213  21.223  57.539  0.00  0.00     0.209 HD
ENDBRANCH  62  65
ENDBRANCH  39  62
ENDBRANCH  36  39
ENDBRANCH  33  35
BRANCH  33  67
ATOM     67  CB  ASP d   1      12.464  15.787  59.760  0.00  0.00     0.043 C 
ATOM     68  H18 ASP d   1      12.748  15.080  58.967  0.00  0.00     0.052 H 
ATOM     69  H19 ASP d   1      11.794  15.287  60.475  0.00  0.00     0.052 H 
BRANCH  67  70
ATOM     70  CG  ASP d   1      13.715  16.202  60.495  0.00  0.00     0.175 C 
ATOM     71  OD1 ASP d   1      14.126  17.397  60.477  0.00  0.00    -0.648 OA
ATOM     72  OD2 ASP d   1      14.292  15.281  61.119  0.00  0.00    -0.648 OA
ENDBRANCH  67  70
ENDBRANCH  33  67
ENDBRANCH  30  33
ENDBRANCH  26  29
ENDBRANCH  23  26
ENDBRANCH  20  22
BRANCH  20  73
ATOM     73  CB  SER d   1      14.704  18.201  63.614  0.00  0.00     0.044 C 
ATOM     74  H25 SER d   1      14.025  17.335  63.611  0.00  0.00     0.077 H 
ATOM     75  H26 SER d   1      15.283  18.211  64.549  0.00  0.00     0.077 H 
BRANCH  73  76
ATOM     76  OG  SER d   1      15.590  18.099  62.522  0.00  0.00    -0.398 OA
ATOM     77  H27 SER d   1      15.093  18.088  61.712  0.00  0.00     0.209 HD
ENDBRANCH  73  76
ENDBRANCH  20  73
ENDBRANCH  17  20
ENDBRANCH  13  16
ENDBRANCH  10  13
ENDBRANCH   7   9
BRANCH   7  78
ATOM     78  CB  TRP d   1      19.602  19.934  64.673  0.00  0.00    -0.012 C 
ATOM     79  H33 TRP d   1      19.713  20.979  64.997  0.00  0.00     0.044 H 
ATOM     80  H34 TRP d   1      20.557  19.405  64.807  0.00  0.00     0.044 H 
BRANCH  78  81
ATOM     81  CG  TRP d   1      18.578  19.281  65.530  0.00  0.00    -0.028 A 
ATOM     82  CD1 TRP d   1      17.606  19.916  66.255  0.00  0.00    -0.015 A 
ATOM     83  NE1 TRP d   1      16.843  18.986  66.928  0.00  0.00    -0.365 N 
ATOM     84  H35 TRP d   1      17.458  20.994  66.294  0.00  0.00     0.112 H 
ATOM     85  CE2 TRP d   1      17.310  17.727  66.655  0.00  0.00     0.042 A 
ATOM     86  H36 TRP d   1      16.045  19.204  67.541  0.00  0.00     0.165 HD
ATOM     87  CD2 TRP d   1      18.412  17.869  65.777  0.00  0.00    -0.002 A 
ATOM     88  CZ2 TRP d   1      16.856  16.476  67.106  0.00  0.00    -0.056 A 
ATOM     89  CE3 TRP d   1      19.077  16.712  65.330  0.00  0.00    -0.070 A 
ATOM     90  CZ3 TRP d   1      18.608  15.450  65.778  0.00  0.00    -0.082 A 
ATOM     91  H37 TRP d   1      19.926  16.783  64.660  0.00  0.00     0.084 H 
ATOM     92  CH2 TRP d   1      17.523  15.359  66.673  0.00  0.00    -0.081 A 
ATOM     93  H39 TRP d   1      19.090  14.545  65.428  0.00  0.00     0.083 H 
ATOM     94  H40 TRP d   1      17.209  14.384  67.027  0.00  0.00     0.083 H 
ATOM     95  H38 TRP d   1      16.006  16.397  67.774  0.00  0.00     0.086 H 
ENDBRANCH  78  81
ENDBRANCH   7  78
ENDBRANCH   4   7
ENDBRANCH   1   3
BRANCH   1  96
ATOM     96  CB  SER d   1      17.596  15.453  62.247  0.00  0.00     0.044 C 
ATOM     97  H43 SER d   1      17.070  15.762  63.162  0.00  0.00     0.077 H 
ATOM     98  H44 SER d   1      17.867  14.390  62.321  0.00  0.00     0.077 H 
BRANCH  96  99
ATOM     99  OG  SER d   1      16.745  15.649  61.120  0.00  0.00    -0.398 OA
ATOM    100  H45 SER d   1      15.958  15.127  61.224  0.00  0.00     0.209 HD
ENDBRANCH  96  99
ENDBRANCH   1  96
BRANCH   1 101
ATOM    101  C   SER d   1      19.351  16.132  60.662  0.00  0.00     0.243 C 
ATOM    102  O   SER d   1      19.344  17.083  59.861  0.00  0.00    -0.271 OA
ATOM    103  N   SER d   1      19.699  14.891  60.326  0.00  0.00    -0.344 N 
ATOM    104  H46 SER d   1      19.654  14.167  61.014  0.00  0.00     0.163 HD
BRANCH 103 105
ATOM    105  CA  SER d   1      20.144  14.565  58.977  0.00  0.00     0.109 C 
ATOM    106  H47 SER d   1      20.948  15.263  58.699  0.00  0.00     0.090 H 
BRANCH 105 107
ATOM    107  CB  SER d   1      20.701  13.142  58.962  0.00  0.00     0.044 C 
ATOM    108  H48 SER d   1      21.558  13.081  59.649  0.00  0.00     0.077 H 
ATOM    109  H49 SER d   1      21.030  12.892  57.943  0.00  0.00     0.077 H 
BRANCH 107 110
ATOM    110  OG  SER d   1      19.699  12.212  59.375  0.00  0.00    -0.398 OA
ATOM    111  H50 SER d   1      19.415  12.425  60.256  0.00  0.00     0.209 HD
ENDBRANCH 107 110
ENDBRANCH 105 107
BRANCH 105 112
ATOM    112  C   SER d   1      19.012  14.701  57.946  0.00  0.00     0.243 C 
ATOM    113  O   SER d   1      19.266  14.706  56.749  0.00  0.00    -0.271 OA
ATOM    114  N   GLU d   1      17.768  14.805  58.418  0.00  0.00    -0.346 N 
ATOM    115  H51 GLU d   1      17.628  14.798  59.408  0.00  0.00     0.163 HD
BRANCH 114 116
ATOM    116  CA  GLU d   1      16.606  14.928  57.548  0.00  0.00     0.090 C 
ATOM    117  H52 GLU d   1      16.924  14.710  56.518  0.00  0.00     0.087 H 
BRANCH 116 118
ATOM    118  CB  GLU d   1      15.539  13.900  57.944  0.00  0.00    -0.029 C 
ATOM    119  H53 GLU d   1      14.621  14.112  57.376  0.00  0.00     0.037 H 
ATOM    120  H54 GLU d   1      15.336  14.003  59.020  0.00  0.00     0.037 H 
BRANCH 118 121
ATOM    121  CG  GLU d   1      15.973  12.421  57.657  0.00  0.00     0.018 C 
ATOM    122  H55 GLU d   1      16.801  12.161  58.333  0.00  0.00     0.049 H 
ATOM    123  H56 GLU d   1      16.315  12.352  56.614  0.00  0.00     0.049 H 
BRANCH 121 124
ATOM    124  CD  GLU d   1      14.849  11.427  57.864  0.00  0.00     0.172 C 
ATOM    125  OE2 GLU d   1      14.968  10.284  57.371  0.00  0.00    -0.648 OA
ATOM    126  OE1 GLU d   1      13.851  11.783  58.533  0.00  0.00    -0.648 OA
ENDBRANCH 121 124
ENDBRANCH 118 121
ENDBRANCH 116 118
BRANCH 116 127
ATOM    127  C   GLU d   1      16.047  16.357  57.577  0.00  0.00     0.241 C 
ATOM    128  O   GLU d   1      14.958  16.619  57.065  0.00  0.00    -0.271 OA
ATOM    129  N   ASN d   1      16.800  17.279  58.171  0.00  0.00    -0.346 N 
ATOM    130  H57 ASN d   1      17.649  17.001  58.620  0.00  0.00     0.163 HD
BRANCH 129 131
ATOM    131  CA  ASN d   1      16.416  18.686  58.182  0.00  0.00     0.097 C 
ATOM    132  H58 ASN d   1      15.321  18.770  58.240  0.00  0.00     0.088 H 
BRANCH 131 133
ATOM    133  CB  ASN d   1      17.038  19.425  59.372  0.00  0.00     0.036 C 
ATOM    134  H59 ASN d   1      18.125  19.498  59.218  0.00  0.00     0.051 H 
ATOM    135  H60 ASN d   1      16.836  18.855  60.291  0.00  0.00     0.051 H 
BRANCH 133 136
ATOM    136  CG  ASN d   1      16.467  20.826  59.526  0.00  0.00     0.217 C 
ATOM    137  ND2 ASN d   1      17.278  21.835  59.221  0.00  0.00    -0.370 N 
ATOM    138  H61 ASN d   1      16.956  22.778  59.303  0.00  0.00     0.159 HD
ATOM    139  H62 ASN d   1      18.210  21.651  58.909  0.00  0.00     0.159 HD
ATOM    140  OD1 ASN d   1      15.288  20.987  59.870  0.00  0.00    -0.274 OA
ENDBRANCH 133 136
ENDBRANCH 131 133
BRANCH 131 141
ATOM    141  C   ASN d   1      16.915  19.289  56.872  0.00  0.00     0.241 C 
ATOM    142  O   ASN d   1      18.121  19.441  56.662  0.00  0.00    -0.271 OA
ATOM    143  N   ASN d   1      16.018  19.607  55.965  0.00  0.00    -0.346 N 
ATOM    144  H63 ASN d   1      15.043  19.504  56.161  0.00  0.00     0.163 HD
BRANCH 143 145
ATOM    145  CA  ASN d   1      16.466  20.120  54.648  0.00  0.00     0.097 C 
ATOM    146  H64 ASN d   1      15.696  19.840  53.914  0.00  0.00     0.088 H 
BRANCH 145 147
ATOM    147  CB  ASN d   1      16.540  21.662  54.698  0.00  0.00     0.036 C 
ATOM    148  H65 ASN d   1      17.498  21.953  55.153  0.00  0.00     0.051 H 
ATOM    149  H66 ASN d   1      15.712  22.034  55.319  0.00  0.00     0.051 H 
BRANCH 147 150
ATOM    150  CG  ASN d   1      16.440  22.305  53.316  0.00  0.00     0.217 C 
ATOM    151  ND2 ASN d   1      16.875  23.558  53.218  0.00  0.00    -0.370 N 
ATOM    152  H67 ASN d   1      16.836  24.034  52.339  0.00  0.00     0.159 HD
ATOM    153  H68 ASN d   1      17.241  24.024  54.023  0.00  0.00     0.159 HD
ATOM    154  OD1 ASN d   1      15.942  21.700  52.362  0.00  0.00    -0.274 OA
ENDBRANCH 147 150
ENDBRANCH 145 147
BRANCH 145 155
ATOM    155  C   ASN d   1      17.826  19.525  54.133  0.00  0.00     0.243 C 
ATOM    156  O   ASN d   1      18.794  20.264  53.925  0.00  0.00    -0.271 OA
ATOM    157  N   PRO d   1      17.913  18.185  53.923  0.00  0.00    -0.337 N 
ATOM    158  CA  PRO d   1      19.200  17.685  53.434  0.00  0.00     0.091 C 
ATOM    159  CD  PRO d   1      16.947  17.086  54.102  0.00  0.00    -0.001 C 
ATOM    160  CB  PRO d   1      19.035  16.171  53.511  0.00  0.00    -0.036 C 
ATOM    161  H69 PRO d   1      20.011  18.031  54.092  0.00  0.00     0.087 H 
ATOM    162  CG  PRO d   1      17.598  15.949  53.370  0.00  0.00    -0.048 C 
ATOM    163  H70 PRO d   1      19.394  15.790  54.479  0.00  0.00     0.036 H 
ATOM    164  H71 PRO d   1      19.586  15.678  52.696  0.00  0.00     0.036 H 
ATOM    165  H72 PRO d   1      17.309  15.959  52.309  0.00  0.00     0.035 H 
ATOM    166  H73 PRO d   1      17.311  14.987  53.819  0.00  0.00     0.035 H 
ATOM    167  H74 PRO d   1      15.973  17.338  53.657  0.00  0.00     0.064 H 
ATOM    168  H75 PRO d   1      16.812  16.846  55.167  0.00  0.00     0.064 H 
BRANCH 158 169
ATOM    169  C   PRO d   1      19.539  18.072  51.984  0.00  0.00     0.241 C 
ATOM    170  O   PRO d   1      20.709  18.153  51.633  0.00  0.00    -0.271 OA
ATOM    171  N   TRP d   1      18.531  18.324  51.164  0.00  0.00    -0.345 N 
ATOM    172  H76 TRP d   1      17.595  18.334  51.516  0.00  0.00     0.163 HD
BRANCH 171 173
ATOM    173  CA  TRP d   1      18.775  18.586  49.758  0.00  0.00     0.097 C 
ATOM    174  H77 TRP d   1      19.800  18.253  49.539  0.00  0.00     0.089 H 
BRANCH 173 175
ATOM    175  CB  TRP d   1      17.821  17.751  48.904  0.00  0.00    -0.011 C 
ATOM    176  H78 TRP d   1      17.993  18.003  47.847  0.00  0.00     0.044 H 
ATOM    177  H79 TRP d   1      16.790  18.015  49.181  0.00  0.00     0.044 H 
BRANCH 175 178
ATOM    178  CG  TRP d   1      17.987  16.268  49.067  0.00  0.00    -0.028 A 
ATOM    179  CD1 TRP d   1      17.118  15.405  49.680  0.00  0.00    -0.015 A 
ATOM    180  NE1 TRP d   1      17.611  14.115  49.622  0.00  0.00    -0.365 N 
ATOM    181  H80 TRP d   1      16.176  15.693  50.145  0.00  0.00     0.112 H 
ATOM    182  CE2 TRP d   1      18.821  14.133  48.966  0.00  0.00     0.042 A 
ATOM    183  H81 TRP d   1      17.149  13.278  50.006  0.00  0.00     0.165 HD
ATOM    184  CD2 TRP d   1      19.089  15.468  48.601  0.00  0.00    -0.002 A 
ATOM    185  CZ2 TRP d   1      19.693  13.075  48.650  0.00  0.00    -0.056 A 
ATOM    186  CE3 TRP d   1      20.284  15.758  47.921  0.00  0.00    -0.070 A 
ATOM    187  CZ3 TRP d   1      21.163  14.699  47.608  0.00  0.00    -0.082 A 
ATOM    188  H82 TRP d   1      20.526  16.777  47.642  0.00  0.00     0.084 H 
ATOM    189  CH2 TRP d   1      20.857  13.378  47.984  0.00  0.00    -0.081 A 
ATOM    190  H84 TRP d   1      22.083  14.905  47.073  0.00  0.00     0.083 H 
ATOM    191  H85 TRP d   1      21.553  12.583  47.744  0.00  0.00     0.083 H 
ATOM    192  H83 TRP d   1      19.455  12.053  48.923  0.00  0.00     0.086 H 
ENDBRANCH 175 178
ENDBRANCH 173 175
BRANCH 173 193
ATOM    193  C   TRP d   1      18.696  20.071  49.377  0.00  0.00     0.163 C 
ATOM    194  O   TRP d   1      17.617  20.676  49.439  0.00  0.00    -0.648 OA
BRANCH 193 195
ATOM    195  O1  TRP d   1      19.792  20.711  48.978  0.00  0.00    -0.775 OA
ATOM    196  H86 TRP d   1      19.661  21.042  48.098  0.00  0.00     0.167 HD
ENDBRANCH 193 195
ENDBRANCH 173 193
ENDBRANCH 171 173
ENDBRANCH 158 169
ENDBRANCH 145 155
ENDBRANCH 143 145
ENDBRANCH 131 141
ENDBRANCH 129 131
ENDBRANCH 116 127
ENDBRANCH 114 116
ENDBRANCH 105 112
ENDBRANCH 103 105
ENDBRANCH   1 101
TORSDOF 52
