REMARK  14 active torsions:
REMARK  status: ('A' for Active; 'I' for Inactive)
REMARK    1  A    between atoms: N19_19  and  C5_3 
REMARK    2  A    between atoms: C3_5  and  N7_17 
REMARK    3  A    between atoms: C10_7  and  C33_33 
REMARK    4  A    between atoms: N7_17  and  C8_9 
REMARK    5  A    between atoms: N7_17  and  C16_12 
REMARK    6  A    between atoms: C20_14  and  N19_19 
REMARK    7  A    between atoms: C23_21  and  O26_24 
REMARK    8  A    between atoms: O26_24  and  C27_25 
REMARK    9  A    between atoms: C27_25  and  C28_26 
REMARK   10  A    between atoms: C28_26  and  C29_27 
REMARK   11  A    between atoms: C28_26  and  O33_31 
REMARK   12  A    between atoms: C29_27  and  N30_28 
REMARK   13  A    between atoms: N30_28  and  C31_29 
REMARK   14  A    between atoms: N30_28  and  C32_30 
ROOT
ATOM      1  C17 QQ2 d   1       8.643  47.655  53.811  0.00  0.00     0.079 C 
ATOM      2  C16 QQ2 d   1       7.788  47.810  52.583  0.00  0.00     0.080 C 
ATOM      3  N18 QQ2 d   1       9.349  47.552  54.769  0.00  0.00    -0.196 NA
ATOM      4  H7  QQ2 d   1       8.425  48.140  51.749  0.00  0.00     0.087 H 
ATOM      5  H8  QQ2 d   1       7.020  48.572  52.782  0.00  0.00     0.087 H 
ENDROOT
BRANCH   2   6
ATOM      6  N7  QQ2 d   1       7.115  46.545  52.197  0.00  0.00    -0.317 N 
BRANCH   6   7
ATOM      7  C3  QQ2 d   1       7.742  45.625  51.384  0.00  0.00     0.136 A 
ATOM      8  C4  QQ2 d   1       7.057  44.598  50.699  0.00  0.00     0.006 A 
ATOM      9  C5  QQ2 d   1       7.754  43.670  49.894  0.00  0.00     0.133 A 
ATOM     10  H3  QQ2 d   1       5.980  44.520  50.792  0.00  0.00     0.095 H 
ATOM     11  N6  QQ2 d   1       9.086  43.804  49.790  0.00  0.00    -0.224 NA
ATOM     12  C1  QQ2 d   1       9.721  44.776  50.454  0.00  0.00     0.091 A 
ATOM     13  N2  QQ2 d   1       9.081  45.670  51.226  0.00  0.00    -0.224 NA
ATOM     14  H2  QQ2 d   1      10.799  44.846  50.365  0.00  0.00     0.146 H 
BRANCH   9  15
ATOM     15  N19 QQ2 d   1       7.149  42.607  49.172  0.00  0.00    -0.341 N 
ATOM     16  H9  QQ2 d   1       7.743  42.129  48.479  0.00  0.00     0.167 HD
BRANCH  15  17
ATOM     17  C20 QQ2 d   1       5.868  42.147  49.293  0.00  0.00     0.033 A 
ATOM     18  C21 QQ2 d   1       5.174  42.253  50.495  0.00  0.00    -0.055 A 
ATOM     19  C22 QQ2 d   1       3.868  41.776  50.557  0.00  0.00    -0.049 A 
ATOM     20  H10 QQ2 d   1       5.642  42.698  51.366  0.00  0.00     0.087 H 
ATOM     21  C23 QQ2 d   1       3.229  41.196  49.455  0.00  0.00     0.069 A 
ATOM     22  H1  QQ2 d   1       3.326  41.857  51.492  0.00  0.00     0.087 H 
ATOM     23  C24 QQ2 d   1       3.935  41.089  48.251  0.00  0.00    -0.049 A 
ATOM     24  C25 QQ2 d   1       5.257  41.568  48.195  0.00  0.00    -0.055 A 
ATOM     25  H11 QQ2 d   1       3.472  40.645  47.377  0.00  0.00     0.087 H 
ATOM     26  H12 QQ2 d   1       5.811  41.481  47.267  0.00  0.00     0.087 H 
BRANCH  21  27
ATOM     27  O26 QQ2 d   1       1.932  40.744  49.622  0.00  0.00    -0.349 OA
BRANCH  27  28
ATOM     28  C27 QQ2 d   1       1.129  40.212  48.562  0.00  0.00     0.051 C 
ATOM     29  H13 QQ2 d   1       1.451  39.175  48.386  0.00  0.00     0.079 H 
ATOM     30  H14 QQ2 d   1       1.321  40.814  47.662  0.00  0.00     0.079 H 
BRANCH  28  31
ATOM     31  C28 QQ2 d   1      -0.402  40.196  48.801  0.00  0.00     0.080 C 
ATOM     32  H15 QQ2 d   1      -0.728  39.152  48.681  0.00  0.00     0.088 H 
BRANCH  31  33
ATOM     33  C29 QQ2 d   1      -0.906  40.649  50.190  0.00  0.00     0.108 C 
ATOM     34  H16 QQ2 d   1      -0.573  41.680  50.382  0.00  0.00     0.080 H 
ATOM     35  H17 QQ2 d   1      -0.498  39.982  50.963  0.00  0.00     0.080 H 
BRANCH  33  36
ATOM     36  N30 QQ2 d   1      -2.404  40.594  50.223  0.00  0.00    -0.076 N 
ATOM     37  H18 QQ2 d   1      -2.462  40.890  49.261  0.00  0.00     0.279 HD
BRANCH  36  38
ATOM     38  C31 QQ2 d   1      -3.175  41.746  50.699  0.00  0.00     0.066 C 
ATOM     39  H19 QQ2 d   1      -4.249  41.515  50.648  0.00  0.00     0.068 H 
ATOM     40  H20 QQ2 d   1      -2.958  42.619  50.066  0.00  0.00     0.068 H 
ATOM     41  H21 QQ2 d   1      -2.897  41.969  51.740  0.00  0.00     0.068 H 
ENDBRANCH  36  38
BRANCH  36  42
ATOM     42  C32 QQ2 d   1      -3.162  39.369  49.953  0.00  0.00     0.066 C 
ATOM     43  H22 QQ2 d   1      -2.476  38.583  49.604  0.00  0.00     0.068 H 
ATOM     44  H23 QQ2 d   1      -3.916  39.568  49.178  0.00  0.00     0.068 H 
ATOM     45  H24 QQ2 d   1      -3.662  39.037  50.875  0.00  0.00     0.068 H 
ENDBRANCH  36  42
ENDBRANCH  33  36
ENDBRANCH  31  33
BRANCH  31  46
ATOM     46  O33 QQ2 d   1      -1.028  40.979  47.766  0.00  0.00    -0.392 OA
ATOM     47  H25 QQ2 d   1      -0.711  40.692  46.918  0.00  0.00     0.210 HD
ENDBRANCH  31  46
ENDBRANCH  28  31
ENDBRANCH  27  28
ENDBRANCH  21  27
ENDBRANCH  15  17
ENDBRANCH   9  15
ENDBRANCH   6   7
BRANCH   6  48
ATOM     48  C8  QQ2 d   1       5.838  46.291  52.665  0.00  0.00     0.059 A 
ATOM     49  C9  QQ2 d   1       4.743  46.727  51.912  0.00  0.00    -0.050 A 
ATOM     50  C10 QQ2 d   1       3.434  46.478  52.348  0.00  0.00    -0.060 A 
ATOM     51  H5  QQ2 d   1       4.908  47.262  50.984  0.00  0.00     0.087 H 
ATOM     52  C11 QQ2 d   1       3.192  45.811  53.544  0.00  0.00    -0.075 A 
ATOM     53  C12 QQ2 d   1       4.264  45.364  54.311  0.00  0.00    -0.059 A 
ATOM     54  H4  QQ2 d   1       2.175  45.640  53.877  0.00  0.00     0.084 H 
ATOM     55  C13 QQ2 d   1       5.560  45.602  53.867  0.00  0.00     0.061 A 
ATOM     56  H6  QQ2 d   1       4.091  44.837  55.242  0.00  0.00     0.086 H 
ATOM     57 CL1  QQ2 d   1       6.836  44.978  54.925  0.00  0.00    -0.082 Cl
BRANCH  50  58
ATOM     58  C33 QQ2 d   1       2.277  46.950  51.519  0.00  0.00    -0.051 C 
ATOM     59  H26 QQ2 d   1       1.334  46.669  52.011  0.00  0.00     0.033 H 
ATOM     60  H27 QQ2 d   1       2.324  46.483  50.524  0.00  0.00     0.033 H 
ATOM     61  H28 QQ2 d   1       2.324  48.044  51.413  0.00  0.00     0.033 H 
ENDBRANCH  50  58
ENDBRANCH   6  48
ENDBRANCH   2   6
TORSDOF 14
