REMARK  7 active torsions:
REMARK  status: ('A' for Active; 'I' for Inactive)
REMARK    1  A    between atoms: N2_23  and  C2_1 
REMARK    2  A    between atoms: C10_3  and  C11_4 
REMARK    3  A    between atoms: O6_17  and  C10_3 
REMARK    4  A    between atoms: C20_11  and  S23_26 
REMARK    5  A    between atoms: S23_26  and  N26_14 
REMARK    6  A    between atoms: C6_16  and  O6_17 
REMARK    7  A    between atoms: N2_23  and  C17_24 
ROOT
ATOM      1  C2  4SP d   1       8.222  44.029  50.023  0.00  0.00     0.731 A 
ATOM      2  C8  4SP d   1      11.025  46.800  52.187  0.00  0.00     0.066 A 
ATOM      3  N1  4SP d   1       7.293  44.703  50.750  0.00  0.00    -0.035 NA
ATOM      4  C6  4SP d   1       7.616  45.697  51.613  0.00  0.00     0.216 A 
ATOM      5  C5  4SP d   1       9.020  46.068  51.762  0.00  0.00     0.158 A 
ATOM      6  N7  4SP d   1       9.707  46.964  52.494  0.00  0.00    -0.236 NA
ATOM      7  N9  4SP d   1      11.166  45.794  51.267  0.00  0.00    -0.333 N 
ATOM      8  C4  4SP d   1       9.913  45.350  50.989  0.00  0.00     0.181 A 
ATOM      9  N3  4SP d   1       9.534  44.358  50.144  0.00  0.00    -0.042 NA
ATOM     10  H1  4SP d   1      11.843  47.381  52.609  0.00  0.00     0.143 H 
ATOM     11  H20 4SP d   1      12.048  45.444  50.866  0.00  0.00     0.168 HD
ENDROOT
BRANCH   4  12
ATOM     12  O6  4SP d   1       6.650  46.333  52.311  0.00  0.00    -0.332 OA
BRANCH  12  13
ATOM     13  C10 4SP d   1       5.295  46.030  52.011  0.00  0.00     0.031 C 
ATOM     14  H2  4SP d   1       5.003  46.540  51.081  0.00  0.00     0.075 H 
ATOM     15  H3  4SP d   1       5.182  44.943  51.884  0.00  0.00     0.075 H 
BRANCH  13  16
ATOM     16  C11 4SP d   1       4.412  46.498  53.138  0.00  0.00    -0.033 C 
ATOM     17  C12 4SP d   1       2.966  46.202  52.720  0.00  0.00    -0.060 C 
ATOM     18  C13 4SP d   1       1.972  46.430  53.861  0.00  0.00    -0.065 C 
ATOM     19  H5  4SP d   1       2.899  45.153  52.397  0.00  0.00     0.033 H 
ATOM     20  H6  4SP d   1       2.699  46.861  51.881  0.00  0.00     0.033 H 
ATOM     21  C14 4SP d   1       2.407  45.738  55.152  0.00  0.00    -0.065 C 
ATOM     22  H7  4SP d   1       0.991  46.034  53.560  0.00  0.00     0.033 H 
ATOM     23  H8  4SP d   1       1.890  47.511  54.049  0.00  0.00     0.033 H 
ATOM     24  C15 4SP d   1       3.842  46.155  55.526  0.00  0.00    -0.065 C 
ATOM     25  H9  4SP d   1       2.372  44.648  55.009  0.00  0.00     0.033 H 
ATOM     26  H10 4SP d   1       1.723  46.023  55.965  0.00  0.00     0.033 H 
ATOM     27  C16 4SP d   1       4.815  45.757  54.427  0.00  0.00    -0.060 C 
ATOM     28  H11 4SP d   1       4.131  45.657  56.463  0.00  0.00     0.033 H 
ATOM     29  H12 4SP d   1       3.878  47.246  55.664  0.00  0.00     0.033 H 
ATOM     30  H13 4SP d   1       5.838  46.040  54.715  0.00  0.00     0.033 H 
ATOM     31  H14 4SP d   1       4.767  44.670  54.263  0.00  0.00     0.033 H 
ATOM     32  H4  4SP d   1       4.535  47.580  53.292  0.00  0.00     0.043 H 
ENDBRANCH  13  16
ENDBRANCH  12  13
ENDBRANCH   4  12
BRANCH   1  33
ATOM     33  N2  4SP d   1       7.818  43.032  49.171  0.00  0.00    -0.188 N 
ATOM     34  H21 4SP d   1       8.498  42.771  48.443  0.00  0.00     0.184 HD
BRANCH  33  35
ATOM     35  C17 4SP d   1       6.635  42.331  49.150  0.00  0.00     0.049 A 
ATOM     36  C22 4SP d   1       6.339  41.551  48.021  0.00  0.00    -0.055 A 
ATOM     37  C21 4SP d   1       5.158  40.804  47.943  0.00  0.00    -0.058 A 
ATOM     38  H17 4SP d   1       7.039  41.527  47.194  0.00  0.00     0.087 H 
ATOM     39  C20 4SP d   1       4.229  40.811  49.005  0.00  0.00     0.079 A 
ATOM     40  H16 4SP d   1       4.955  40.214  47.057  0.00  0.00     0.086 H 
ATOM     41  C19 4SP d   1       4.535  41.591  50.131  0.00  0.00    -0.058 A 
ATOM     42  C18 4SP d   1       5.722  42.330  50.205  0.00  0.00    -0.055 A 
ATOM     43  H15 4SP d   1       3.838  41.622  50.961  0.00  0.00     0.086 H 
ATOM     44  H22 4SP d   1       5.935  42.910  51.096  0.00  0.00     0.087 H 
BRANCH  39  45
ATOM     45  S23 4SP d   1       2.861  39.935  48.911  0.00  0.00     0.256 S 
ATOM     46  O24 4SP d   1       3.065  38.593  49.507  0.00  0.00    -0.201 OA
ATOM     47  O25 4SP d   1       2.552  39.769  47.476  0.00  0.00    -0.201 OA
BRANCH  45  48
ATOM     48  N26 4SP d   1       1.691  40.551  49.659  0.00  0.00    -0.324 N 
ATOM     49  H18 4SP d   1       0.803  40.091  49.664  0.00  0.00     0.169 HD
ATOM     50  H19 4SP d   1       1.809  41.416  50.146  0.00  0.00     0.169 HD
ENDBRANCH  45  48
ENDBRANCH  39  45
ENDBRANCH  33  35
ENDBRANCH   1  33
TORSDOF 7
