REMARK  7 active torsions:
REMARK  status: ('A' for Active; 'I' for Inactive)
REMARK    1  A    between atoms: N2_23  and  C2_1 
REMARK    2  A    between atoms: C10_3  and  C11_4 
REMARK    3  A    between atoms: O6_17  and  C10_3 
REMARK    4  A    between atoms: C20_11  and  S23_26 
REMARK    5  A    between atoms: S23_26  and  N26_14 
REMARK    6  A    between atoms: C6_16  and  O6_17 
REMARK    7  A    between atoms: N2_23  and  C17_24 
ROOT
ATOM      1  C2  NON d   1       7.790  43.729  49.842  0.00  0.00     0.731 A 
ATOM      2  C8  NON d   1      10.664  46.381  51.993  0.00  0.00     0.066 A 
ATOM      3  N1  NON d   1       6.868  44.397  50.581  0.00  0.00    -0.035 NA
ATOM      4  C6  NON d   1       7.228  45.372  51.453  0.00  0.00     0.216 A 
ATOM      5  C5  NON d   1       8.656  45.701  51.595  0.00  0.00     0.158 A 
ATOM      6  N7  NON d   1       9.364  46.576  52.334  0.00  0.00    -0.236 NA
ATOM      7  N9  NON d   1      10.788  45.388  51.062  0.00  0.00    -0.333 N 
ATOM      8  C4  NON d   1       9.531  44.979  50.807  0.00  0.00     0.181 A 
ATOM      9  N3  NON d   1       9.119  44.007  49.957  0.00  0.00    -0.042 NA
ATOM     10  H1  NON d   1      11.499  46.943  52.408  0.00  0.00     0.143 H 
ATOM     11  H20 NON d   1      11.658  45.029  50.644  0.00  0.00     0.168 HD
ENDROOT
BRANCH   4  12
ATOM     12  O6  NON d   1       6.287  46.029  52.184  0.00  0.00    -0.332 OA
BRANCH  12  13
ATOM     13  C10 NON d   1       4.938  45.744  51.842  0.00  0.00     0.031 C 
ATOM     14  H2  NON d   1       4.626  46.387  51.006  0.00  0.00     0.075 H 
ATOM     15  H3  NON d   1       4.848  44.688  51.546  0.00  0.00     0.075 H 
BRANCH  13  16
ATOM     16  C11 NON d   1       4.058  46.011  53.044  0.00  0.00    -0.033 C 
ATOM     17  C12 NON d   1       2.618  45.596  52.719  0.00  0.00    -0.060 C 
ATOM     18  C13 NON d   1       1.705  45.836  53.921  0.00  0.00    -0.065 C 
ATOM     19  H5  NON d   1       2.600  44.527  52.459  0.00  0.00     0.033 H 
ATOM     20  H6  NON d   1       2.255  46.188  51.866  0.00  0.00     0.033 H 
ATOM     21  C14 NON d   1       2.277  45.304  55.236  0.00  0.00    -0.065 C 
ATOM     22  H7  NON d   1       0.743  45.337  53.733  0.00  0.00     0.033 H 
ATOM     23  H8  NON d   1       1.543  46.919  54.025  0.00  0.00     0.033 H 
ATOM     24  C15 NON d   1       3.734  45.726  55.446  0.00  0.00    -0.065 C 
ATOM     25  H9  NON d   1       2.224  44.205  55.226  0.00  0.00     0.033 H 
ATOM     26  H10 NON d   1       1.672  45.693  56.068  0.00  0.00     0.033 H 
ATOM     27  C16 NON d   1       4.576  45.256  54.272  0.00  0.00    -0.060 C 
ATOM     28  H11 NON d   1       4.116  45.275  56.374  0.00  0.00     0.033 H 
ATOM     29  H12 NON d   1       3.790  46.822  55.521  0.00  0.00     0.033 H 
ATOM     30  H13 NON d   1       5.636  45.492  54.445  0.00  0.00     0.033 H 
ATOM     31  H14 NON d   1       4.460  44.172  54.130  0.00  0.00     0.033 H 
ATOM     32  H4  NON d   1       4.075  47.089  53.264  0.00  0.00     0.043 H 
ENDBRANCH  13  16
ENDBRANCH  12  13
ENDBRANCH   4  12
BRANCH   1  33
ATOM     33  N2  NON d   1       7.390  42.767  48.984  0.00  0.00    -0.188 N 
ATOM     34  H21 NON d   1       8.063  42.506  48.249  0.00  0.00     0.184 HD
BRANCH  33  35
ATOM     35  C17 NON d   1       6.203  42.101  48.974  0.00  0.00     0.049 A 
ATOM     36  C22 NON d   1       5.866  41.439  47.802  0.00  0.00    -0.055 A 
ATOM     37  C21 NON d   1       4.664  40.721  47.711  0.00  0.00    -0.058 A 
ATOM     38  H17 NON d   1       6.536  41.477  46.951  0.00  0.00     0.087 H 
ATOM     39  C20 NON d   1       3.792  40.640  48.797  0.00  0.00     0.079 A 
ATOM     40  H16 NON d   1       4.409  40.222  46.783  0.00  0.00     0.086 H 
ATOM     41  C19 NON d   1       4.130  41.312  49.979  0.00  0.00    -0.058 A 
ATOM     42  C18 NON d   1       5.336  42.023  50.080  0.00  0.00    -0.055 A 
ATOM     43  H15 NON d   1       3.453  41.282  50.825  0.00  0.00     0.086 H 
ATOM     44  H22 NON d   1       5.600  42.512  51.011  0.00  0.00     0.087 H 
BRANCH  39  45
ATOM     45  S23 NON d   1       2.406  39.804  48.654  0.00  0.00     0.256 S 
ATOM     46  O24 NON d   1       2.667  38.371  48.894  0.00  0.00    -0.201 OA
ATOM     47  O25 NON d   1       1.851  40.006  47.315  0.00  0.00    -0.201 OA
BRANCH  45  48
ATOM     48  N26 NON d   1       1.384  40.300  49.664  0.00  0.00    -0.324 N 
ATOM     49  H18 NON d   1       0.476  39.883  49.702  0.00  0.00     0.169 HD
ATOM     50  H19 NON d   1       1.620  41.043  50.291  0.00  0.00     0.169 HD
ENDBRANCH  45  48
ENDBRANCH  39  45
ENDBRANCH  33  35
ENDBRANCH   1  33
TORSDOF 7
