REMARK  2 active torsions:
REMARK  status: ('A' for Active; 'I' for Inactive)
REMARK    1  A    between atoms: C3_4  and  O3_19 
REMARK    2  A    between atoms: C5_6  and  O4_20 
ROOT
ATOM      1  C1  NP4 d   1      18.465 -34.929 -60.303  0.00  0.00     0.296 C 
ATOM      2  C2  NP4 d   1      18.425 -33.953 -59.161  0.00  0.00     0.081 A 
ATOM      3  O10 NP4 d   1      19.727 -35.197 -60.969  0.00  0.00    -0.317 OA
ATOM      4  C3  NP4 d   1      17.464 -32.954 -59.134  0.00  0.00     0.085 A 
ATOM      5  C4  NP4 d   1      17.429 -32.048 -58.084  0.00  0.00    -0.016 A 
ATOM      6  C5  NP4 d   1      18.379 -32.153 -57.061  0.00  0.00     0.090 A 
ATOM      7  C6  NP4 d   1      19.338 -33.140 -57.089  0.00  0.00     0.075 A 
ATOM      8  C7  NP4 d   1      19.375 -34.040 -58.135  0.00  0.00    -0.008 A 
ATOM      9  C8  NP4 d   1      20.415 -35.138 -58.185  0.00  0.00     0.017 C 
ATOM     10  C9  NP4 d   1      21.705 -34.713 -58.854  0.00  0.00     0.131 C 
ATOM     11  C10 NP4 d   1      21.906 -33.298 -59.339  0.00  0.00    -0.009 C 
ATOM     12  C11 NP4 d   1      23.001 -33.273 -60.403  0.00  0.00    -0.056 C 
ATOM     13  C12 NP4 d   1      22.417 -33.252 -61.810  0.00  0.00    -0.050 C 
ATOM     14  C13 NP4 d   1      22.732 -34.564 -62.486  0.00  0.00    -0.106 C 
ATOM     15  C14 NP4 d   1      21.791 -35.242 -63.141  0.00  0.00    -0.105 C 
ATOM     16  C15 NP4 d   1      20.380 -34.718 -63.233  0.00  0.00    -0.030 C 
ATOM     17  C16 NP4 d   1      19.478 -35.546 -62.330  0.00  0.00     0.032 C 
ATOM     18  O1  NP4 d   1      17.456 -35.507 -60.683  0.00  0.00    -0.259 OA
ATOM     19 CL1  NP4 d   1      20.400 -33.214 -55.891  0.00  0.00    -0.081 Cl
ATOM     20  O5  NP4 d   1      22.601 -35.529 -59.013  0.00  0.00    -0.298 OA
ATOM     21  H1  NP4 d   1      16.676 -31.269 -58.056  0.00  0.00     0.092 H 
ATOM     22  H2  NP4 d   1      19.997 -35.989 -58.742  0.00  0.00     0.051 H 
ATOM     23  H3  NP4 d   1      20.643 -35.450 -57.155  0.00  0.00     0.051 H 
ATOM     24  H4  NP4 d   1      22.202 -32.660 -58.494  0.00  0.00     0.044 H 
ATOM     25  H5  NP4 d   1      20.967 -32.922 -59.771  0.00  0.00     0.044 H 
ATOM     26  H6  NP4 d   1      23.628 -34.169 -60.291  0.00  0.00     0.034 H 
ATOM     27  H7  NP4 d   1      23.618 -32.373 -60.259  0.00  0.00     0.034 H 
ATOM     28  H8  NP4 d   1      22.862 -32.425 -62.383  0.00  0.00     0.038 H 
ATOM     29  H9  NP4 d   1      21.327 -33.116 -61.756  0.00  0.00     0.038 H 
ATOM     30  H10 NP4 d   1      23.744 -34.963 -62.438  0.00  0.00     0.076 H 
ATOM     31  H11 NP4 d   1      22.044 -36.188 -63.617  0.00  0.00     0.076 H 
ATOM     32  H12 NP4 d   1      20.027 -34.792 -64.272  0.00  0.00     0.042 H 
ATOM     33  H13 NP4 d   1      20.357 -33.666 -62.911  0.00  0.00     0.042 H 
ATOM     34  H14 NP4 d   1      18.425 -35.342 -62.575  0.00  0.00     0.075 H 
ATOM     35  H15 NP4 d   1      19.689 -36.615 -62.480  0.00  0.00     0.075 H 
ENDROOT
BRANCH   4  36
ATOM     36  O3  NP4 d   1      16.541 -32.856 -60.132  0.00  0.00    -0.360 OA
ATOM     37  H16 NP4 d   1      16.695 -33.541 -60.772  0.00  0.00     0.217 HD
ENDBRANCH   4  36
BRANCH   6  38
ATOM     38  O4  NP4 d   1      18.346 -31.270 -56.035  0.00  0.00    -0.359 OA
ATOM     39  H17 NP4 d   1      17.630 -30.660 -56.167  0.00  0.00     0.217 HD
ENDBRANCH   6  38
TORSDOF 2
