REMARK  2 active torsions:
REMARK  status: ('A' for Active; 'I' for Inactive)
REMARK    1  A    between atoms: C3_4  and  O3_19 
REMARK    2  A    between atoms: C5_6  and  O4_20 
ROOT
ATOM      1  C1  NP5 d   1      18.505 -35.207  -5.672  0.00  0.00     0.296 C 
ATOM      2  O10 NP5 d   1      19.772 -35.651  -6.231  0.00  0.00    -0.317 OA
ATOM      3  C2  NP5 d   1      18.516 -34.216  -4.547  0.00  0.00     0.081 A 
ATOM      4  C3  NP5 d   1      17.624 -33.157  -4.531  0.00  0.00     0.085 A 
ATOM      5  C4  NP5 d   1      17.645 -32.243  -3.485  0.00  0.00    -0.016 A 
ATOM      6  C5  NP5 d   1      18.566 -32.381  -2.456  0.00  0.00     0.090 A 
ATOM      7  C6  NP5 d   1      19.460 -33.442  -2.481  0.00  0.00     0.075 A 
ATOM      8  C7  NP5 d   1      19.441 -34.354  -3.524  0.00  0.00    -0.008 A 
ATOM      9  C8  NP5 d   1      20.427 -35.499  -3.529  0.00  0.00     0.017 C 
ATOM     10  C9  NP5 d   1      21.794 -35.065  -4.015  0.00  0.00     0.131 C 
ATOM     11  C10 NP5 d   1      22.203 -33.606  -4.036  0.00  0.00    -0.009 C 
ATOM     12  C11 NP5 d   1      21.884 -32.917  -5.365  0.00  0.00    -0.056 C 
ATOM     13  C12 NP5 d   1      22.808 -33.343  -6.504  0.00  0.00    -0.050 C 
ATOM     14  C13 NP5 d   1      21.982 -34.199  -7.431  0.00  0.00    -0.106 C 
ATOM     15  C14 NP5 d   1      21.878 -35.502  -7.188  0.00  0.00    -0.105 C 
ATOM     16  C15 NP5 d   1      21.033 -36.371  -8.085  0.00  0.00    -0.030 C 
ATOM     17  C16 NP5 d   1      19.630 -36.303  -7.494  0.00  0.00     0.032 C 
ATOM     18  O1  NP5 d   1      17.459 -35.657  -6.114  0.00  0.00    -0.259 OA
ATOM     19 CL1  NP5 d   1      20.535 -33.627  -1.306  0.00  0.00    -0.081 Cl
ATOM     20  O5  NP5 d   1      22.586 -35.918  -4.384  0.00  0.00    -0.298 OA
ATOM     21  H1  NP5 d   1      16.940 -31.420  -3.473  0.00  0.00     0.092 H 
ATOM     22  H2  NP5 d   1      20.049 -36.291  -4.192  0.00  0.00     0.051 H 
ATOM     23  H3  NP5 d   1      20.521 -35.891  -2.506  0.00  0.00     0.051 H 
ATOM     24  H4  NP5 d   1      23.287 -33.543  -3.859  0.00  0.00     0.044 H 
ATOM     25  H5  NP5 d   1      21.669 -33.080  -3.231  0.00  0.00     0.044 H 
ATOM     26  H6  NP5 d   1      21.979 -31.830  -5.226  0.00  0.00     0.034 H 
ATOM     27  H7  NP5 d   1      20.849 -33.162  -5.645  0.00  0.00     0.034 H 
ATOM     28  H8  NP5 d   1      23.656 -33.921  -6.109  0.00  0.00     0.038 H 
ATOM     29  H9  NP5 d   1      23.184 -32.458  -7.039  0.00  0.00     0.038 H 
ATOM     30  H10 NP5 d   1      21.477 -33.756  -8.288  0.00  0.00     0.076 H 
ATOM     31  H11 NP5 d   1      22.403 -35.942  -6.341  0.00  0.00     0.076 H 
ATOM     32  H12 NP5 d   1      21.404 -37.407  -8.081  0.00  0.00     0.042 H 
ATOM     33  H13 NP5 d   1      21.038 -35.984  -9.114  0.00  0.00     0.042 H 
ATOM     34  H14 NP5 d   1      18.965 -35.724  -8.152  0.00  0.00     0.075 H 
ATOM     35  H15 NP5 d   1      19.222 -37.315  -7.359  0.00  0.00     0.075 H 
ENDROOT
BRANCH   4  36
ATOM     36  O3  NP5 d   1      16.711 -33.012  -5.539  0.00  0.00    -0.360 OA
ATOM     37  H16 NP5 d   1      16.826 -33.711  -6.172  0.00  0.00     0.217 HD
ENDBRANCH   4  36
BRANCH   6  38
ATOM     38  O4  NP5 d   1      18.579 -31.477  -1.438  0.00  0.00    -0.359 OA
ATOM     39  H17 NP5 d   1      19.428 -31.052  -1.404  0.00  0.00     0.217 HD
ENDBRANCH   6  38
TORSDOF 2
