REMARK  25 active torsions:
REMARK  status: ('A' for Active; 'I' for Inactive)
REMARK    1  A    between atoms: C10_1  and  C34_19 
REMARK    2  A    between atoms: C11_2  and  O12_22 
REMARK    3  A    between atoms: C12_3  and  C35_21 
REMARK    4  A    between atoms: C12_3  and  O13_23 
REMARK    5  A    between atoms: C13_4  and  C36_24 
REMARK    6  A    between atoms: C2_6  and  C30_25 
REMARK    7  A    between atoms: C3_7  and  O3_17 
REMARK    8  A    between atoms: C4_8  and  C31_50 
REMARK    9  A    between atoms: C5_9  and  O7_18 
REMARK   10  A    between atoms: C6_10  and  C32_26 
REMARK   11  A    between atoms: C6_10  and  O10_27 
REMARK   12  A    between atoms: C8_12  and  C33_20 
REMARK   13  A    between atoms: O3_17  and  C14_38 
REMARK   14  A    between atoms: O7_18  and  C22_28 
REMARK   15  A    between atoms: C36_24  and  C37_49 
REMARK   16  A    between atoms: C23_29  and  O8_36 
REMARK   17  A    between atoms: C24_30  and  N1_34 
REMARK   18  A    between atoms: C26_32  and  C27_35 
REMARK   19  A    between atoms: N1_34  and  C28_37 
REMARK   20  A    between atoms: N1_34  and  C29_47 
REMARK   21  A    between atoms: C16_40  and  O5_44 
REMARK   22  A    between atoms: C16_40  and  C19_51 
REMARK   23  A    between atoms: C17_41  and  O6_45 
REMARK   24  A    between atoms: C18_42  and  C21_48 
REMARK   25  A    between atoms: O5_44  and  C20_46 
ROOT
ATOM      1  C10 ERY d   1     -15.387 -11.773 -20.671  0.00  0.00     0.028 C 
ATOM      2  C11 ERY d   1     -13.906 -12.122 -20.483  0.00  0.00     0.077 C 
ATOM      3  C12 ERY d   1     -13.258 -13.113 -21.495  0.00  0.00     0.107 C 
ATOM      4  C13 ERY d   1     -11.724 -13.022 -21.401  0.00  0.00     0.079 C 
ATOM      5  O2  ERY d   1     -11.349 -11.812 -22.076  0.00  0.00    -0.312 OA
ATOM      6  C2  ERY d   1     -10.428  -9.593 -22.172  0.00  0.00     0.052 C 
ATOM      7  C3  ERY d   1     -11.136  -8.402 -21.510  0.00  0.00     0.059 C 
ATOM      8  C4  ERY d   1     -12.524  -8.141 -22.119  0.00  0.00    -0.004 C 
ATOM      9  C5  ERY d   1     -13.358  -7.207 -21.177  0.00  0.00     0.076 C 
ATOM     10  C6  ERY d   1     -14.346  -7.982 -20.286  0.00  0.00     0.081 C 
ATOM     11  C7  ERY d   1     -15.450  -8.609 -21.160  0.00  0.00    -0.025 C 
ATOM     12  C8  ERY d   1     -16.462  -9.421 -20.330  0.00  0.00     0.004 C 
ATOM     13  C9  ERY d   1     -15.876 -10.679 -19.735  0.00  0.00     0.137 C 
ATOM     14  O11 ERY d   1     -15.843 -10.862 -18.514  0.00  0.00    -0.297 OA
ATOM     15  C1  ERY d   1     -10.658 -10.808 -21.350  0.00  0.00     0.265 C 
ATOM     16  O1  ERY d   1     -10.326 -10.958 -20.183  0.00  0.00    -0.265 OA
ATOM     17  H1  ERY d   1     -15.503 -11.425 -21.708  0.00  0.00     0.055 H 
ATOM     18  H2  ERY d   1     -13.350 -11.179 -20.589  0.00  0.00     0.088 H 
ATOM     19  H3  ERY d   1     -11.421 -12.999 -20.344  0.00  0.00     0.089 H 
ATOM     20  H4  ERY d   1     -10.887  -9.726 -23.163  0.00  0.00     0.059 H 
ATOM     21  H5  ERY d   1     -11.275  -8.644 -20.446  0.00  0.00     0.085 H 
ATOM     22  H6  ERY d   1     -13.058  -9.099 -22.197  0.00  0.00     0.047 H 
ATOM     23  H7  ERY d   1     -12.671  -6.640 -20.532  0.00  0.00     0.088 H 
ATOM     24  H8  ERY d   1     -14.981  -9.277 -21.898  0.00  0.00     0.038 H 
ATOM     25  H9  ERY d   1     -15.987  -7.804 -21.683  0.00  0.00     0.038 H 
ATOM     26  H10 ERY d   1     -16.791  -8.783 -19.496  0.00  0.00     0.051 H 
ENDROOT
BRANCH   9  27
ATOM     27  O7  ERY d   1     -14.077  -6.326 -21.999  0.00  0.00    -0.350 OA
BRANCH  27  28
ATOM     28  C22 ERY d   1     -13.731  -4.939 -21.883  0.00  0.00     0.158 C 
ATOM     29  C23 ERY d   1     -14.383  -4.153 -23.029  0.00  0.00     0.110 C 
ATOM     30  C24 ERY d   1     -14.184  -2.653 -22.804  0.00  0.00     0.134 C 
ATOM     31  H32 ERY d   1     -15.456  -4.391 -23.079  0.00  0.00     0.093 H 
ATOM     32  C25 ERY d   1     -14.628  -2.251 -21.378  0.00  0.00    -0.012 C 
ATOM     33  H33 ERY d   1     -13.122  -2.409 -22.954  0.00  0.00     0.089 H 
ATOM     34  C26 ERY d   1     -13.939  -3.119 -20.313  0.00  0.00     0.040 C 
ATOM     35  H34 ERY d   1     -15.717  -2.377 -21.293  0.00  0.00     0.040 H 
ATOM     36  H35 ERY d   1     -14.366  -1.197 -21.205  0.00  0.00     0.040 H 
ATOM     37  O9  ERY d   1     -14.196  -4.499 -20.614  0.00  0.00    -0.354 OA
ATOM     38  H36 ERY d   1     -12.858  -2.914 -20.300  0.00  0.00     0.082 H 
ATOM     39  H31 ERY d   1     -12.639  -4.817 -21.938  0.00  0.00     0.133 H 
BRANCH  29  40
ATOM     40  O8  ERY d   1     -13.745  -4.485 -24.267  0.00  0.00    -0.389 OA
ATOM     41  H41 ERY d   1     -14.143  -3.986 -24.971  0.00  0.00     0.210 HD
ENDBRANCH  29  40
BRANCH  30  42
ATOM     42  N1  ERY d   1     -15.024  -1.838 -23.716  0.00  0.00    -0.072 N 
ATOM     43  H37 ERY d   1     -14.586  -2.220 -24.540  0.00  0.00     0.279 HD
BRANCH  42  44
ATOM     44  C28 ERY d   1     -14.563  -0.481 -23.995  0.00  0.00     0.066 C 
ATOM     45  H42 ERY d   1     -15.269   0.013 -24.679  0.00  0.00     0.068 H 
ATOM     46  H43 ERY d   1     -13.568  -0.520 -24.462  0.00  0.00     0.068 H 
ATOM     47  H44 ERY d   1     -14.505   0.087 -23.055  0.00  0.00     0.068 H 
ENDBRANCH  42  44
BRANCH  42  48
ATOM     48  C29 ERY d   1     -16.349  -2.257 -24.158  0.00  0.00     0.066 C 
ATOM     49  H54 ERY d   1     -16.521  -3.302 -23.861  0.00  0.00     0.068 H 
ATOM     50  H55 ERY d   1     -16.415  -2.171 -25.253  0.00  0.00     0.068 H 
ATOM     51  H56 ERY d   1     -17.111  -1.614 -23.693  0.00  0.00     0.068 H 
ENDBRANCH  42  48
ENDBRANCH  30  42
BRANCH  34  52
ATOM     52  C27 ERY d   1     -14.545  -2.866 -18.943  0.00  0.00    -0.052 C 
ATOM     53  H38 ERY d   1     -14.039  -3.496 -18.196  0.00  0.00     0.030 H 
ATOM     54  H39 ERY d   1     -15.617  -3.113 -18.965  0.00  0.00     0.030 H 
ATOM     55  H40 ERY d   1     -14.418  -1.806 -18.676  0.00  0.00     0.030 H 
ENDBRANCH  34  52
ENDBRANCH  27  28
ENDBRANCH   9  27
BRANCH   8  56
ATOM     56  C31 ERY d   1     -12.348  -7.582 -23.539  0.00  0.00    -0.068 C 
ATOM     57  H63 ERY d   1     -11.756  -8.288 -24.140  0.00  0.00     0.028 H 
ATOM     58  H64 ERY d   1     -11.827  -6.614 -23.490  0.00  0.00     0.028 H 
ATOM     59  H65 ERY d   1     -13.335  -7.444 -24.004  0.00  0.00     0.028 H 
ENDBRANCH   8  56
BRANCH  10  60
ATOM     60  C32 ERY d   1     -14.881  -7.131 -19.121  0.00  0.00    -0.045 C 
ATOM     61  H27 ERY d   1     -14.036  -6.721 -18.548  0.00  0.00     0.031 H 
ATOM     62  H28 ERY d   1     -15.500  -7.758 -18.463  0.00  0.00     0.031 H 
ATOM     63  H29 ERY d   1     -15.489  -6.305 -19.519  0.00  0.00     0.031 H 
ENDBRANCH  10  60
BRANCH  10  64
ATOM     64  O10 ERY d   1     -13.633  -9.061 -19.713  0.00  0.00    -0.388 OA
ATOM     65  H30 ERY d   1     -12.937  -8.722 -19.162  0.00  0.00     0.210 HD
ENDBRANCH  10  64
BRANCH   7  66
ATOM     66  O3  ERY d   1     -10.329  -7.218 -21.597  0.00  0.00    -0.355 OA
BRANCH  66  67
ATOM     67  C14 ERY d   1      -9.453  -7.017 -20.465  0.00  0.00     0.135 C 
ATOM     68  C15 ERY d   1      -8.275  -6.128 -20.889  0.00  0.00     0.012 C 
ATOM     69  C16 ERY d   1      -8.643  -4.639 -21.020  0.00  0.00     0.089 C 
ATOM     70  H46 ERY d   1      -7.905  -6.482 -21.863  0.00  0.00     0.044 H 
ATOM     71  H47 ERY d   1      -7.478  -6.224 -20.137  0.00  0.00     0.044 H 
ATOM     72  C17 ERY d   1      -9.290  -4.160 -19.709  0.00  0.00     0.089 C 
ATOM     73  C18 ERY d   1     -10.481  -5.069 -19.397  0.00  0.00     0.065 C 
ATOM     74  H48 ERY d   1      -8.560  -4.179 -18.886  0.00  0.00     0.091 H 
ATOM     75  O4  ERY d   1     -10.134  -6.468 -19.332  0.00  0.00    -0.354 OA
ATOM     76  H49 ERY d   1     -11.236  -4.919 -20.182  0.00  0.00     0.086 H 
ATOM     77  H45 ERY d   1      -9.054  -7.998 -20.168  0.00  0.00     0.129 H 
BRANCH  69  78
ATOM     78  O5  ERY d   1      -9.598  -4.424 -22.071  0.00  0.00    -0.383 OA
BRANCH  78  79
ATOM     79  C20 ERY d   1      -9.378  -4.656 -23.484  0.00  0.00     0.005 C 
ATOM     80  H51 ERY d   1     -10.290  -4.402 -24.044  0.00  0.00     0.066 H 
ATOM     81  H52 ERY d   1      -9.131  -5.715 -23.648  0.00  0.00     0.066 H 
ATOM     82  H53 ERY d   1      -8.546  -4.027 -23.834  0.00  0.00     0.066 H 
ENDBRANCH  78  79
ENDBRANCH  69  78
BRANCH  69  83
ATOM     83  C19 ERY d   1      -7.398  -3.773 -21.289  0.00  0.00    -0.045 C 
ATOM     84  H66 ERY d   1      -6.919  -4.100 -22.224  0.00  0.00     0.031 H 
ATOM     85  H67 ERY d   1      -6.688  -3.883 -20.456  0.00  0.00     0.031 H 
ATOM     86  H68 ERY d   1      -7.697  -2.718 -21.379  0.00  0.00     0.031 H 
ENDBRANCH  69  83
BRANCH  72  87
ATOM     87  O6  ERY d   1      -9.792  -2.828 -19.915  0.00  0.00    -0.390 OA
ATOM     88  H50 ERY d   1     -10.404  -2.830 -20.642  0.00  0.00     0.210 HD
ENDBRANCH  72  87
BRANCH  73  89
ATOM     89  C21 ERY d   1     -11.093  -4.751 -18.026  0.00  0.00    -0.050 C 
ATOM     90  H57 ERY d   1     -11.943  -5.423 -17.839  0.00  0.00     0.031 H 
ATOM     91  H58 ERY d   1     -11.441  -3.708 -18.013  0.00  0.00     0.031 H 
ATOM     92  H59 ERY d   1     -10.334  -4.894 -17.243  0.00  0.00     0.031 H 
ENDBRANCH  73  89
ENDBRANCH  66  67
ENDBRANCH   7  66
BRANCH   6  93
ATOM     93  C30 ERY d   1      -8.897  -9.530 -22.372  0.00  0.00    -0.062 C 
ATOM     94  H24 ERY d   1      -8.552 -10.456 -22.856  0.00  0.00     0.028 H 
ATOM     95  H25 ERY d   1      -8.404  -9.421 -21.395  0.00  0.00     0.028 H 
ATOM     96  H26 ERY d   1      -8.645  -8.668 -23.008  0.00  0.00     0.028 H 
ENDBRANCH   6  93
BRANCH  12  97
ATOM     97  C33 ERY d   1     -17.688  -9.766 -21.175  0.00  0.00    -0.066 C 
ATOM     98  H14 ERY d   1     -18.400 -10.345 -20.569  0.00  0.00     0.028 H 
ATOM     99  H15 ERY d   1     -17.377 -10.363 -22.045  0.00  0.00     0.028 H 
ATOM    100  H16 ERY d   1     -18.169  -8.838 -21.519  0.00  0.00     0.028 H 
ENDBRANCH  12  97
BRANCH   1 101
ATOM    101  C34 ERY d   1     -16.340 -12.947 -20.444  0.00  0.00    -0.064 C 
ATOM    102  H11 ERY d   1     -17.377 -12.613 -20.598  0.00  0.00     0.028 H 
ATOM    103  H12 ERY d   1     -16.224 -13.320 -19.416  0.00  0.00     0.028 H 
ATOM    104  H13 ERY d   1     -16.105 -13.753 -21.155  0.00  0.00     0.028 H 
ENDBRANCH   1 101
BRANCH   4 105
ATOM    105  C36 ERY d   1     -10.985 -14.151 -22.124  0.00  0.00    -0.041 C 
ATOM    106  H22 ERY d   1     -11.113 -14.028 -23.210  0.00  0.00     0.036 H 
ATOM    107  H23 ERY d   1     -11.409 -15.117 -21.812  0.00  0.00     0.036 H 
BRANCH 105 108
ATOM    108  C37 ERY d   1      -9.507 -14.127 -21.792  0.00  0.00    -0.074 C 
ATOM    109  H60 ERY d   1      -8.999 -14.946 -22.322  0.00  0.00     0.027 H 
ATOM    110  H61 ERY d   1      -9.373 -14.253 -20.708  0.00  0.00     0.027 H 
ATOM    111  H62 ERY d   1      -9.076 -13.165 -22.105  0.00  0.00     0.027 H 
ENDBRANCH 105 108
ENDBRANCH   4 105
BRANCH   2 112
ATOM    112  O12 ERY d   1     -13.732 -12.586 -19.130  0.00  0.00    -0.392 OA
ATOM    113  H20 ERY d   1     -14.134 -11.968 -18.530  0.00  0.00     0.210 HD
ENDBRANCH   2 112
BRANCH   3 114
ATOM    114  C35 ERY d   1     -13.742 -12.848 -22.916  0.00  0.00    -0.043 C 
ATOM    115  H17 ERY d   1     -14.839 -12.920 -22.949  0.00  0.00     0.031 H 
ATOM    116  H18 ERY d   1     -13.305 -13.593 -23.597  0.00  0.00     0.031 H 
ATOM    117  H19 ERY d   1     -13.431 -11.840 -23.227  0.00  0.00     0.031 H 
ENDBRANCH   3 114
BRANCH   3 118
ATOM    118  O13 ERY d   1     -13.730 -14.431 -21.212  0.00  0.00    -0.385 OA
ATOM    119  H21 ERY d   1     -13.470 -14.677 -20.332  0.00  0.00     0.210 HD
ENDBRANCH   3 118
TORSDOF 25
