REMARK  2 active torsions:
REMARK  status: ('A' for Active; 'I' for Inactive)
REMARK    1  A    between atoms: C2_3  and  O2_4 
REMARK    2  A    between atoms: C3_5  and  O3_6 
ROOT
ATOM      1  S1  DTD d   1      -6.721  -6.679 -17.306  0.00  0.00    -0.095 SA
ATOM      2  C1  DTD d   1      -6.716  -7.902 -18.642  0.00  0.00     0.013 C 
ATOM      3  C2  DTD d   1      -8.081  -7.917 -19.340  0.00  0.00     0.070 C 
ATOM      4  C3  DTD d   1      -8.265  -6.683 -20.216  0.00  0.00     0.070 C 
ATOM      5  C4  DTD d   1      -8.398  -5.379 -19.442  0.00  0.00     0.013 C 
ATOM      6  S4  DTD d   1      -6.794  -4.986 -18.636  0.00  0.00    -0.095 SA
ATOM      7  H1  DTD d   1      -6.509  -8.898 -18.224  0.00  0.00     0.054 H 
ATOM      8  H2  DTD d   1      -5.936  -7.641 -19.372  0.00  0.00     0.054 H 
ATOM      9  H3  DTD d   1      -8.884  -7.992 -18.592  0.00  0.00     0.088 H 
ATOM     10  H5  DTD d   1      -7.380  -6.606 -20.865  0.00  0.00     0.088 H 
ATOM     11  H7  DTD d   1      -9.179  -5.485 -18.674  0.00  0.00     0.054 H 
ATOM     12  H8  DTD d   1      -8.671  -4.568 -20.133  0.00  0.00     0.054 H 
ENDROOT
BRANCH   3  13
ATOM     13  O2  DTD d   1      -8.125  -8.989 -20.250  0.00  0.00    -0.392 OA
ATOM     14  H4  DTD d   1      -8.970  -9.000 -20.684  0.00  0.00     0.210 HD
ENDBRANCH   3  13
BRANCH   4  15
ATOM     15  O3  DTD d   1      -9.415  -6.809 -21.028  0.00  0.00    -0.392 OA
ATOM     16  H6  DTD d   1      -9.324  -7.571 -21.588  0.00  0.00     0.210 HD
ENDBRANCH   4  15
TORSDOF 2
