REMARK  4 active torsions:
REMARK  status: ('A' for Active; 'I' for Inactive)
REMARK    1  A    between atoms: CBF_31  and  CBG_32 
REMARK    2  A    between atoms: CBG_32  and  NBH_33 
REMARK    3  A    between atoms: NBH_33  and  CBI_34 
REMARK    4  A    between atoms: NBH_33  and  CBJ_35 
ROOT
ATOM      1  CBD LY4 d   1      39.482  -1.776  -2.185  0.00  0.00    -0.024 C 
ATOM      2  CBB LY4 d   1      39.882  -0.550  -1.314  0.00  0.00     0.002 C 
ATOM      3  NAW LY4 d   1      40.216  -1.035   0.025  0.00  0.00    -0.355 N 
ATOM      4  CAV LY4 d   1      41.452  -0.892   0.471  0.00  0.00    -0.008 A 
ATOM      5  CAX LY4 d   1      39.481  -1.679   0.941  0.00  0.00     0.045 A 
ATOM      6  CAY LY4 d   1      38.144  -2.085   0.972  0.00  0.00    -0.056 A 
ATOM      7  CAZ LY4 d   1      37.619  -2.750   2.088  0.00  0.00    -0.081 A 
ATOM      8  CAP LY4 d   1      38.447  -3.005   3.172  0.00  0.00    -0.082 A 
ATOM      9  CAO LY4 d   1      39.783  -2.607   3.136  0.00  0.00    -0.070 A 
ATOM     10  CAN LY4 d   1      40.304  -1.949   2.016  0.00  0.00     0.003 A 
ATOM     11  CAM LY4 d   1      41.554  -1.430   1.690  0.00  0.00     0.009 A 
ATOM     12  CAH LY4 d   1      42.768  -1.437   2.384  0.00  0.00     0.061 A 
ATOM     13  CAE LY4 d   1      43.016  -1.426   3.762  0.00  0.00     0.260 A 
ATOM     14  OAF LY4 d   1      42.182  -1.360   4.665  0.00  0.00    -0.267 OA
ATOM     15  NAD LY4 d   1      44.300  -1.483   4.010  0.00  0.00    -0.289 N 
ATOM     16  CAC LY4 d   1      44.927  -1.530   2.861  0.00  0.00     0.260 A 
ATOM     17  OAB LY4 d   1      46.148  -1.596   2.801  0.00  0.00    -0.267 OA
ATOM     18  CAG LY4 d   1      44.038  -1.522   1.782  0.00  0.00     0.061 A 
ATOM     19  CAL LY4 d   1      44.345  -1.607   0.406  0.00  0.00     0.009 A 
ATOM     20  CAU LY4 d   1      43.698  -2.451  -0.423  0.00  0.00    -0.008 A 
ATOM     21  CAK LY4 d   1      45.342  -1.009  -0.366  0.00  0.00     0.003 A 
ATOM     22  CAJ LY4 d   1      46.338  -0.081  -0.080  0.00  0.00    -0.070 A 
ATOM     23  CAI LY4 d   1      47.195   0.371  -1.081  0.00  0.00    -0.082 A 
ATOM     24  CAQ LY4 d   1      47.072  -0.124  -2.375  0.00  0.00    -0.081 A 
ATOM     25  CAR LY4 d   1      46.088  -1.060  -2.660  0.00  0.00    -0.056 A 
ATOM     26  CAS LY4 d   1      45.217  -1.504  -1.659  0.00  0.00     0.045 A 
ATOM     27  NAT LY4 d   1      44.209  -2.379  -1.671  0.00  0.00    -0.353 N 
ATOM     28  CBA LY4 d   1      43.644  -3.213  -2.751  0.00  0.00     0.019 C 
ATOM     29  CBC LY4 d   1      42.835  -2.443  -3.793  0.00  0.00     0.035 C 
ATOM     30  OBE LY4 d   1      41.618  -1.799  -3.313  0.00  0.00    -0.383 OA
ATOM     31  CBF LY4 d   1      40.650  -2.644  -2.714  0.00  0.00     0.063 C 
ATOM     32  H1  LY4 d   1      38.920  -1.403  -3.054  0.00  0.00     0.039 H 
ATOM     33  H2  LY4 d   1      38.831  -2.422  -1.578  0.00  0.00     0.039 H 
ATOM     34  H3  LY4 d   1      39.041   0.157  -1.256  0.00  0.00     0.065 H 
ATOM     35  H4  LY4 d   1      40.754  -0.046  -1.757  0.00  0.00     0.065 H 
ATOM     36  H5  LY4 d   1      42.263  -0.409  -0.072  0.00  0.00     0.113 H 
ATOM     37  H6  LY4 d   1      37.504  -1.883   0.121  0.00  0.00     0.087 H 
ATOM     38  H7  LY4 d   1      36.581  -3.061   2.104  0.00  0.00     0.083 H 
ATOM     39  H8  LY4 d   1      38.056  -3.513   4.046  0.00  0.00     0.083 H 
ATOM     40  H9  LY4 d   1      40.425  -2.810   3.985  0.00  0.00     0.084 H 
ATOM     41  H10 LY4 d   1      44.726  -1.490   4.915  0.00  0.00     0.172 HD
ATOM     42  H11 LY4 d   1      42.876  -3.101  -0.127  0.00  0.00     0.113 H 
ATOM     43  H12 LY4 d   1      46.448   0.294   0.931  0.00  0.00     0.084 H 
ATOM     44  H13 LY4 d   1      47.957   1.107  -0.852  0.00  0.00     0.083 H 
ATOM     45  H14 LY4 d   1      47.741   0.219  -3.156  0.00  0.00     0.083 H 
ATOM     46  H15 LY4 d   1      45.993  -1.450  -3.667  0.00  0.00     0.087 H 
ATOM     47  H16 LY4 d   1      42.986  -3.966  -2.294  0.00  0.00     0.068 H 
ATOM     48  H17 LY4 d   1      44.475  -3.717  -3.266  0.00  0.00     0.068 H 
ATOM     49  H18 LY4 d   1      42.551  -3.149  -4.587  0.00  0.00     0.076 H 
ATOM     50  H19 LY4 d   1      43.485  -1.662  -4.213  0.00  0.00     0.076 H 
ATOM     51  H20 LY4 d   1      41.108  -3.169  -1.863  0.00  0.00     0.086 H 
ENDROOT
BRANCH  31  52
ATOM     52  CBG LY4 d   1      40.171  -3.716  -3.759  0.00  0.00     0.106 C 
ATOM     53  H21 LY4 d   1      40.772  -4.630  -3.643  0.00  0.00     0.080 H 
ATOM     54  H22 LY4 d   1      40.303  -3.316  -4.775  0.00  0.00     0.080 H 
BRANCH  52  55
ATOM     55  NBH LY4 d   1      38.739  -4.042  -3.544  0.00  0.00    -0.076 N 
ATOM     56  H23 LY4 d   1      38.255  -3.174  -3.375  0.00  0.00     0.279 HD
BRANCH  55  57
ATOM     57  CBI LY4 d   1      38.566  -4.902  -2.345  0.00  0.00     0.066 C 
ATOM     58  H24 LY4 d   1      37.498  -5.129  -2.208  0.00  0.00     0.068 H 
ATOM     59  H25 LY4 d   1      38.946  -4.375  -1.458  0.00  0.00     0.068 H 
ATOM     60  H26 LY4 d   1      39.125  -5.839  -2.482  0.00  0.00     0.068 H 
ENDBRANCH  55  57
BRANCH  55  61
ATOM     61  CBJ LY4 d   1      38.114  -4.679  -4.725  0.00  0.00     0.066 C 
ATOM     62  H27 LY4 d   1      38.249  -4.033  -5.605  0.00  0.00     0.068 H 
ATOM     63  H28 LY4 d   1      37.040  -4.824  -4.538  0.00  0.00     0.068 H 
ATOM     64  H29 LY4 d   1      38.589  -5.654  -4.910  0.00  0.00     0.068 H 
ENDBRANCH  55  61
ENDBRANCH  52  55
ENDBRANCH  31  52
TORSDOF 4
