REMARK  6 active torsions:
REMARK  status: ('A' for Active; 'I' for Inactive)
REMARK    1  A    between atoms: C2_1  and  N2_17 
REMARK    2  A    between atoms: C5_4  and  C8_7 
REMARK    3  A    between atoms: N1_8  and  C17_20 
REMARK    4  A    between atoms: C12_13  and  O3_16 
REMARK    5  A    between atoms: N2_17  and  C15_18 
REMARK    6  A    between atoms: N2_17  and  C16_19 
ROOT
ATOM      1  C2  TFL d   1     -23.673 110.345  39.838  0.00  0.00     0.029 A 
ATOM      2  C3  TFL d   1     -22.828 110.885  38.766  0.00  0.00    -0.057 A 
ATOM      3  C4  TFL d   1     -21.598 111.612  39.071  0.00  0.00    -0.072 A 
ATOM      4  C5  TFL d   1     -21.193 111.815  40.453  0.00  0.00    -0.025 A 
ATOM      5  C6  TFL d   1     -22.056 111.287  41.487  0.00  0.00    -0.072 A 
ATOM      6  C7  TFL d   1     -23.256 110.577  41.192  0.00  0.00    -0.057 A 
ATOM      7  H1  TFL d   1     -23.121 110.742  37.732  0.00  0.00     0.086 H 
ATOM      8  H2  TFL d   1     -20.986 112.001  38.265  0.00  0.00     0.084 H 
ATOM      9  H3  TFL d   1     -21.780 111.437  42.524  0.00  0.00     0.084 H 
ATOM     10  H4  TFL d   1     -23.866 110.204  42.007  0.00  0.00     0.086 H 
ENDROOT
BRANCH   4  11
ATOM     11  C8  TFL d   1     -19.879 112.563  40.862  0.00  0.00     0.086 A 
ATOM     12  N1  TFL d   1     -19.262 112.874  42.095  0.00  0.00    -0.366 N 
ATOM     13  C9  TFL d   1     -18.039 113.559  41.996  0.00  0.00     0.048 A 
ATOM     14  C10 TFL d   1     -17.688 113.771  40.545  0.00  0.00     0.032 A 
ATOM     15  C14 TFL d   1     -17.102 114.036  42.965  0.00  0.00    -0.053 A 
ATOM     16  S1  TFL d   1     -18.900 113.131  39.501  0.00  0.00    -0.097 SA
ATOM     17  C11 TFL d   1     -16.480 114.436  40.154  0.00  0.00    -0.033 A 
ATOM     18  C12 TFL d   1     -15.580 114.890  41.187  0.00  0.00     0.067 A 
ATOM     19  H6  TFL d   1     -16.248 114.594  39.107  0.00  0.00     0.089 H 
ATOM     20  C13 TFL d   1     -15.903 114.689  42.575  0.00  0.00    -0.049 A 
ATOM     21  H7  TFL d   1     -15.218 115.043  43.337  0.00  0.00     0.087 H 
ATOM     22  H8  TFL d   1     -17.311 113.896  44.019  0.00  0.00     0.087 H 
ATOM     23  H5  TFL d   1     -20.457 113.496  40.927  0.00  0.00     0.098 H 
BRANCH  12  24
ATOM     24  C17 TFL d   1     -19.852 112.527  43.422  0.00  0.00    -0.017 C 
ATOM     25  H16 TFL d   1     -19.183 112.875  44.223  0.00  0.00     0.056 H 
ATOM     26  H17 TFL d   1     -19.975 111.436  43.495  0.00  0.00     0.056 H 
ATOM     27  H18 TFL d   1     -20.833 113.014  43.526  0.00  0.00     0.056 H 
ENDBRANCH  12  24
BRANCH  18  28
ATOM     28  O3  TFL d   1     -14.283 115.593  40.838  0.00  0.00    -0.361 OA
ATOM     29  H9  TFL d   1     -14.202 115.655  39.894  0.00  0.00     0.217 HD
ENDBRANCH  18  28
ENDBRANCH   4  11
BRANCH   1  30
ATOM     30  N2  TFL d   1     -24.909 109.578  39.579  0.00  0.00    -0.390 N 
BRANCH  30  31
ATOM     31  C15 TFL d   1     -25.391 109.278  38.209  0.00  0.00    -0.019 C 
ATOM     32  H10 TFL d   1     -26.324 108.699  38.267  0.00  0.00     0.056 H 
ATOM     33  H11 TFL d   1     -24.630 108.693  37.672  0.00  0.00     0.056 H 
ATOM     34  H12 TFL d   1     -25.577 110.219  37.671  0.00  0.00     0.056 H 
ENDBRANCH  30  31
BRANCH  30  35
ATOM     35  C16 TFL d   1     -25.723 109.046  40.700  0.00  0.00    -0.019 C 
ATOM     36  H13 TFL d   1     -25.263 109.335  41.657  0.00  0.00     0.056 H 
ATOM     37  H14 TFL d   1     -25.769 107.949  40.632  0.00  0.00     0.056 H 
ATOM     38  H15 TFL d   1     -26.741 109.460  40.643  0.00  0.00     0.056 H 
ENDBRANCH  30  35
ENDBRANCH   1  30
TORSDOF 6
