REMARK  9 active torsions:
REMARK  status: ('A' for Active; 'I' for Inactive)
REMARK    1  A    between atoms: C1_1  and  C13_13 
REMARK    2  A    between atoms: O2_18  and  C2_2 
REMARK    3  A    between atoms: C6_6  and  C15_16 
REMARK    4  A    between atoms: C7_7  and  O2_18 
REMARK    5  A    between atoms: C8_8  and  O1_19 
REMARK    6  A    between atoms: C13_13  and  C14_14 
REMARK    7  A    between atoms: C14_14  and  C18_20 
REMARK    8  A    between atoms: C15_16  and  C16_21 
REMARK    9  A    between atoms: C15_16  and  C17_24 
ROOT
ATOM      1  C2  OEF d   1       2.354  21.755  31.306  0.00  0.00     0.076 A 
ATOM      2  C4  OEF d   1       1.427  22.697  31.729  0.00  0.00    -0.041 A 
ATOM      3  C6  OEF d   1       1.252  23.974  31.148  0.00  0.00    -0.019 A 
ATOM      4  C8  OEF d   1       2.054  24.378  30.042  0.00  0.00     0.072 A 
ATOM      5  C10 OEF d   1       3.006  23.438  29.591  0.00  0.00    -0.048 A 
ATOM      6  C12 OEF d   1       3.137  22.182  30.208  0.00  0.00    -0.048 A 
ATOM      7  H2  OEF d   1       0.790  22.434  32.566  0.00  0.00     0.088 H 
ATOM      8  H3  OEF d   1       3.647  23.689  28.754  0.00  0.00     0.087 H 
ATOM      9  H5  OEF d   1       3.883  21.499  29.819  0.00  0.00     0.087 H 
ENDROOT
BRANCH   1  10
ATOM     10  O2  OEF d   1       2.484  20.493  31.924  0.00  0.00    -0.308 OA
BRANCH  10  11
ATOM     11  C7  OEF d   1       3.795  20.006  32.201  0.00  0.00     0.110 A 
ATOM     12  C5  OEF d   1       4.546  20.498  33.347  0.00  0.00     0.046 A 
ATOM     13  C3  OEF d   1       5.847  20.031  33.658  0.00  0.00    -0.057 A 
ATOM     14 BR1  OEF d   1       3.758  21.814  34.476  0.00  0.00    -0.048 Br
ATOM     15  C1  OEF d   1       6.490  19.042  32.850  0.00  0.00    -0.055 A 
ATOM     16  H1  OEF d   1       6.364  20.430  34.523  0.00  0.00     0.086 H 
ATOM     17  C11 OEF d   1       5.761  18.562  31.733  0.00  0.00    -0.057 A 
ATOM     18  C9  OEF d   1       4.484  19.021  31.430  0.00  0.00     0.046 A 
ATOM     19  H4  OEF d   1       6.214  17.812  31.094  0.00  0.00     0.086 H 
ATOM     20 BR2  OEF d   1       3.592  18.328  29.938  0.00  0.00    -0.048 Br
BRANCH  15  21
ATOM     21  C13 OEF d   1       7.852  18.610  33.276  0.00  0.00    -0.032 C 
ATOM     22  H6  OEF d   1       7.926  18.761  34.363  0.00  0.00     0.040 H 
ATOM     23  H7  OEF d   1       8.582  19.256  32.766  0.00  0.00     0.040 H 
BRANCH  21  24
ATOM     24  C14 OEF d   1       8.232  17.157  32.982  0.00  0.00     0.019 C 
ATOM     25  H8  OEF d   1       8.189  16.988  31.896  0.00  0.00     0.049 H 
ATOM     26  H9  OEF d   1       7.517  16.490  33.486  0.00  0.00     0.049 H 
BRANCH  24  27
ATOM     27  C18 OEF d   1       9.632  16.845  33.476  0.00  0.00     0.172 C 
ATOM     28  O3  OEF d   1      10.535  17.564  33.037  0.00  0.00    -0.648 OA
ATOM     29  O4  OEF d   1       9.808  15.915  34.249  0.00  0.00    -0.648 OA
ENDBRANCH  24  27
ENDBRANCH  21  24
ENDBRANCH  15  21
ENDBRANCH  10  11
ENDBRANCH   1  10
BRANCH   3  30
ATOM     30  C15 OEF d   1       0.202  24.957  31.681  0.00  0.00    -0.033 C 
ATOM     31  H10 OEF d   1      -0.093  25.656  30.884  0.00  0.00     0.046 H 
BRANCH  30  32
ATOM     32  C16 OEF d   1       0.938  25.720  32.807  0.00  0.00    -0.069 C 
ATOM     33  H12 OEF d   1       0.257  26.458  33.256  0.00  0.00     0.028 H 
ATOM     34  H13 OEF d   1       1.814  26.237  32.388  0.00  0.00     0.028 H 
ATOM     35  H14 OEF d   1       1.267  25.008  33.578  0.00  0.00     0.028 H 
ENDBRANCH  30  32
BRANCH  30  36
ATOM     36  C17 OEF d   1      -1.065  24.253  32.198  0.00  0.00    -0.069 C 
ATOM     37  H15 OEF d   1      -1.556  23.724  31.367  0.00  0.00     0.028 H 
ATOM     38  H16 OEF d   1      -1.755  25.001  32.616  0.00  0.00     0.028 H 
ATOM     39  H17 OEF d   1      -0.790  23.531  32.980  0.00  0.00     0.028 H 
ENDBRANCH  30  36
ENDBRANCH   3  30
BRANCH   4  40
ATOM     40  O1  OEF d   1       1.923  25.612  29.440  0.00  0.00    -0.360 OA
ATOM     41  H11 OEF d   1       1.697  25.494  28.525  0.00  0.00     0.217 HD
ENDBRANCH   4  40
TORSDOF 9
