REMARK  6 active torsions:
REMARK  status: ('A' for Active; 'I' for Inactive)
REMARK       I    between atoms: C1_1  and  N3_3 
REMARK    1  A    between atoms: C32_32  and  C1_1 
REMARK    2  A    between atoms: C5_5  and  N7_7 
REMARK       I    between atoms: N7_7  and  C8_8 
REMARK    3  A    between atoms: C8_8  and  C9_9 
REMARK    4  A    between atoms: C26_26  and  N19_19 
REMARK    5  A    between atoms: N22_22  and  C25_25 
REMARK    6  A    between atoms: C31_31  and  C32_32 
ROOT
ATOM      1  N7  626 d   1      37.827  52.231  17.696  0.00  0.00    -0.305 N 
ATOM      2  C8  626 d   1      37.726  52.161  19.056  0.00  0.00     0.257 C 
ATOM      3  O10 626 d   1      38.656  51.724  19.728  0.00  0.00    -0.267 OA
ATOM      4  H2  626 d   1      37.020  52.615  17.248  0.00  0.00     0.170 HD
ENDROOT
BRANCH   2   5
ATOM      5  C9  626 d   1      36.463  52.622  19.743  0.00  0.00     0.032 A 
ATOM      6  C11 626 d   1      35.317  53.151  19.075  0.00  0.00    -0.066 A 
ATOM      7  C12 626 d   1      34.178  53.543  19.802  0.00  0.00    -0.056 A 
ATOM      8  H3  626 d   1      35.325  53.252  17.996  0.00  0.00     0.085 H 
ATOM      9  C26 626 d   1      34.136  53.421  21.230  0.00  0.00     0.030 A 
ATOM     10  H4  626 d   1      33.319  53.943  19.275  0.00  0.00     0.086 H 
ATOM     11  C13 626 d   1      35.291  52.894  21.888  0.00  0.00    -0.056 A 
ATOM     12  C14 626 d   1      36.425  52.506  21.167  0.00  0.00    -0.066 A 
ATOM     13  H5  626 d   1      35.288  52.793  22.967  0.00  0.00     0.086 H 
ATOM     14  H6  626 d   1      37.286  52.112  21.695  0.00  0.00     0.085 H 
BRANCH   9  15
ATOM     15  N19 626 d   1      32.921  53.824  22.018  0.00  0.00    -0.378 N 
ATOM     16  C20 626 d   1      32.694  53.284  23.429  0.00  0.00     0.018 C 
ATOM     17  C21 626 d   1      31.216  53.195  23.910  0.00  0.00     0.098 C 
ATOM     18  H11 626 d   1      33.234  53.939  24.128  0.00  0.00     0.066 H 
ATOM     19  H12 626 d   1      33.121  52.271  23.472  0.00  0.00     0.066 H 
ATOM     20  N22 626 d   1      30.223  53.310  22.791  0.00  0.00    -0.072 N 
ATOM     21  H13 626 d   1      31.032  54.009  24.626  0.00  0.00     0.078 H 
ATOM     22  H14 626 d   1      31.069  52.226  24.410  0.00  0.00     0.078 H 
ATOM     23  C23 626 d   1      30.403  54.505  21.892  0.00  0.00     0.098 C 
ATOM     24  H15 626 d   1      30.366  52.501  22.206  0.00  0.00     0.279 HD
ATOM     25  C24 626 d   1      31.876  54.784  21.455  0.00  0.00     0.018 C 
ATOM     26  H16 626 d   1      30.031  55.392  22.425  0.00  0.00     0.078 H 
ATOM     27  H17 626 d   1      29.802  54.343  20.985  0.00  0.00     0.078 H 
ATOM     28  H18 626 d   1      31.920  54.728  20.357  0.00  0.00     0.066 H 
ATOM     29  H19 626 d   1      32.139  55.801  21.781  0.00  0.00     0.066 H 
BRANCH  20  30
ATOM     30  C25 626 d   1      28.832  53.222  23.317  0.00  0.00     0.066 C 
ATOM     31  H20 626 d   1      28.741  52.339  23.967  0.00  0.00     0.068 H 
ATOM     32  H21 626 d   1      28.127  53.133  22.477  0.00  0.00     0.068 H 
ATOM     33  H22 626 d   1      28.601  54.129  23.895  0.00  0.00     0.068 H 
ENDBRANCH  20  30
ENDBRANCH   9  15
ENDBRANCH   2   5
BRANCH   1  34
ATOM     34  C5  626 d   1      38.892  51.850  16.773  0.00  0.00     0.160 A 
ATOM     35  N6  626 d   1      38.774  52.038  15.508  0.00  0.00    -0.156 NA
ATOM     36  N4  626 d   1      39.883  51.626  14.813  0.00  0.00    -0.278 N 
ATOM     37  C15 626 d   1      40.685  51.164  15.840  0.00  0.00     0.057 A 
ATOM     38  H1  626 d   1      40.068  51.654  13.800  0.00  0.00     0.189 HD
ATOM     39  C16 626 d   1      40.051  51.291  17.103  0.00  0.00     0.033 A 
ATOM     40  C18 626 d   1      42.055  50.559  15.864  0.00  0.00     0.038 A 
ATOM     41  C17 626 d   1      40.987  50.745  18.122  0.00  0.00     0.027 A 
ATOM     42  N3  626 d   1      42.182  50.299  17.336  0.00  0.00    -0.342 N 
ATOM     43  H7  626 d   1      41.267  51.522  18.848  0.00  0.00     0.072 H 
ATOM     44  H8  626 d   1      40.532  49.896  18.652  0.00  0.00     0.072 H 
ATOM     45  C1  626 d   1      43.288  49.692  17.890  0.00  0.00     0.225 C 
ATOM     46  O2  626 d   1      44.244  49.348  17.188  0.00  0.00    -0.273 OA
ATOM     47  H9  626 d   1      42.104  49.630  15.277  0.00  0.00     0.074 H 
ATOM     48  H10 626 d   1      42.821  51.262  15.503  0.00  0.00     0.074 H 
BRANCH  45  49
ATOM     49  C32 626 d   1      43.325  49.376  19.409  0.00  0.00     0.039 C 
ATOM     50  H26 626 d   1      42.923  50.227  19.978  0.00  0.00     0.055 H 
ATOM     51  H27 626 d   1      44.360  49.181  19.725  0.00  0.00     0.055 H 
BRANCH  49  52
ATOM     52  C31 626 d   1      42.454  48.120  19.656  0.00  0.00    -0.009 A 
ATOM     53  S29 626 d   1      42.716  46.723  18.686  0.00  0.00    -0.106 SA
ATOM     54  C27 626 d   1      41.453  45.897  19.505  0.00  0.00    -0.045 A 
ATOM     55  C28 626 d   1      40.876  46.688  20.468  0.00  0.00    -0.076 A 
ATOM     56  H23 626 d   1      41.148  44.874  19.288  0.00  0.00     0.095 H 
ATOM     57  C30 626 d   1      41.444  47.961  20.558  0.00  0.00    -0.069 A 
ATOM     58  H24 626 d   1      40.055  46.355  21.101  0.00  0.00     0.084 H 
ATOM     59  H25 626 d   1      41.121  48.729  21.259  0.00  0.00     0.085 H 
ENDBRANCH  49  52
ENDBRANCH  45  49
ENDBRANCH   1  34
TORSDOF 6
