REMARK  8 active torsions:
REMARK  status: ('A' for Active; 'I' for Inactive)
REMARK       I    between atoms: C25_25  and  N1_1 
REMARK    1  A    between atoms: C3_3  and  N5_5 
REMARK       I    between atoms: N5_5  and  C6_6 
REMARK    2  A    between atoms: C6_6  and  C7_7 
REMARK    3  A    between atoms: C24_24  and  N17_17 
REMARK    4  A    between atoms: N20_20  and  C23_23 
REMARK    5  A    between atoms: C20_32  and  C25_25 
REMARK    6  A    between atoms: C27_27  and  C20_32 
REMARK    7  A    between atoms: C20_32  and  O34_35 
REMARK    8  A    between atoms: O34_35  and  C36_34 
ROOT
ATOM      1  N1  627 d   1      26.175  36.703  24.373  0.00  0.00    -0.340 N 
ATOM      2  N2  627 d   1      27.904  39.428  26.148  0.00  0.00    -0.278 N 
ATOM      3  C3  627 d   1      25.805  39.818  26.357  0.00  0.00     0.160 A 
ATOM      4  N4  627 d   1      27.048  40.278  26.668  0.00  0.00    -0.156 NA
ATOM      5  C13 627 d   1      27.307  38.442  25.513  0.00  0.00     0.057 A 
ATOM      6  C14 627 d   1      25.979  38.624  25.605  0.00  0.00     0.033 A 
ATOM      7  C15 627 d   1      25.159  37.588  24.928  0.00  0.00     0.027 A 
ATOM      8  C16 627 d   1      27.523  37.189  24.722  0.00  0.00     0.038 A 
ATOM      9  C25 627 d   1      25.994  35.527  23.583  0.00  0.00     0.254 C 
ATOM     10  O26 627 d   1      26.951  34.878  23.173  0.00  0.00    -0.270 OA
ATOM     11  H1  627 d   1      28.927  39.523  26.228  0.00  0.00     0.189 HD
ATOM     12  H7  627 d   1      24.517  37.057  25.645  0.00  0.00     0.072 H 
ATOM     13  H8  627 d   1      24.537  38.028  24.134  0.00  0.00     0.072 H 
ATOM     14  H9  627 d   1      28.101  37.405  23.811  0.00  0.00     0.074 H 
ATOM     15  H10 627 d   1      28.056  36.441  25.326  0.00  0.00     0.074 H 
ENDROOT
BRANCH   3  16
ATOM     16  N5  627 d   1      24.732  40.539  26.792  0.00  0.00    -0.305 N 
ATOM     17  C6  627 d   1      23.386  40.272  26.620  0.00  0.00     0.257 C 
ATOM     18  O8  627 d   1      22.965  39.287  26.040  0.00  0.00    -0.267 OA
ATOM     19  H2  627 d   1      24.947  41.371  27.303  0.00  0.00     0.170 HD
BRANCH  17  20
ATOM     20  C7  627 d   1      22.397  41.273  27.197  0.00  0.00     0.032 A 
ATOM     21  C9  627 d   1      22.786  42.443  27.893  0.00  0.00    -0.066 A 
ATOM     22  C10 627 d   1      21.820  43.346  28.416  0.00  0.00    -0.061 A 
ATOM     23  H3  627 d   1      23.840  42.654  28.030  0.00  0.00     0.085 H 
ATOM     24  C24 627 d   1      20.396  43.126  28.266  0.00  0.00     0.010 A 
ATOM     25  H4  627 d   1      22.161  44.229  28.945  0.00  0.00     0.086 H 
ATOM     26  C11 627 d   1      20.027  41.922  27.548  0.00  0.00    -0.061 A 
ATOM     27  C12 627 d   1      20.991  41.030  27.032  0.00  0.00    -0.066 A 
ATOM     28  H5  627 d   1      18.976  41.700  27.403  0.00  0.00     0.086 H 
ATOM     29  H6  627 d   1      20.664  40.144  26.500  0.00  0.00     0.085 H 
BRANCH  24  30
ATOM     30  N17 627 d   1      19.350  44.015  28.791  0.00  0.00    -0.280 NA
ATOM     31  C18 627 d   1      18.127  44.113  27.893  0.00  0.00     0.006 C 
ATOM     32  C19 627 d   1      17.801  45.468  27.186  0.00  0.00     0.094 C 
ATOM     33  H11 627 d   1      17.254  43.856  28.511  0.00  0.00     0.058 H 
ATOM     34  H12 627 d   1      18.250  43.360  27.101  0.00  0.00     0.058 H 
ATOM     35  N20 627 d   1      18.072  46.650  28.024  0.00  0.00    -0.073 N 
ATOM     36  H13 627 d   1      16.735  45.471  26.914  0.00  0.00     0.077 H 
ATOM     37  H14 627 d   1      18.412  45.541  26.274  0.00  0.00     0.077 H 
ATOM     38  C21 627 d   1      19.473  46.641  28.458  0.00  0.00     0.094 C 
ATOM     39  H15 627 d   1      17.487  46.598  28.843  0.00  0.00     0.279 HD
ATOM     40  C22 627 d   1      19.861  45.354  29.244  0.00  0.00     0.006 C 
ATOM     41  H16 627 d   1      19.644  47.512  29.107  0.00  0.00     0.077 H 
ATOM     42  H17 627 d   1      20.116  46.715  27.568  0.00  0.00     0.077 H 
ATOM     43  H18 627 d   1      20.959  45.295  29.234  0.00  0.00     0.058 H 
ATOM     44  H19 627 d   1      19.511  45.495  30.277  0.00  0.00     0.058 H 
BRANCH  35  45
ATOM     45  C23 627 d   1      17.748  47.891  27.314  0.00  0.00     0.066 C 
ATOM     46  H20 627 d   1      16.694  47.870  27.001  0.00  0.00     0.068 H 
ATOM     47  H21 627 d   1      18.392  47.985  26.427  0.00  0.00     0.068 H 
ATOM     48  H22 627 d   1      17.915  48.749  27.981  0.00  0.00     0.068 H 
ENDBRANCH  35  45
ENDBRANCH  24  30
ENDBRANCH  17  20
ENDBRANCH   3  16
BRANCH   9  49
ATOM     49  C20 627 d   1      24.493  35.094  23.202  0.00  0.00     0.140 C 
ATOM     50  H27 627 d   1      23.879  35.016  24.111  0.00  0.00     0.106 H 
BRANCH  49  51
ATOM     51  C27 627 d   1      23.878  36.159  22.263  0.00  0.00    -0.020 A 
ATOM     52  C28 627 d   1      22.587  36.700  22.501  0.00  0.00    -0.074 A 
ATOM     53  C31 627 d   1      22.049  37.689  21.644  0.00  0.00    -0.082 A 
ATOM     54  H23 627 d   1      22.007  36.352  23.348  0.00  0.00     0.084 H 
ATOM     55  C35 627 d   1      22.796  38.158  20.529  0.00  0.00    -0.083 A 
ATOM     56  H25 627 d   1      21.061  38.091  21.839  0.00  0.00     0.083 H 
ATOM     57  C33 627 d   1      24.085  37.624  20.280  0.00  0.00    -0.082 A 
ATOM     58  H28 627 d   1      22.383  38.917  19.875  0.00  0.00     0.083 H 
ATOM     59  C29 627 d   1      24.616  36.640  21.135  0.00  0.00    -0.074 A 
ATOM     60  H26 627 d   1      24.662  37.973  19.431  0.00  0.00     0.083 H 
ATOM     61  H24 627 d   1      25.603  36.239  20.935  0.00  0.00     0.084 H 
ENDBRANCH  49  51
BRANCH  49  62
ATOM     62  O34 627 d   1      24.581  33.790  22.556  0.00  0.00    -0.377 OA
BRANCH  62  63
ATOM     63  C36 627 d   1      23.337  33.133  22.341  0.00  0.00     0.005 C 
ATOM     64  H29 627 d   1      23.514  32.164  21.851  0.00  0.00     0.066 H 
ATOM     65  H30 627 d   1      22.699  33.757  21.698  0.00  0.00     0.066 H 
ATOM     66  H31 627 d   1      22.837  32.970  23.307  0.00  0.00     0.066 H 
ENDBRANCH  62  63
ENDBRANCH  49  62
ENDBRANCH   9  49
TORSDOF 8
