REMARK  9 active torsions:
REMARK  status: ('A' for Active; 'I' for Inactive)
REMARK    1  A    between atoms: NBF_3  and  CAN_4 
REMARK    2  A    between atoms: CAN_4  and  CAA_5 
REMARK    3  A    between atoms: NBG_8  and  CAS_9 
REMARK    4  A    between atoms: CAS_9  and  CAX_10 
REMARK    5  A    between atoms: CAY_15  and  CBA_16 
REMARK    6  A    between atoms: C6_24  and  NAV_25 
REMARK    7  A    between atoms: NAV_25  and  CBE_26 
REMARK    8  A    between atoms: CBE_26  and  CAB_27 
REMARK    9  A    between atoms: CBE_26  and  CAZ_28 
ROOT
ATOM      1  CAX AEE d   1     -50.505  -0.085 -15.990  0.00  0.00    -0.033 A 
ATOM      2  CAI AEE d   1     -51.545   0.807 -16.147  0.00  0.00    -0.074 A 
ATOM      3  CAK AEE d   1     -52.151   0.955 -17.383  0.00  0.00    -0.070 A 
ATOM      4  CAJ AEE d   1     -50.077  -0.831 -17.069  0.00  0.00    -0.074 A 
ATOM      5  CAL AEE d   1     -50.679  -0.680 -18.307  0.00  0.00    -0.070 A 
ATOM      6  CAY AEE d   1     -51.722   0.209 -18.463  0.00  0.00    -0.009 A 
ATOM      7  H18 AEE d   1     -51.888   1.393 -15.302  0.00  0.00     0.084 H 
ATOM      8  H19 AEE d   1     -52.966   1.660 -17.503  0.00  0.00     0.084 H 
ATOM      9  H20 AEE d   1     -49.265  -1.539 -16.947  0.00  0.00     0.084 H 
ATOM     10  H21 AEE d   1     -50.331  -1.260 -19.154  0.00  0.00     0.084 H 
ENDROOT
BRANCH   6  11
ATOM     11  CBA AEE d   1     -52.328   0.373 -19.696  0.00  0.00     0.045 A 
ATOM     12  NAW AEE d   1     -53.366   1.159 -19.940  0.00  0.00    -0.339 N 
ATOM     13  C4  AEE d   1     -53.653   1.065 -21.225  0.00  0.00     0.143 A 
ATOM     14  H22 AEE d   1     -53.861   1.741 -19.249  0.00  0.00     0.167 HD
ATOM     15  C5  AEE d   1     -52.763   0.189 -21.783  0.00  0.00     0.058 A 
ATOM     16  N3  AEE d   1     -54.587   1.623 -21.992  0.00  0.00    -0.223 NA
ATOM     17  CAM AEE d   1     -51.957  -0.218 -20.822  0.00  0.00    -0.039 A 
ATOM     18  C6  AEE d   1     -52.863  -0.078 -23.129  0.00  0.00     0.139 A 
ATOM     19  H23 AEE d   1     -51.130  -0.918 -20.934  0.00  0.00     0.088 H 
ATOM     20  N1  AEE d   1     -53.817   0.509 -23.843  0.00  0.00    -0.224 NA
ATOM     21  C2  AEE d   1     -54.659   1.343 -23.276  0.00  0.00     0.091 A 
ATOM     22  H24 AEE d   1     -55.429   1.810 -23.878  0.00  0.00     0.146 H 
BRANCH  18  23
ATOM     23  NAV AEE d   1     -52.034  -0.909 -23.725  0.00  0.00    -0.366 N 
ATOM     24  H25 AEE d   1     -51.192  -1.254 -23.242  0.00  0.00     0.161 HD
BRANCH  23  25
ATOM     25  CBE AEE d   1     -52.341  -1.327 -25.089  0.00  0.00     0.033 C 
ATOM     26  H26 AEE d   1     -53.330  -1.808 -25.110  0.00  0.00     0.079 H 
BRANCH  25  27
ATOM     27  CAB AEE d   1     -51.287  -2.308 -25.573  0.00  0.00    -0.053 C 
ATOM     28  H27 AEE d   1     -51.522  -2.621 -26.601  0.00  0.00     0.030 H 
ATOM     29  H28 AEE d   1     -51.277  -3.189 -24.915  0.00  0.00     0.030 H 
ATOM     30  H29 AEE d   1     -50.299  -1.824 -25.553  0.00  0.00     0.030 H 
ENDBRANCH  25  27
BRANCH  25  31
ATOM     31  CAZ AEE d   1     -52.344  -0.122 -26.001  0.00  0.00    -0.036 A 
ATOM     32  CAG AEE d   1     -52.224   1.144 -25.467  0.00  0.00    -0.075 A 
ATOM     33  CAD AEE d   1     -52.230   2.245 -26.305  0.00  0.00    -0.082 A 
ATOM     34  H30 AEE d   1     -52.125   1.276 -24.396  0.00  0.00     0.084 H 
ATOM     35  CAC AEE d   1     -52.355   2.079 -27.671  0.00  0.00    -0.083 A 
ATOM     36  H31 AEE d   1     -52.136   3.241 -25.888  0.00  0.00     0.083 H 
ATOM     37  CAE AEE d   1     -52.472   0.811 -28.203  0.00  0.00    -0.082 A 
ATOM     38  H32 AEE d   1     -52.361   2.944 -28.324  0.00  0.00     0.083 H 
ATOM     39  CAH AEE d   1     -52.467  -0.292 -27.368  0.00  0.00    -0.075 A 
ATOM     40  H33 AEE d   1     -52.568   0.679 -29.275  0.00  0.00     0.083 H 
ATOM     41  H34 AEE d   1     -52.559  -1.288 -27.785  0.00  0.00     0.084 H 
ENDBRANCH  25  31
ENDBRANCH  23  25
ENDBRANCH  18  23
ENDBRANCH   6  11
BRANCH   1  42
ATOM     42  CAS AEE d   1     -49.846  -0.252 -14.626  0.00  0.00     0.107 C 
ATOM     43  H16 AEE d   1     -48.851  -0.706 -14.746  0.00  0.00     0.083 H 
ATOM     44  H17 AEE d   1     -49.745   0.729 -14.139  0.00  0.00     0.083 H 
BRANCH  42  45
ATOM     45  NBG AEE d   1     -50.695  -1.126 -13.811  0.00  0.00    -0.064 N 
ATOM     46  CAQ AEE d   1     -50.782  -0.692 -12.413  0.00  0.00     0.106 C 
ATOM     47  CAO AEE d   1     -49.483  -1.004 -11.676  0.00  0.00     0.106 C 
ATOM     48  H1  AEE d   1     -50.965   0.392 -12.381  0.00  0.00     0.078 H 
ATOM     49  H2  AEE d   1     -51.613  -1.219 -11.921  0.00  0.00     0.078 H 
ATOM     50  NBF AEE d   1     -49.186  -2.434 -11.762  0.00  0.00    -0.068 N 
ATOM     51  H3  AEE d   1     -49.587  -0.717 -10.619  0.00  0.00     0.078 H 
ATOM     52  H4  AEE d   1     -48.660  -0.434 -12.132  0.00  0.00     0.078 H 
ATOM     53  CAP AEE d   1     -48.997  -2.772 -13.170  0.00  0.00     0.106 C 
ATOM     54  H5  AEE d   1     -48.343  -2.638 -11.248  0.00  0.00     0.280 HD
ATOM     55  CAR AEE d   1     -50.300  -2.534 -13.918  0.00  0.00     0.106 C 
ATOM     56  H11 AEE d   1     -48.709  -3.830 -13.259  0.00  0.00     0.078 H 
ATOM     57  H12 AEE d   1     -48.206  -2.139 -13.598  0.00  0.00     0.078 H 
ATOM     58  H13 AEE d   1     -51.089  -3.167 -13.485  0.00  0.00     0.078 H 
ATOM     59  H14 AEE d   1     -50.163  -2.793 -14.978  0.00  0.00     0.078 H 
ATOM     60  H15 AEE d   1     -51.626  -1.056 -14.192  0.00  0.00     0.280 HD
BRANCH  50  61
ATOM     61  CAN AEE d   1     -50.295  -3.212 -11.202  0.00  0.00     0.080 C 
ATOM     62  H6  AEE d   1     -50.156  -4.276 -11.444  0.00  0.00     0.075 H 
ATOM     63  H7  AEE d   1     -51.244  -2.860 -11.632  0.00  0.00     0.075 H 
BRANCH  61  64
ATOM     64  CAA AEE d   1     -50.325  -3.034  -9.685  0.00  0.00    -0.053 C 
ATOM     65  H8  AEE d   1     -51.157  -3.618  -9.264  0.00  0.00     0.029 H 
ATOM     66  H9  AEE d   1     -50.464  -1.970  -9.443  0.00  0.00     0.029 H 
ATOM     67  H10 AEE d   1     -49.376  -3.386  -9.256  0.00  0.00     0.029 H 
ENDBRANCH  61  64
ENDBRANCH  50  61
ENDBRANCH  42  45
ENDBRANCH   1  42
TORSDOF 9
