REMARK  4 active torsions:
REMARK  status: ('A' for Active; 'I' for Inactive)
REMARK    1  A    between atoms: PG_1  and  O3B_5 
REMARK    2  A    between atoms: O3B_5  and  PB_6 
REMARK    3  A    between atoms: PB_6  and  O3A_9 
REMARK    4  A    between atoms: O3A_9  and  PA_10 
ROOT
ATOM      1  PB  GTP d   1      19.094  65.882  14.447  0.00  0.00     0.428 P 
ATOM      2  O1B GTP d   1      18.475  65.378  13.164  0.00  0.00    -0.624 OA
ATOM      3  O2B GTP d   1      20.437  65.357  14.920  0.00  0.00    -0.624 OA
ENDROOT
BRANCH   1   4
ATOM      4  O3B GTP d   1      19.139  67.499  14.439  0.00  0.00    -0.173 OA
BRANCH   4   5
ATOM      5  PG  GTP d   1      19.569  68.407  13.181  0.00  0.00     0.431 P 
ATOM      6  O1G GTP d   1      19.346  69.855  13.555  0.00  0.00    -0.616 OA
ATOM      7  O2G GTP d   1      18.892  67.856  11.948  0.00  0.00    -0.616 OA
ATOM      8  O3G GTP d   1      21.164  68.144  13.160  0.00  0.00    -0.616 OA
ENDBRANCH   4   5
ENDBRANCH   1   4
BRANCH   1   9
ATOM      9  O3A GTP d   1      17.990  65.655  15.594  0.00  0.00    -0.173 OA
BRANCH   9  10
ATOM     10  PA  GTP d   1      16.805  66.735  15.776  0.00  0.00     0.431 P 
ATOM     11  O1A GTP d   1      17.447  67.902  16.499  0.00  0.00    -0.616 OA
ATOM     12  O2A GTP d   1      16.364  67.041  14.361  0.00  0.00    -0.616 OA
ATOM     13  O5' GTP d   1      15.778  65.995  16.600  0.00  0.00    -0.616 OA
ENDBRANCH   9  10
ENDBRANCH   1   9
TORSDOF 4
