REMARK  3 active torsions:
REMARK  status: ('A' for Active; 'I' for Inactive)
REMARK    1  A    between atoms: C3_3  and  O3_4 
REMARK    2  A    between atoms: C13_14  and  C18_20 
REMARK    3  A    between atoms: C17_18  and  O17_19 
ROOT
ATOM      1  C1  EST d   1      50.361  31.380  79.366  0.00  0.00    -0.073 A 
ATOM      2  C2  EST d   1      51.047  32.320  80.153  0.00  0.00    -0.051 A 
ATOM      3  C3  EST d   1      51.667  33.443  79.574  0.00  0.00     0.066 A 
ATOM      4  C4  EST d   1      51.617  33.621  78.189  0.00  0.00    -0.044 A 
ATOM      5  C5  EST d   1      50.955  32.691  77.354  0.00  0.00    -0.049 A 
ATOM      6  C6  EST d   1      50.907  32.899  75.852  0.00  0.00    -0.040 C 
ATOM      7  C7  EST d   1      50.548  31.603  75.114  0.00  0.00    -0.057 C 
ATOM      8  C8  EST d   1      49.248  31.027  75.698  0.00  0.00    -0.042 C 
ATOM      9  C9  EST d   1      49.547  30.493  77.111  0.00  0.00    -0.024 C 
ATOM     10  C10 EST d   1      50.265  31.515  77.973  0.00  0.00    -0.047 A 
ATOM     11  C11 EST d   1      48.233  29.984  77.713  0.00  0.00    -0.057 C 
ATOM     12  C12 EST d   1      47.623  28.852  76.854  0.00  0.00    -0.055 C 
ATOM     13  C13 EST d   1      47.345  29.340  75.435  0.00  0.00    -0.014 C 
ATOM     14  C14 EST d   1      48.665  29.862  74.879  0.00  0.00    -0.041 C 
ATOM     15  C15 EST d   1      48.369  30.028  73.398  0.00  0.00    -0.058 C 
ATOM     16  C16 EST d   1      47.406  28.873  73.071  0.00  0.00    -0.040 C 
ATOM     17  C17 EST d   1      46.967  28.263  74.414  0.00  0.00     0.043 C 
ATOM     18  H1  EST d   1      49.894  30.529  79.847  0.00  0.00     0.084 H 
ATOM     19  H2  EST d   1      51.100  32.178  81.226  0.00  0.00     0.087 H 
ATOM     20  H4  EST d   1      52.094  34.488  77.746  0.00  0.00     0.088 H 
ATOM     21  H5  EST d   1      51.893  33.245  75.508  0.00  0.00     0.040 H 
ATOM     22  H6  EST d   1      50.150  33.663  75.621  0.00  0.00     0.040 H 
ATOM     23  H7  EST d   1      51.361  30.873  75.238  0.00  0.00     0.034 H 
ATOM     24  H8  EST d   1      50.407  31.817  74.044  0.00  0.00     0.034 H 
ATOM     25  H9  EST d   1      48.500  31.832  75.752  0.00  0.00     0.041 H 
ATOM     26  H10 EST d   1      50.223  29.631  77.011  0.00  0.00     0.048 H 
ATOM     27  H11 EST d   1      47.517  30.817  77.768  0.00  0.00     0.034 H 
ATOM     28  H12 EST d   1      48.428  29.600  78.725  0.00  0.00     0.034 H 
ATOM     29  H13 EST d   1      46.680  28.519  77.312  0.00  0.00     0.034 H 
ATOM     30  H14 EST d   1      48.329  28.009  76.814  0.00  0.00     0.034 H 
ATOM     31  H15 EST d   1      49.413  29.060  74.962  0.00  0.00     0.042 H 
ATOM     32  H16 EST d   1      49.292  29.946  72.805  0.00  0.00     0.033 H 
ATOM     33  H17 EST d   1      47.892  31.000  73.202  0.00  0.00     0.033 H 
ATOM     34  H18 EST d   1      47.918  28.115  72.461  0.00  0.00     0.036 H 
ATOM     35  H19 EST d   1      46.531  29.254  72.524  0.00  0.00     0.036 H 
ATOM     36  H20 EST d   1      47.533  27.341  74.613  0.00  0.00     0.084 H 
ENDROOT
BRANCH  13  37
ATOM     37  C18 EST d   1      46.260  30.440  75.435  0.00  0.00    -0.066 C 
ATOM     38  H22 EST d   1      46.526  31.217  76.167  0.00  0.00     0.028 H 
ATOM     39  H23 EST d   1      45.290  29.998  75.706  0.00  0.00     0.028 H 
ATOM     40  H24 EST d   1      46.192  30.888  74.433  0.00  0.00     0.028 H 
ENDBRANCH  13  37
BRANCH  17  41
ATOM     41  O17 EST d   1      45.558  27.944  74.438  0.00  0.00    -0.395 OA
ATOM     42  H21 EST d   1      45.365  27.316  73.752  0.00  0.00     0.210 HD
ENDBRANCH  17  41
BRANCH   3  43
ATOM     43  O3  EST d   1      52.307  34.329  80.398  0.00  0.00    -0.361 OA
ATOM     44  H3  EST d   1      51.685  34.687  81.020  0.00  0.00     0.217 HD
ENDBRANCH   3  43
TORSDOF 3
