REMARK  16 active torsions:
REMARK  status: ('A' for Active; 'I' for Inactive)
REMARK    1  A    between atoms: C1_1  and  C2_2 
REMARK    2  A    between atoms: C1_1  and  C3_3 
REMARK    3  A    between atoms: C8_8  and  C1_1 
REMARK       I    between atoms: C2_2  and  N1_24 
REMARK    4  A    between atoms: C3_3  and  S1_31 
REMARK    5  A    between atoms: S1_31  and  C4_4 
REMARK    6  A    between atoms: C8_8  and  C9_9 
REMARK    7  A    between atoms: C13_13  and  C8_8 
REMARK    8  A    between atoms: C9_9  and  C10_10 
REMARK    9  A    between atoms: C10_10  and  C11_11 
REMARK   10  A    between atoms: C10_10  and  C12_12 
REMARK       I    between atoms: N2_25  and  C13_13 
REMARK   11  A    between atoms: C14_14  and  C15_15 
REMARK   12  A    between atoms: C14_14  and  C17_17 
REMARK   13  A    between atoms: C14_14  and  N2_25 
REMARK       I    between atoms: C15_15  and  N3_26 
REMARK   14  A    between atoms: N3_26  and  C16_16 
REMARK   15  A    between atoms: C17_17  and  C18_18 
REMARK   16  A    between atoms: N1_24  and  O2_28 
ROOT
ATOM      1  C8  BAT d   1      25.001  49.843  97.994  0.00  0.00     0.036 C 
ATOM      2  H7  BAT d   1      25.019  49.337  97.017  0.00  0.00     0.056 H 
ENDROOT
BRANCH   1   3
ATOM      3  C1  BAT d   1      25.717  48.942  99.018  0.00  0.00     0.046 C 
ATOM      4  H1  BAT d   1      25.691  49.474  99.980  0.00  0.00     0.057 H 
BRANCH   3   5
ATOM      5  C2  BAT d   1      24.969  47.635  99.202  0.00  0.00     0.246 C 
ATOM      6  N1  BAT d   1      24.368  47.486 100.370  0.00  0.00    -0.237 N 
ATOM      7  H28 BAT d   1      24.392  48.223 101.045  0.00  0.00     0.197 HD
ATOM      8  O1  BAT d   1      24.912  46.778  98.329  0.00  0.00    -0.271 OA
BRANCH   6   9
ATOM      9  O2  BAT d   1      23.701  46.297 100.656  0.00  0.00    -0.287 OA
ATOM     10  H31 BAT d   1      23.326  46.347 101.527  0.00  0.00     0.244 HD
ENDBRANCH   6   9
ENDBRANCH   3   5
BRANCH   3  11
ATOM     11  C3  BAT d   1      27.196  48.678  98.697  0.00  0.00    -0.006 C 
ATOM     12  H2  BAT d   1      27.707  49.634  98.514  0.00  0.00     0.050 H 
ATOM     13  H3  BAT d   1      27.269  48.045  97.800  0.00  0.00     0.050 H 
BRANCH  11  14
ATOM     14  S1  BAT d   1      27.960  47.854 100.063  0.00  0.00    -0.122 SA
BRANCH  14  15
ATOM     15  C4  BAT d   1      29.432  47.210  99.391  0.00  0.00     0.041 A 
ATOM     16  C5  BAT d   1      30.670  47.716  99.727  0.00  0.00    -0.060 A 
ATOM     17  C6  BAT d   1      31.625  46.997  99.033  0.00  0.00    -0.075 A 
ATOM     18  H4  BAT d   1      30.861  48.537 100.417  0.00  0.00     0.086 H 
ATOM     19  C7  BAT d   1      31.094  46.004  98.218  0.00  0.00    -0.044 A 
ATOM     20  H5  BAT d   1      32.693  47.190  99.117  0.00  0.00     0.084 H 
ATOM     21  S2  BAT d   1      29.342  45.892  98.271  0.00  0.00    -0.095 SA
ATOM     22  H6  BAT d   1      31.710  45.352  97.600  0.00  0.00     0.095 H 
ENDBRANCH  14  15
ENDBRANCH  11  14
ENDBRANCH   3  11
ENDBRANCH   1   3
BRANCH   1  23
ATOM     23  C9  BAT d   1      23.537  50.093  98.393  0.00  0.00    -0.050 C 
ATOM     24  H8  BAT d   1      23.520  50.835  99.205  0.00  0.00     0.034 H 
ATOM     25  H9  BAT d   1      23.108  49.146  98.753  0.00  0.00     0.034 H 
BRANCH  23  26
ATOM     26  C10 BAT d   1      22.670  50.610  97.250  0.00  0.00    -0.060 C 
ATOM     27  H10 BAT d   1      23.119  50.265  96.307  0.00  0.00     0.038 H 
BRANCH  26  28
ATOM     28  C11 BAT d   1      22.635  52.133  97.233  0.00  0.00    -0.073 C 
ATOM     29  H11 BAT d   1      22.004  52.476  96.400  0.00  0.00     0.028 H 
ATOM     30  H12 BAT d   1      23.656  52.522  97.104  0.00  0.00     0.028 H 
ATOM     31  H13 BAT d   1      22.220  52.501  98.183  0.00  0.00     0.028 H 
ENDBRANCH  26  28
BRANCH  26  32
ATOM     32  C12 BAT d   1      21.247  50.075  97.319  0.00  0.00    -0.073 C 
ATOM     33  H14 BAT d   1      21.269  48.975  97.331  0.00  0.00     0.028 H 
ATOM     34  H15 BAT d   1      20.682  50.420  96.441  0.00  0.00     0.028 H 
ATOM     35  H16 BAT d   1      20.761  50.442  98.235  0.00  0.00     0.028 H 
ENDBRANCH  26  32
ENDBRANCH  23  26
ENDBRANCH   1  23
BRANCH   1  36
ATOM     36  C13 BAT d   1      25.703  51.174  97.865  0.00  0.00     0.223 C 
ATOM     37  N2  BAT d   1      26.177  51.498  96.653  0.00  0.00    -0.347 N 
ATOM     38  H29 BAT d   1      25.906  50.939  95.870  0.00  0.00     0.163 HD
ATOM     39  O3  BAT d   1      25.788  51.904  98.845  0.00  0.00    -0.273 OA
BRANCH  37  40
ATOM     40  C14 BAT d   1      27.076  52.636  96.424  0.00  0.00     0.093 C 
ATOM     41  H17 BAT d   1      27.742  52.682  97.298  0.00  0.00     0.088 H 
BRANCH  40  42
ATOM     42  C15 BAT d   1      26.374  53.971  96.355  0.00  0.00     0.240 C 
ATOM     43  N3  BAT d   1      26.960  54.951  97.054  0.00  0.00    -0.364 N 
ATOM     44  H30 BAT d   1      27.546  54.689  97.821  0.00  0.00     0.161 HD
ATOM     45  O4  BAT d   1      25.345  54.115  95.713  0.00  0.00    -0.271 OA
BRANCH  43  46
ATOM     46  C16 BAT d   1      26.804  56.367  96.776  0.00  0.00    -0.018 C 
ATOM     47  H18 BAT d   1      27.392  56.950  97.500  0.00  0.00     0.056 H 
ATOM     48  H19 BAT d   1      25.742  56.642  96.860  0.00  0.00     0.056 H 
ATOM     49  H20 BAT d   1      27.159  56.582  95.757  0.00  0.00     0.056 H 
ENDBRANCH  43  46
ENDBRANCH  40  42
BRANCH  40  50
ATOM     50  C17 BAT d   1      27.971  52.418  95.197  0.00  0.00    -0.014 C 
ATOM     51  H21 BAT d   1      28.549  53.331  94.992  0.00  0.00     0.043 H 
ATOM     52  H22 BAT d   1      27.350  52.173  94.323  0.00  0.00     0.043 H 
BRANCH  50  53
ATOM     53  C18 BAT d   1      28.916  51.269  95.492  0.00  0.00    -0.056 A 
ATOM     54  C19 BAT d   1      30.046  51.474  96.288  0.00  0.00    -0.077 A 
ATOM     55  C20 BAT d   1      30.910  50.417  96.576  0.00  0.00    -0.082 A 
ATOM     56  H23 BAT d   1      30.253  52.461  96.685  0.00  0.00     0.084 H 
ATOM     57  C21 BAT d   1      30.639  49.146  96.068  0.00  0.00    -0.083 A 
ATOM     58  H24 BAT d   1      31.787  50.582  97.191  0.00  0.00     0.083 H 
ATOM     59  C22 BAT d   1      29.512  48.933  95.269  0.00  0.00    -0.082 A 
ATOM     60  H25 BAT d   1      31.305  48.321  96.294  0.00  0.00     0.083 H 
ATOM     61  C23 BAT d   1      28.653  50.000  94.985  0.00  0.00    -0.077 A 
ATOM     62  H26 BAT d   1      29.305  47.946  94.871  0.00  0.00     0.083 H 
ATOM     63  H27 BAT d   1      27.778  49.837  94.367  0.00  0.00     0.084 H 
ENDBRANCH  50  53
ENDBRANCH  40  50
ENDBRANCH  37  40
ENDBRANCH   1  36
TORSDOF 16
