REMARK  10 active torsions:
REMARK  status: ('A' for Active; 'I' for Inactive)
REMARK    1  A    between atoms: PA_1  and  O3A_4 
REMARK    2  A    between atoms: PA_1  and  O5'_13 
REMARK    3  A    between atoms: O3A_4  and  PB_5 
REMARK    4  A    between atoms: PB_5  and  O3B_8 
REMARK    5  A    between atoms: O3B_8  and  PG_9 
REMARK    6  A    between atoms: O5'_13  and  C5'_14 
REMARK    7  A    between atoms: C5'_14  and  C4'_15 
REMARK    8  A    between atoms: C3'_17  and  O3'_18 
REMARK    9  A    between atoms: C1'_20  and  N1_21 
REMARK   10  A    between atoms: C5_27  and  C5M_28 
ROOT
ATOM      1  C4' TTP d   1      -7.049 -14.065 -16.116  0.00  0.00     0.087 C 
ATOM      2  O4' TTP d   1      -6.437 -15.108 -15.361  0.00  0.00    -0.356 OA
ATOM      3  C3' TTP d   1      -8.395 -14.582 -16.635  0.00  0.00     0.066 C 
ATOM      4  C2' TTP d   1      -8.463 -16.038 -16.212  0.00  0.00     0.002 C 
ATOM      5  C1' TTP d   1      -7.085 -16.354 -15.637  0.00  0.00     0.116 C 
ATOM      6  H3  TTP d   1      -6.414 -13.801 -16.974  0.00  0.00     0.090 H 
ATOM      7  H4  TTP d   1      -9.213 -14.014 -16.168  0.00  0.00     0.087 H 
ATOM      8  H6  TTP d   1      -8.676 -16.682 -17.078  0.00  0.00     0.043 H 
ATOM      9  H7  TTP d   1      -9.242 -16.182 -15.448  0.00  0.00     0.043 H 
ATOM     10  H8  TTP d   1      -6.499 -16.921 -16.375  0.00  0.00     0.118 H 
ENDROOT
BRANCH   1  11
ATOM     11  C5' TTP d   1      -7.187 -12.854 -15.215  0.00  0.00     0.058 C 
ATOM     12  H1  TTP d   1      -7.407 -13.178 -14.187  0.00  0.00     0.079 H 
ATOM     13  H2  TTP d   1      -6.252 -12.275 -15.225  0.00  0.00     0.079 H 
BRANCH  11  14
ATOM     14  O5' TTP d   1      -8.251 -12.055 -15.703  0.00  0.00    -0.287 OA
BRANCH  14  15
ATOM     15  PA  TTP d   1      -8.600 -10.667 -15.002  0.00  0.00     0.417 P 
ATOM     16  O1A TTP d   1      -9.792 -10.891 -14.102  0.00  0.00    -0.624 OA
ATOM     17  O2A TTP d   1      -7.377 -10.067 -14.323  0.00  0.00    -0.624 OA
BRANCH  15  18
ATOM     18  O3A TTP d   1      -9.052  -9.706 -16.201  0.00  0.00    -0.180 OA
BRANCH  18  19
ATOM     19  PB  TTP d   1      -9.755  -8.325 -15.766  0.00  0.00     0.428 P 
ATOM     20  O1B TTP d   1      -8.727  -7.316 -15.289  0.00  0.00    -0.624 OA
ATOM     21  O2B TTP d   1     -10.643  -7.764 -16.854  0.00  0.00    -0.624 OA
BRANCH  19  22
ATOM     22  O3B TTP d   1     -10.684  -8.780 -14.553  0.00  0.00    -0.173 OA
BRANCH  22  23
ATOM     23  PG  TTP d   1     -11.669  -7.659 -14.030  0.00  0.00     0.431 P 
ATOM     24  O1G TTP d   1     -11.070  -6.296 -14.296  0.00  0.00    -0.616 OA
ATOM     25  O2G TTP d   1     -11.843  -7.927 -12.550  0.00  0.00    -0.616 OA
ATOM     26  O3G TTP d   1     -12.947  -7.787 -14.830  0.00  0.00    -0.616 OA
ENDBRANCH  22  23
ENDBRANCH  19  22
ENDBRANCH  18  19
ENDBRANCH  15  18
ENDBRANCH  14  15
ENDBRANCH  11  14
ENDBRANCH   1  11
BRANCH   3  27
ATOM     27  O3' TTP d   1      -8.520 -14.477 -18.071  0.00  0.00    -0.393 OA
ATOM     28  H5  TTP d   1      -9.368 -14.809 -18.339  0.00  0.00     0.210 HD
ENDBRANCH   3  27
BRANCH   5  29
ATOM     29  N1  TTP d   1      -7.199 -17.142 -14.413  0.00  0.00    -0.282 N 
ATOM     30  C2  TTP d   1      -6.365 -18.272 -14.188  0.00  0.00     0.331 A 
ATOM     31  O2  TTP d   1      -5.528 -18.611 -15.039  0.00  0.00    -0.246 OA
ATOM     32  N3  TTP d   1      -6.444 -19.003 -13.071  0.00  0.00    -0.275 N 
ATOM     33  C4  TTP d   1      -7.338 -18.677 -12.131  0.00  0.00     0.256 A 
ATOM     34  H9  TTP d   1      -5.839 -19.788 -12.939  0.00  0.00     0.173 HD
ATOM     35  O4  TTP d   1      -7.420 -19.360 -11.091  0.00  0.00    -0.267 OA
ATOM     36  C5  TTP d   1      -8.230 -17.495 -12.336  0.00  0.00     0.022 A 
ATOM     37  C6  TTP d   1      -8.103 -16.765 -13.506  0.00  0.00    -0.002 A 
ATOM     38  H13 TTP d   1      -8.733 -15.894 -13.684  0.00  0.00     0.113 H 
BRANCH  36  39
ATOM     39  C5M TTP d   1      -9.254 -17.070 -11.313  0.00  0.00    -0.045 C 
ATOM     40  H10 TTP d   1      -9.790 -16.181 -11.678  0.00  0.00     0.033 H 
ATOM     41  H11 TTP d   1      -8.748 -16.830 -10.366  0.00  0.00     0.033 H 
ATOM     42  H12 TTP d   1      -9.970 -17.888 -11.149  0.00  0.00     0.033 H 
ENDBRANCH  36  39
ENDBRANCH   5  29
TORSDOF 10
