REMARK  31 active torsions:
REMARK  status: ('A' for Active; 'I' for Inactive)
REMARK    1  A    between atoms: N_1  and  CA_2 
REMARK       I    between atoms: C1_51  and  N_1 
REMARK    2  A    between atoms: CA_2  and  C_3 
REMARK    3  A    between atoms: CA_2  and  CB_5 
REMARK       I    between atoms: C_3  and  N_6 
REMARK    4  A    between atoms: N_6  and  CN_7 
REMARK    5  A    between atoms: N_6  and  CA_8 
REMARK    6  A    between atoms: CA_8  and  CB_9 
REMARK    7  A    between atoms: CA_8  and  C_13 
REMARK    8  A    between atoms: CB_9  and  CG_10 
REMARK    9  A    between atoms: CG_10  and  CD1_11 
REMARK   10  A    between atoms: CG_10  and  CD2_12 
REMARK       I    between atoms: C_13  and  N_15 
REMARK   11  A    between atoms: N_15  and  CA_16 
REMARK   12  A    between atoms: CA_16  and  C_17 
REMARK   13  A    between atoms: CA_16  and  CB_19 
REMARK       I    between atoms: C_17  and  N_27 
REMARK   14  A    between atoms: CB_19  and  CG_20 
REMARK   15  A    between atoms: CZ_25  and  OH_26 
REMARK   16  A    between atoms: N_27  and  CA_28 
REMARK   17  A    between atoms: CA_28  and  C_29 
REMARK   18  A    between atoms: CA_28  and  CB_31 
REMARK   19  A    between atoms: CB_31  and  CG_32 
REMARK   20  A    between atoms: CZ_37  and  OH_38 
REMARK   21  A    between atoms: C9_41  and  C10_40 
REMARK   22  A    between atoms: C8_42  and  C9_41 
REMARK   23  A    between atoms: C7_43  and  C8_42 
REMARK   24  A    between atoms: C6_44  and  C7_43 
REMARK   25  A    between atoms: C5_45  and  C6_44 
REMARK   26  A    between atoms: C4_46  and  C5_45 
REMARK   27  A    between atoms: C3_47  and  C4_46 
REMARK   28  A    between atoms: C3_47  and  N3_48 
REMARK   29  A    between atoms: C2_49  and  C3_47 
REMARK   30  A    between atoms: C2_49  and  OH2_50 
REMARK   31  A    between atoms: C2_49  and  C1_51 
ROOT
ATOM      1  CA  MLE d   1      66.574  50.583  22.499  0.00  0.00     0.091 C 
ATOM      2  H9  MLE d   1      65.780  51.264  22.840  0.00  0.00     0.087 H 
ENDROOT
BRANCH   1   3
ATOM      3  N   MLE d   1      66.997  51.053  21.142  0.00  0.00    -0.341 N 
ATOM      4  C   ALA d   1      66.584  52.260  20.717  0.00  0.00     0.242 C 
ATOM      5  O   ALA d   1      65.872  53.030  21.356  0.00  0.00    -0.271 OA
BRANCH   4   6
ATOM      6  CA  ALA d   1      67.068  52.697  19.351  0.00  0.00     0.086 C 
ATOM      7  H2  ALA d   1      67.415  51.812  18.798  0.00  0.00     0.086 H 
BRANCH   6   8
ATOM      8  N   ALA d   1      65.987  53.317  18.599  0.00  0.00    -0.346 N 
ATOM      9  C1  AHY d   1      64.987  52.595  18.151  0.00  0.00     0.249 C 
ATOM     10  O   AHY d   1      64.789  51.413  18.394  0.00  0.00    -0.271 OA
ATOM     11  H1  ALA d   1      66.007  54.301  18.422  0.00  0.00     0.163 HD
BRANCH   9  12
ATOM     12  C2  AHY d   1      64.031  53.364  17.241  0.00  0.00     0.139 C 
ATOM     13  H56 ALA d   1      64.193  54.448  17.333  0.00  0.00     0.101 H 
BRANCH  12  14
ATOM     14  C3  AHY d   1      62.560  53.051  17.541  0.00  0.00     0.133 C 
ATOM     15  H52 ALA d   1      62.397  51.965  17.610  0.00  0.00     0.088 H 
BRANCH  14  16
ATOM     16  C4  AHY d   1      62.175  53.731  18.878  0.00  0.00    -0.036 C 
ATOM     17  H50 ALA d   1      62.852  53.371  19.667  0.00  0.00     0.036 H 
ATOM     18  H51 ALA d   1      62.286  54.820  18.768  0.00  0.00     0.036 H 
BRANCH  16  19
ATOM     19  C5  AHY d   1      60.749  53.423  19.279  0.00  0.00    -0.063 C 
ATOM     20  H48 ALA d   1      60.064  53.969  18.614  0.00  0.00     0.033 H 
ATOM     21  H49 ALA d   1      60.574  52.342  19.177  0.00  0.00     0.033 H 
BRANCH  19  22
ATOM     22  C6  AHY d   1      60.471  53.841  20.738  0.00  0.00    -0.065 C 
ATOM     23  H46 ALA d   1      61.055  53.203  21.417  0.00  0.00     0.033 H 
ATOM     24  H47 ALA d   1      60.765  54.892  20.878  0.00  0.00     0.033 H 
BRANCH  22  25
ATOM     25  C7  AHY d   1      58.963  53.683  21.056  0.00  0.00    -0.065 C 
ATOM     26  H44 ALA d   1      58.379  54.314  20.370  0.00  0.00     0.033 H 
ATOM     27  H45 ALA d   1      58.672  52.630  20.924  0.00  0.00     0.033 H 
BRANCH  25  28
ATOM     28  C8  AHY d   1      58.677  54.113  22.514  0.00  0.00    -0.065 C 
ATOM     29  H42 ALA d   1      58.903  53.269  23.182  0.00  0.00     0.033 H 
ATOM     30  H43 ALA d   1      59.327  54.964  22.766  0.00  0.00     0.033 H 
BRANCH  28  31
ATOM     31  C9  AHY d   1      57.197  54.535  22.725  0.00  0.00    -0.069 C 
ATOM     32  H40 ALA d   1      57.103  54.971  23.731  0.00  0.00     0.032 H 
ATOM     33  H41 ALA d   1      56.945  55.295  21.971  0.00  0.00     0.032 H 
BRANCH  31  34
ATOM     34  C10 AHY d   1      56.186  53.380  22.603  0.00  0.00    -0.077 C 
ATOM     35  H37 ALA d   1      55.168  53.765  22.765  0.00  0.00     0.027 H 
ATOM     36  H38 ALA d   1      56.413  52.613  23.358  0.00  0.00     0.027 H 
ATOM     37  H39 ALA d   1      56.255  52.937  21.598  0.00  0.00     0.027 H 
ENDBRANCH  31  34
ENDBRANCH  28  31
ENDBRANCH  25  28
ENDBRANCH  22  25
ENDBRANCH  19  22
ENDBRANCH  16  19
ENDBRANCH  14  16
BRANCH  14  38
ATOM     38  N3  AHY d   1      61.761  53.632  16.405  0.00  0.00    -0.072 N 
ATOM     39  H53 ALA d   1      62.023  53.179  15.544  0.00  0.00     0.274 HD
ATOM     40  H54 ALA d   1      61.946  54.620  16.335  0.00  0.00     0.274 HD
ATOM     41  H55 ALA d   1      60.779  53.486  16.576  0.00  0.00     0.274 HD
ENDBRANCH  14  38
ENDBRANCH  12  14
BRANCH  12  42
ATOM     42  OH2 AHY d   1      64.396  52.906  15.963  0.00  0.00    -0.384 OA
ATOM     43  H57 ALA d   1      64.269  51.966  15.917  0.00  0.00     0.210 HD
ENDBRANCH  12  42
ENDBRANCH   9  12
ENDBRANCH   6   8
BRANCH   6  44
ATOM     44  CB  ALA d   1      68.264  53.685  19.519  0.00  0.00    -0.049 C 
ATOM     45  H3  ALA d   1      69.067  53.195  20.089  0.00  0.00     0.030 H 
ATOM     46  H4  ALA d   1      67.926  54.582  20.059  0.00  0.00     0.030 H 
ATOM     47  H5  ALA d   1      68.642  53.974  18.528  0.00  0.00     0.030 H 
ENDBRANCH   6  44
ENDBRANCH   4   6
BRANCH   3  48
ATOM     48  CN  MLE d   1      67.881  50.248  20.258  0.00  0.00    -0.015 C 
ATOM     49  H6  MLE d   1      68.054  50.793  19.318  0.00  0.00     0.056 H 
ATOM     50  H7  MLE d   1      67.400  49.283  20.039  0.00  0.00     0.056 H 
ATOM     51  H8  MLE d   1      68.843  50.073  20.762  0.00  0.00     0.056 H 
ENDBRANCH   3  48
ENDBRANCH   1   3
BRANCH   1  52
ATOM     52  CB  MLE d   1      65.914  49.207  22.423  0.00  0.00    -0.035 C 
ATOM     53  H10 MLE d   1      65.620  48.883  23.432  0.00  0.00     0.037 H 
ATOM     54  H11 MLE d   1      66.623  48.481  21.997  0.00  0.00     0.037 H 
BRANCH  52  55
ATOM     55  CG  MLE d   1      64.640  49.298  21.507  0.00  0.00    -0.059 C 
ATOM     56  H12 MLE d   1      64.982  49.511  20.483  0.00  0.00     0.038 H 
BRANCH  55  57
ATOM     57  CD1 MLE d   1      63.896  47.958  21.503  0.00  0.00    -0.073 C 
ATOM     58  H13 MLE d   1      63.007  48.034  20.859  0.00  0.00     0.028 H 
ATOM     59  H14 MLE d   1      63.586  47.708  22.528  0.00  0.00     0.028 H 
ATOM     60  H15 MLE d   1      64.561  47.170  21.119  0.00  0.00     0.028 H 
ENDBRANCH  55  57
BRANCH  55  61
ATOM     61  CD2 MLE d   1      63.657  50.412  21.916  0.00  0.00    -0.073 C 
ATOM     62  H16 MLE d   1      64.181  51.379  21.922  0.00  0.00     0.028 H 
ATOM     63  H17 MLE d   1      63.263  50.202  22.921  0.00  0.00     0.028 H 
ATOM     64  H18 MLE d   1      62.826  50.450  21.197  0.00  0.00     0.028 H 
ENDBRANCH  55  61
ENDBRANCH  52  55
ENDBRANCH   1  52
BRANCH   1  65
ATOM     65  C   MLE d   1      67.761  50.782  23.513  0.00  0.00     0.241 C 
ATOM     66  O   MLE d   1      68.881  51.107  23.084  0.00  0.00    -0.271 OA
ATOM     67  N   TYR d   1      67.406  50.706  24.824  0.00  0.00    -0.346 N 
ATOM     68  H19 TYR d   1      66.471  50.414  25.024  0.00  0.00     0.163 HD
BRANCH  67  69
ATOM     69  CA  TYR d   1      68.295  51.023  26.008  0.00  0.00     0.093 C 
ATOM     70  H20 TYR d   1      69.269  51.344  25.612  0.00  0.00     0.088 H 
BRANCH  69  71
ATOM     71  C   TYR d   1      68.585  49.963  27.112  0.00  0.00     0.241 C 
ATOM     72  O   TYR d   1      68.246  50.182  28.283  0.00  0.00    -0.271 OA
ATOM     73  N   TYR d   1      69.262  48.853  26.800  0.00  0.00    -0.344 N 
ATOM     74  H28 TYR d   1      69.438  48.224  27.557  0.00  0.00     0.163 HD
BRANCH  73  75
ATOM     75  CA  TYR d   1      69.778  48.439  25.496  0.00  0.00     0.100 C 
ATOM     76  H29 TYR d   1      69.421  49.103  24.695  0.00  0.00     0.090 H 
BRANCH  75  77
ATOM     77  C   TYR d   1      69.231  47.022  25.309  0.00  0.00     0.197 C 
ATOM     78  O   TYR d   1      69.954  46.064  25.693  0.00  0.00    -0.646 OA
ATOM     79  OXT TYR d   1      68.079  46.930  24.814  0.00  0.00    -0.646 OA
ENDBRANCH  75  77
BRANCH  75  80
ATOM     80  CB  TYR d   1      71.333  48.458  25.544  0.00  0.00    -0.013 C 
ATOM     81  H30 TYR d   1      71.699  47.651  24.893  0.00  0.00     0.043 H 
ATOM     82  H31 TYR d   1      71.640  48.260  26.582  0.00  0.00     0.043 H 
BRANCH  80  83
ATOM     83  CG  TYR d   1      72.015  49.780  25.091  0.00  0.00    -0.056 A 
ATOM     84  CD1 TYR d   1      71.346  51.002  25.213  0.00  0.00    -0.074 A 
ATOM     85  CE1 TYR d   1      71.948  52.195  24.806  0.00  0.00    -0.051 A 
ATOM     86  H32 TYR d   1      70.346  51.024  25.630  0.00  0.00     0.084 H 
ATOM     87  CZ  TYR d   1      73.242  52.183  24.279  0.00  0.00     0.065 A 
ATOM     88  H34 TYR d   1      71.410  53.132  24.899  0.00  0.00     0.087 H 
ATOM     89  CE2 TYR d   1      73.930  50.961  24.157  0.00  0.00    -0.051 A 
ATOM     90  CD2 TYR d   1      73.317  49.766  24.559  0.00  0.00    -0.074 A 
ATOM     91  H35 TYR d   1      74.935  50.944  23.752  0.00  0.00     0.087 H 
ATOM     92  H33 TYR d   1      73.849  48.827  24.459  0.00  0.00     0.084 H 
BRANCH  87  93
ATOM     93  OH  TYR d   1      73.803  53.372  23.897  0.00  0.00    -0.361 OA
ATOM     94  H36 TYR d   1      74.595  53.523  24.399  0.00  0.00     0.217 HD
ENDBRANCH  87  93
ENDBRANCH  80  83
ENDBRANCH  75  80
ENDBRANCH  73  75
ENDBRANCH  69  71
BRANCH  69  95
ATOM     95  CB  TYR d   1      67.567  52.220  26.704  0.00  0.00    -0.014 C 
ATOM     96  H21 TYR d   1      67.583  53.096  26.040  0.00  0.00     0.043 H 
ATOM     97  H22 TYR d   1      68.080  52.464  27.646  0.00  0.00     0.043 H 
BRANCH  95  98
ATOM     98  CG  TYR d   1      66.112  51.827  26.999  0.00  0.00    -0.056 A 
ATOM     99  CD1 TYR d   1      65.134  52.021  26.010  0.00  0.00    -0.074 A 
ATOM    100  CE1 TYR d   1      63.808  51.646  26.226  0.00  0.00    -0.051 A 
ATOM    101  H23 TYR d   1      65.414  52.469  25.064  0.00  0.00     0.084 H 
ATOM    102  CZ  TYR d   1      63.457  51.075  27.466  0.00  0.00     0.065 A 
ATOM    103  H25 TYR d   1      63.061  51.791  25.454  0.00  0.00     0.087 H 
ATOM    104  CE2 TYR d   1      64.436  50.884  28.464  0.00  0.00    -0.051 A 
ATOM    105  CD2 TYR d   1      65.764  51.255  28.233  0.00  0.00    -0.074 A 
ATOM    106  H26 TYR d   1      64.157  50.447  29.416  0.00  0.00     0.087 H 
ATOM    107  H24 TYR d   1      66.517  51.103  28.998  0.00  0.00     0.084 H 
BRANCH 102 108
ATOM    108  OH  TYR d   1      62.152  50.698  27.695  0.00  0.00    -0.361 OA
ATOM    109  H27 TYR d   1      61.627  50.895  26.928  0.00  0.00     0.217 HD
ENDBRANCH 102 108
ENDBRANCH  95  98
ENDBRANCH  69  95
ENDBRANCH  67  69
ENDBRANCH   1  65
TORSDOF 31
