REMARK  17 active torsions:
REMARK  status: ('A' for Active; 'I' for Inactive)
REMARK    1  A    between atoms: N1_1  and  CA1_2 
REMARK    2  A    between atoms: CA1_2  and  C1_3 
REMARK    3  A    between atoms: CA1_2  and  CB1_6 
REMARK    4  A    between atoms: CB1_6  and  CG1_7 
REMARK    5  A    between atoms: CG1_7  and  CD1_8 
REMARK    6  A    between atoms: N2_10  and  CA2_11 
REMARK    7  A    between atoms: CA2_11  and  C2_12 
REMARK    8  A    between atoms: CA2_11  and  CB2_14 
REMARK    9  A    between atoms: CB2_14  and  SG2_15 
REMARK   10  A    between atoms: SG2_15  and  C1S_16 
REMARK   11  A    between atoms: C1S_16  and  C2S_17 
REMARK   12  A    between atoms: C2S_17  and  C3S_18 
REMARK   13  A    between atoms: C3S_18  and  C4S_19 
REMARK   14  A    between atoms: C4S_19  and  C5S_20 
REMARK   15  A    between atoms: C5S_20  and  C6S_21 
REMARK   16  A    between atoms: N3_22  and  CA3_23 
REMARK   17  A    between atoms: CA3_23  and  C3_24 
ROOT
ATOM      1  CA2 GTX d   1       9.759  -1.786   7.485  0.00  0.00     0.084 C 
ATOM      2  H10 GTX d   1      10.522  -1.025   7.264  0.00  0.00     0.086 H 
ENDROOT
BRANCH   1   3
ATOM      3  N2  GTX d   1      10.255  -2.559   8.611  0.00  0.00    -0.359 N 
ATOM      4  CD1 GTX d   1      11.573  -2.632   8.823  0.00  0.00     0.152 C 
ATOM      5  OE1 GTX d   1      12.502  -2.144   7.894  0.00  0.00    -0.177 OA
ATOM      6  H9  GTX d   1       9.618  -3.031   9.220  0.00  0.00     0.162 HD
BRANCH   4   7
ATOM      7  CG1 GTX d   1      12.056  -3.247  10.098  0.00  0.00    -0.001 C 
ATOM      8  H7  GTX d   1      11.445  -2.885  10.938  0.00  0.00     0.045 H 
ATOM      9  H8  GTX d   1      11.978  -4.342  10.033  0.00  0.00     0.045 H 
BRANCH   7  10
ATOM     10  CB1 GTX d   1      13.506  -2.851  10.314  0.00  0.00    -0.022 C 
ATOM     11  H5  GTX d   1      14.126  -3.337   9.546  0.00  0.00     0.037 H 
ATOM     12  H6  GTX d   1      13.595  -1.759  10.220  0.00  0.00     0.037 H 
BRANCH  10  13
ATOM     13  CA1 GTX d   1      14.007  -3.272  11.695  0.00  0.00     0.183 C 
ATOM     14  H4  GTX d   1      13.432  -2.711  12.446  0.00  0.00     0.101 H 
BRANCH  13  15
ATOM     15  N1  GTX d   1      15.402  -2.912  11.832  0.00  0.00    -0.065 N 
ATOM     16  H1  GTX d   1      15.515  -1.928  11.644  0.00  0.00     0.275 HD
ATOM     17  H2  GTX d   1      15.952  -3.445  11.177  0.00  0.00     0.275 HD
ATOM     18  H3  GTX d   1      15.710  -3.112  12.771  0.00  0.00     0.275 HD
ENDBRANCH  13  15
BRANCH  13  19
ATOM     19  C1  GTX d   1      13.805  -4.736  11.970  0.00  0.00     0.204 C 
ATOM     20  O11 GTX d   1      14.555  -5.591  11.496  0.00  0.00    -0.646 OA
ATOM     21  O12 GTX d   1      12.871  -5.147  12.673  0.00  0.00    -0.646 OA
ENDBRANCH  13  19
ENDBRANCH  10  13
ENDBRANCH   7  10
ENDBRANCH   4   7
ENDBRANCH   1   3
BRANCH   1  22
ATOM     22  C2  GTX d   1       8.479  -1.054   7.737  0.00  0.00     0.175 C 
ATOM     23  O2  GTX d   1       7.675  -1.400   8.845  0.00  0.00    -0.175 OA
ATOM     24  N3  GTX d   1       8.190  -0.105   6.839  0.00  0.00    -0.360 N 
ATOM     25  H26 GTX d   1       8.800   0.003   6.054  0.00  0.00     0.162 HD
BRANCH  24  26
ATOM     26  CA3 GTX d   1       7.041   0.778   6.938  0.00  0.00     0.074 C 
ATOM     27  H27 GTX d   1       6.401   0.421   7.758  0.00  0.00     0.080 H 
ATOM     28  H28 GTX d   1       6.485   0.729   5.990  0.00  0.00     0.080 H 
BRANCH  26  29
ATOM     29  C3  GTX d   1       7.397   2.235   7.209  0.00  0.00     0.191 C 
ATOM     30  O31 GTX d   1       6.518   3.102   6.998  0.00  0.00    -0.647 OA
ATOM     31  O32 GTX d   1       8.535   2.599   7.633  0.00  0.00    -0.647 OA
ENDBRANCH  26  29
ENDBRANCH  24  26
ENDBRANCH   1  22
BRANCH   1  32
ATOM     32  CB2 GTX d   1       9.615  -2.661   6.260  0.00  0.00     0.003 C 
ATOM     33  H11 GTX d   1      10.585  -3.129   6.038  0.00  0.00     0.052 H 
ATOM     34  H12 GTX d   1       9.306  -2.037   5.409  0.00  0.00     0.052 H 
BRANCH  32  35
ATOM     35  SG2 GTX d   1       8.381  -3.958   6.517  0.00  0.00    -0.167 SA
BRANCH  35  36
ATOM     36  C1S GTX d   1       8.413  -4.051   4.715  0.00  0.00    -0.023 C 
ATOM     37  H13 GTX d   1       9.458  -3.963   4.384  0.00  0.00     0.049 H 
ATOM     38  H14 GTX d   1       7.829  -3.208   4.316  0.00  0.00     0.049 H 
BRANCH  36  39
ATOM     39  C2S GTX d   1       7.841  -5.337   4.148  0.00  0.00    -0.057 C 
ATOM     40  H15 GTX d   1       8.045  -6.168   4.839  0.00  0.00     0.034 H 
ATOM     41  H16 GTX d   1       8.304  -5.549   3.173  0.00  0.00     0.034 H 
BRANCH  39  42
ATOM     42  C3S GTX d   1       6.343  -5.176   3.975  0.00  0.00    -0.064 C 
ATOM     43  H17 GTX d   1       5.961  -4.510   4.762  0.00  0.00     0.033 H 
ATOM     44  H18 GTX d   1       5.864  -6.162   4.064  0.00  0.00     0.033 H 
BRANCH  42  45
ATOM     45  C4S GTX d   1       6.005  -4.582   2.616  0.00  0.00    -0.065 C 
ATOM     46  H19 GTX d   1       6.693  -4.986   1.859  0.00  0.00     0.033 H 
ATOM     47  H20 GTX d   1       6.108  -3.488   2.659  0.00  0.00     0.033 H 
BRANCH  45  48
ATOM     48  C5S GTX d   1       4.569  -4.942   2.240  0.00  0.00    -0.069 C 
ATOM     49  H21 GTX d   1       3.935  -4.897   3.138  0.00  0.00     0.032 H 
ATOM     50  H22 GTX d   1       4.545  -5.960   1.825  0.00  0.00     0.032 H 
BRANCH  48  51
ATOM     51  C6S GTX d   1       4.045  -3.961   1.202  0.00  0.00    -0.077 C 
ATOM     52  H23 GTX d   1       3.011  -4.226   0.936  0.00  0.00     0.027 H 
ATOM     53  H24 GTX d   1       4.678  -4.005   0.303  0.00  0.00     0.027 H 
ATOM     54  H25 GTX d   1       4.067  -2.942   1.616  0.00  0.00     0.027 H 
ENDBRANCH  48  51
ENDBRANCH  45  48
ENDBRANCH  42  45
ENDBRANCH  39  42
ENDBRANCH  36  39
ENDBRANCH  35  36
ENDBRANCH  32  35
ENDBRANCH   1  32
TORSDOF 17
