REMARK  11 active torsions:
REMARK  status: ('A' for Active; 'I' for Inactive)
REMARK    1  A    between atoms: O3B_8  and  PG_1 
REMARK    2  A    between atoms: PB_5  and  O3B_8 
REMARK    3  A    between atoms: O3A_12  and  PB_5 
REMARK    4  A    between atoms: PA_9  and  O3A_12 
REMARK    5  A    between atoms: O5'_23  and  PA_9 
REMARK    6  A    between atoms: C1'_31  and  N9_13 
REMARK    7  A    between atoms: C6_17  and  N6_18 
REMARK    8  A    between atoms: C5'_24  and  O5'_23 
REMARK    9  A    between atoms: C4'_25  and  C5'_24 
REMARK   10  A    between atoms: C3'_27  and  O3'_28 
REMARK   11  A    between atoms: C2'_29  and  O2'_30 
ROOT
ATOM      1  C4' ATP d   1       9.682  73.368  52.192  0.00  0.00     0.089 C 
ATOM      2  O4' ATP d   1       9.347  73.552  50.801  0.00  0.00    -0.353 OA
ATOM      3  C3' ATP d   1      10.355  71.992  52.299  0.00  0.00     0.091 C 
ATOM      4  C2' ATP d   1      10.954  71.782  50.921  0.00  0.00     0.105 C 
ATOM      5  C1' ATP d   1      10.003  72.549  50.002  0.00  0.00     0.139 C 
ATOM      6  H7  ATP d   1       8.773  73.373  52.811  0.00  0.00     0.090 H 
ATOM      7  H8  ATP d   1      11.123  71.974  53.087  0.00  0.00     0.091 H 
ATOM      8  H10 ATP d   1      11.984  72.164  50.859  0.00  0.00     0.093 H 
ATOM      9  H12 ATP d   1       9.269  71.866  49.549  0.00  0.00     0.122 H 
ENDROOT
BRANCH   1  10
ATOM     10  C5' ATP d   1      10.576  74.543  52.612  0.00  0.00     0.058 C 
ATOM     11  H5  ATP d   1      10.332  75.418  51.992  0.00  0.00     0.079 H 
ATOM     12  H6  ATP d   1      10.385  74.778  53.669  0.00  0.00     0.079 H 
BRANCH  10  13
ATOM     13  O5' ATP d   1      11.961  74.229  52.448  0.00  0.00    -0.287 OA
BRANCH  13  14
ATOM     14  PA  ATP d   1      13.050  75.378  52.509  0.00  0.00     0.417 P 
ATOM     15  O1A ATP d   1      12.317  76.632  52.273  0.00  0.00    -0.624 OA
ATOM     16  O2A ATP d   1      14.189  75.020  51.654  0.00  0.00    -0.624 OA
BRANCH  14  17
ATOM     17  O3A ATP d   1      13.538  75.336  54.042  0.00  0.00    -0.180 OA
BRANCH  17  18
ATOM     18  PB  ATP d   1      13.521  74.003  54.930  0.00  0.00     0.428 P 
ATOM     19  O1B ATP d   1      12.132  73.701  55.300  0.00  0.00    -0.624 OA
ATOM     20  O2B ATP d   1      14.330  72.978  54.260  0.00  0.00    -0.624 OA
BRANCH  18  21
ATOM     21  O3B ATP d   1      14.350  74.421  56.220  0.00  0.00    -0.173 OA
BRANCH  21  22
ATOM     22  PG  ATP d   1      14.298  75.923  56.807  0.00  0.00     0.431 P 
ATOM     23  O1G ATP d   1      14.813  75.802  58.354  0.00  0.00    -0.616 OA
ATOM     24  O2G ATP d   1      15.461  76.760  56.026  0.00  0.00    -0.616 OA
ATOM     25  O3G ATP d   1      12.951  76.557  56.699  0.00  0.00    -0.616 OA
ENDBRANCH  21  22
ENDBRANCH  18  21
ENDBRANCH  17  18
ENDBRANCH  14  17
ENDBRANCH  13  14
ENDBRANCH  10  13
ENDBRANCH   1  10
BRANCH   3  26
ATOM     26  O3' ATP d   1       9.360  70.981  52.539  0.00  0.00    -0.390 OA
ATOM     27  H9  ATP d   1       9.782  70.132  52.604  0.00  0.00     0.210 HD
ENDBRANCH   3  26
BRANCH   5  28
ATOM     28  N9  ATP d   1      10.782  73.246  48.949  0.00  0.00    -0.294 N 
ATOM     29  C8  ATP d   1      12.042  73.667  49.049  0.00  0.00     0.071 A 
ATOM     30  N7  ATP d   1      12.398  74.253  47.907  0.00  0.00    -0.236 NA
ATOM     31  H1  ATP d   1      12.679  73.551  49.925  0.00  0.00     0.144 H 
ATOM     32  C5  ATP d   1      11.359  74.203  47.082  0.00  0.00     0.149 A 
ATOM     33  C6  ATP d   1      11.145  74.632  45.785  0.00  0.00     0.155 A 
ATOM     34  C4  ATP d   1      10.334  73.564  47.741  0.00  0.00     0.167 A 
ATOM     35  N1  ATP d   1       9.956  74.423  45.223  0.00  0.00    -0.222 NA
ATOM     36  C2  ATP d   1       8.991  73.809  45.881  0.00  0.00     0.091 A 
ATOM     37  N3  ATP d   1       9.164  73.382  47.118  0.00  0.00    -0.222 NA
ATOM     38  H4  ATP d   1       8.035  73.652  45.395  0.00  0.00     0.146 H 
BRANCH  33  39
ATOM     39  N6  ATP d   1      12.110  75.244  45.113  0.00  0.00    -0.382 N 
ATOM     40  H2  ATP d   1      11.944  75.561  44.147  0.00  0.00     0.157 HD
ATOM     41  H3  ATP d   1      13.026  75.403  45.557  0.00  0.00     0.157 HD
ENDBRANCH  33  39
ENDBRANCH   5  28
BRANCH   4  42
ATOM     42  O2' ATP d   1      10.908  70.386  50.584  0.00  0.00    -0.388 OA
ATOM     43  H11 ATP d   1      11.405  69.890  51.224  0.00  0.00     0.210 HD
ENDBRANCH   4  42
TORSDOF 11
