REMARK  9 active torsions:
REMARK  status: ('A' for Active; 'I' for Inactive)
REMARK    1  A    between atoms: O3A_8  and  PB_1 
REMARK    2  A    between atoms: PA_5  and  O3A_8 
REMARK    3  A    between atoms: O5'_19  and  PA_5 
REMARK    4  A    between atoms: C1'_27  and  N9_9 
REMARK    5  A    between atoms: C6_13  and  N6_14 
REMARK    6  A    between atoms: C5'_20  and  O5'_19 
REMARK    7  A    between atoms: C4'_21  and  C5'_20 
REMARK    8  A    between atoms: C3'_23  and  O3'_24 
REMARK    9  A    between atoms: C2'_25  and  O2'_26 
ROOT
ATOM      1  C4' ADP d   1       9.914  74.801  52.878  0.00  0.00     0.089 C 
ATOM      2  O4' ADP d   1       9.302  74.608  51.594  0.00  0.00    -0.353 OA
ATOM      3  C3' ADP d   1      10.484  73.434  53.205  0.00  0.00     0.091 C 
ATOM      4  C2' ADP d   1      11.026  72.971  51.857  0.00  0.00     0.105 C 
ATOM      5  C1' ADP d   1      10.171  73.717  50.822  0.00  0.00     0.139 C 
ATOM      6  H7  ADP d   1       9.181  75.109  53.638  0.00  0.00     0.090 H 
ATOM      7  H8  ADP d   1      11.265  73.478  53.978  0.00  0.00     0.091 H 
ATOM      8  H10 ADP d   1      12.093  73.215  51.750  0.00  0.00     0.093 H 
ATOM      9  H12 ADP d   1       9.546  72.995  50.276  0.00  0.00     0.122 H 
ENDROOT
BRANCH   5  10
ATOM     10  N9  ADP d   1      11.032  74.437  49.813  0.00  0.00    -0.294 N 
ATOM     11  C8  ADP d   1      12.257  74.921  50.032  0.00  0.00     0.071 A 
ATOM     12  N7  ADP d   1      12.720  75.491  48.922  0.00  0.00    -0.236 NA
ATOM     13  H1  ADP d   1      12.796  74.859  50.976  0.00  0.00     0.144 H 
ATOM     14  C5  ADP d   1      11.787  75.367  47.986  0.00  0.00     0.149 A 
ATOM     15  C6  ADP d   1      11.709  75.763  46.661  0.00  0.00     0.155 A 
ATOM     16  C4  ADP d   1      10.713  74.697  48.545  0.00  0.00     0.167 A 
ATOM     17  N1  ADP d   1      10.598  75.485  45.958  0.00  0.00    -0.222 NA
ATOM     18  C2  ADP d   1       9.584  74.839  46.520  0.00  0.00     0.091 A 
ATOM     19  N3  ADP d   1       9.628  74.449  47.787  0.00  0.00    -0.222 NA
ATOM     20  H4  ADP d   1       8.700  74.625  45.930  0.00  0.00     0.146 H 
BRANCH  15  21
ATOM     21  N6  ADP d   1      12.727  76.407  46.104  0.00  0.00    -0.382 N 
ATOM     22  H2  ADP d   1      12.672  76.703  45.119  0.00  0.00     0.157 HD
ATOM     23  H3  ADP d   1      13.572  76.611  46.657  0.00  0.00     0.157 HD
ENDBRANCH  15  21
ENDBRANCH   5  10
BRANCH   4  24
ATOM     24  O2' ADP d   1      10.818  71.564  51.704  0.00  0.00    -0.388 OA
ATOM     25  H11 ADP d   1      11.270  71.101  52.399  0.00  0.00     0.210 HD
ENDBRANCH   4  24
BRANCH   1  26
ATOM     26  C5' ADP d   1      10.988  75.875  52.726  0.00  0.00     0.058 C 
ATOM     27  H5  ADP d   1      11.310  75.909  51.675  0.00  0.00     0.079 H 
ATOM     28  H6  ADP d   1      10.560  76.848  53.010  0.00  0.00     0.079 H 
BRANCH  26  29
ATOM     29  O5' ADP d   1      12.114  75.615  53.541  0.00  0.00    -0.287 OA
BRANCH  29  30
ATOM     30  PA  ADP d   1      13.367  76.611  53.456  0.00  0.00     0.418 P 
ATOM     31  O1A ADP d   1      12.931  77.968  53.832  0.00  0.00    -0.624 OA
ATOM     32  O2A ADP d   1      14.008  76.411  52.141  0.00  0.00    -0.624 OA
BRANCH  30  33
ATOM     33  O3A ADP d   1      14.328  76.036  54.621  0.00  0.00    -0.173 OA
BRANCH  33  34
ATOM     34  PB  ADP d   1      13.779  75.242  55.931  0.00  0.00     0.431 P 
ATOM     35  O1B ADP d   1      12.790  76.243  56.728  0.00  0.00    -0.616 OA
ATOM     36  O2B ADP d   1      12.831  74.024  55.437  0.00  0.00    -0.616 OA
ATOM     37  O3B ADP d   1      14.879  74.767  56.803  0.00  0.00    -0.616 OA
ENDBRANCH  33  34
ENDBRANCH  30  33
ENDBRANCH  29  30
ENDBRANCH  26  29
ENDBRANCH   1  26
BRANCH   3  38
ATOM     38  O3' ADP d   1       9.416  72.576  53.600  0.00  0.00    -0.390 OA
ATOM     39  H9  ADP d   1       9.762  71.716  53.807  0.00  0.00     0.210 HD
ENDBRANCH   3  38
TORSDOF 9
