REMARK  10 active torsions:
REMARK  status: ('A' for Active; 'I' for Inactive)
REMARK    1  A    between atoms: C1_2  and  N_1 
REMARK    2  A    between atoms: C1_2  and  C_3 
REMARK    3  A    between atoms: C2_5  and  C1_2 
REMARK    4  A    between atoms: C3_6  and  C2_5 
REMARK    5  A    between atoms: C4_7  and  C3_6 
REMARK    6  A    between atoms: N5_8  and  C4_7 
REMARK       I    between atoms: C6_9  and  N5_8 
REMARK       I    between atoms: N61_10  and  C6_9 
REMARK    7  A    between atoms: C7_12  and  N61_10 
REMARK    8  A    between atoms: C10_16  and  C7_12 
REMARK    9  A    between atoms: O10_15  and  C8_13 
REMARK   10  A    between atoms: O10_15  and  C10_16 
ROOT
ATOM      1  N5  D20 d   1      16.227   3.468  62.415  0.00  0.00    -0.227 N 
ATOM      2  C6  D20 d   1      15.228   3.801  61.582  0.00  0.00     0.667 C 
ATOM      3  N61 D20 d   1      13.957   3.355  61.871  0.00  0.00    -0.225 N 
ATOM      4  N62 D20 d   1      15.539   4.533  60.484  0.00  0.00    -0.235 N 
ATOM      5  H11 D20 d   1      17.175   3.808  62.200  0.00  0.00     0.177 HD
ATOM      6  H12 D20 d   1      13.826   2.776  62.713  0.00  0.00     0.177 HD
ATOM      7  H13 D20 d   1      16.511   4.836  60.325  0.00  0.00     0.174 HD
ATOM      8  H14 D20 d   1      14.804   4.786  59.809  0.00  0.00     0.174 HD
ENDROOT
BRANCH   1   9
ATOM      9  C4  D20 d   1      16.034   2.629  63.639  0.00  0.00     0.009 C 
ATOM     10  H9  D20 d   1      15.248   1.890  63.425  0.00  0.00     0.064 H 
ATOM     11  H10 D20 d   1      16.980   2.108  63.848  0.00  0.00     0.064 H 
BRANCH   9  12
ATOM     12  C3  D20 d   1      15.621   3.416  64.924  0.00  0.00    -0.047 C 
ATOM     13  H7  D20 d   1      14.664   3.928  64.744  0.00  0.00     0.035 H 
ATOM     14  H8  D20 d   1      15.509   2.711  65.761  0.00  0.00     0.035 H 
BRANCH  12  15
ATOM     15  C2  D20 d   1      16.685   4.449  65.276  0.00  0.00    -0.028 C 
ATOM     16  H5  D20 d   1      17.634   3.936  65.493  0.00  0.00     0.036 H 
ATOM     17  H6  D20 d   1      16.824   5.133  64.426  0.00  0.00     0.036 H 
BRANCH  15  18
ATOM     18  C1  D20 d   1      16.244   5.258  66.518  0.00  0.00     0.182 C 
ATOM     19  H4  D20 d   1      17.091   5.884  66.835  0.00  0.00     0.101 H 
BRANCH  18  20
ATOM     20  N   D20 d   1      15.962   4.316  67.613  0.00  0.00    -0.065 N 
ATOM     21  H1  D20 d   1      16.768   3.731  67.769  0.00  0.00     0.275 HD
ATOM     22  H2  D20 d   1      15.172   3.741  67.366  0.00  0.00     0.275 HD
ATOM     23  H3  D20 d   1      15.753   4.831  68.454  0.00  0.00     0.275 HD
ENDBRANCH  18  20
BRANCH  18  24
ATOM     24  C   D20 d   1      15.088   6.212  66.179  0.00  0.00     0.204 C 
ATOM     25  O   D20 d   1      14.011   6.072  66.811  0.00  0.00    -0.646 OA
ATOM     26  O9  D20 d   1      15.317   7.069  65.279  0.00  0.00    -0.646 OA
ENDBRANCH  18  24
ENDBRANCH  15  18
ENDBRANCH  12  15
ENDBRANCH   9  12
ENDBRANCH   1   9
BRANCH   3  27
ATOM     27  C7  D20 d   1      12.784   3.654  61.054  0.00  0.00     0.029 C 
ATOM     28  H15 D20 d   1      12.918   4.645  60.595  0.00  0.00     0.068 H 
ATOM     29  H16 D20 d   1      11.897   3.668  61.704  0.00  0.00     0.068 H 
BRANCH  27  30
ATOM     30  C10 D20 d   1      12.560   2.634  59.950  0.00  0.00     0.034 C 
ATOM     31  H20 D20 d   1      11.544   2.734  59.540  0.00  0.00     0.076 H 
ATOM     32  H21 D20 d   1      12.699   1.615  60.340  0.00  0.00     0.076 H 
BRANCH  30  33
ATOM     33  O10 D20 d   1      13.538   2.915  58.932  0.00  0.00    -0.394 OA
BRANCH  33  34
ATOM     34  C8  D20 d   1      13.533   1.750  58.059  0.00  0.00     0.004 C 
ATOM     35  H17 D20 d   1      14.264   1.895  57.250  0.00  0.00     0.066 H 
ATOM     36  H18 D20 d   1      12.530   1.619  57.628  0.00  0.00     0.066 H 
ATOM     37  H19 D20 d   1      13.802   0.855  58.640  0.00  0.00     0.066 H 
ENDBRANCH  33  34
ENDBRANCH  30  33
ENDBRANCH  27  30
ENDBRANCH   3  27
TORSDOF 10
