REMARK  6 active torsions:
REMARK  status: ('A' for Active; 'I' for Inactive)
REMARK    1  A    between atoms: O5_1  and  C7_2 
REMARK    2  A    between atoms: C5_3  and  C6_4 
REMARK    3  A    between atoms: C6_4  and  O6_5 
REMARK    4  A    between atoms: C4_6  and  O4_7 
REMARK    5  A    between atoms: C3_8  and  O3_9 
REMARK    6  A    between atoms: C2_10  and  O2_11 
ROOT
ATOM      1  C7  YLL d   1      -2.025  10.467  10.259  0.00  0.00     0.046 C 
ATOM      2  C5  YLL d   1      -2.489  10.510   8.779  0.00  0.00     0.019 C 
ATOM      3  C4  YLL d   1      -1.246  10.624   7.860  0.00  0.00     0.070 C 
ATOM      4  C3  YLL d   1      -0.486  11.897   8.299  0.00  0.00     0.085 C 
ATOM      5  C2  YLL d   1       0.014  11.853   9.737  0.00  0.00     0.065 C 
ATOM      6  C1  YLL d   1      -1.111  11.629  10.699  0.00  0.00    -0.014 C 
ATOM      7  H2  YLL d   1      -2.931  10.511  10.881  0.00  0.00     0.083 H 
ATOM      8  H3  YLL d   1      -3.065  11.439   8.658  0.00  0.00     0.051 H 
ATOM      9  H7  YLL d   1      -0.610   9.735   7.984  0.00  0.00     0.087 H 
ATOM     10  H9  YLL d   1      -1.181  12.743   8.191  0.00  0.00     0.090 H 
ATOM     11  H11 YLL d   1       0.755  11.047   9.846  0.00  0.00     0.087 H 
ATOM     12  H13 YLL d   1      -0.691  11.395  11.688  0.00  0.00     0.040 H 
ATOM     13  H14 YLL d   1      -1.712  12.548  10.763  0.00  0.00     0.040 H 
ENDROOT
BRANCH   2  14
ATOM     14  C6  YLL d   1      -3.426   9.382   8.366  0.00  0.00     0.025 C 
ATOM     15  H4  YLL d   1      -3.683   9.498   7.303  0.00  0.00     0.074 H 
ATOM     16  H5  YLL d   1      -4.342   9.433   8.973  0.00  0.00     0.074 H 
BRANCH  14  17
ATOM     17  O6  YLL d   1      -2.805   8.111   8.562  0.00  0.00    -0.400 OA
ATOM     18  H6  YLL d   1      -2.015   8.062   8.037  0.00  0.00     0.209 HD
ENDBRANCH  14  17
ENDBRANCH   2  14
BRANCH   1  19
ATOM     19  O5  YLL d   1      -1.352   9.226  10.530  0.00  0.00    -0.395 OA
ATOM     20  H1  YLL d   1      -1.073   9.210  11.438  0.00  0.00     0.210 HD
ENDBRANCH   1  19
BRANCH   3  21
ATOM     21  O4  YLL d   1      -1.607  10.758   6.486  0.00  0.00    -0.392 OA
ATOM     22  H8  YLL d   1      -2.107   9.997   6.216  0.00  0.00     0.210 HD
ENDBRANCH   3  21
BRANCH   4  23
ATOM     23  O3  YLL d   1       0.682  12.154   7.518  0.00  0.00    -0.390 OA
ATOM     24  H10 YLL d   1       0.434  12.267   6.608  0.00  0.00     0.210 HD
ENDBRANCH   4  23
BRANCH   5  25
ATOM     25  O2  YLL d   1       0.611  13.109  10.023  0.00  0.00    -0.393 OA
ATOM     26  H12 YLL d   1       1.334  13.258   9.425  0.00  0.00     0.210 HD
ENDBRANCH   5  25
TORSDOF 6
