REMARK  13 active torsions:
REMARK  status: ('A' for Active; 'I' for Inactive)
REMARK    1  A    between atoms: S35_2  and  C13_5 
REMARK    2  A    between atoms: C13_5  and  C12_6 
REMARK    3  A    between atoms: C12_6  and  N1_7 
REMARK    4  A    between atoms: C6_11  and  S39_12 
REMARK    5  A    between atoms: C3_18  and  C11_19 
REMARK    6  A    between atoms: C3_18  and  C10_20 
REMARK    7  A    between atoms: C14_22  and  C15_23 
REMARK    8  A    between atoms: C15_23  and  C16_24 
REMARK    9  A    between atoms: C16_24  and  C17_25 
REMARK   10  A    between atoms: C17_25  and  C34_26 
REMARK   11  A    between atoms: C17_25  and  C18_27 
REMARK   12  A    between atoms: C18_27  and  C19_28 
REMARK   13  A    between atoms: C20_29  and  C22_30 
ROOT
ATOM      1  N1  T5C d   1      24.227   6.806  35.584  0.00  0.00    -0.348 N 
ATOM      2  C9  T5C d   1      25.441   7.442  35.949  0.00  0.00     0.042 A 
ATOM      3  C8  T5C d   1      25.777   8.832  35.847  0.00  0.00    -0.055 A 
ATOM      4  C7  T5C d   1      27.048   9.275  36.289  0.00  0.00    -0.057 A 
ATOM      5  C6  T5C d   1      27.971   8.327  36.823  0.00  0.00     0.081 A 
ATOM      6  C5  T5C d   1      27.638   6.946  36.913  0.00  0.00    -0.050 A 
ATOM      7  C4  T5C d   1      26.365   6.493  36.471  0.00  0.00    -0.016 A 
ATOM      8  C3  T5C d   1      25.773   5.091  36.469  0.00  0.00     0.024 A 
ATOM      9  C2  T5C d   1      24.373   5.393  35.879  0.00  0.00     0.024 A 
ATOM     10  C14 T5C d   1      23.319   4.474  35.643  0.00  0.00    -0.060 C 
ATOM     11  H5  T5C d   1      25.065   9.538  35.435  0.00  0.00     0.087 H 
ATOM     12  H6  T5C d   1      27.316  10.323  36.222  0.00  0.00     0.086 H 
ATOM     13  H7  T5C d   1      28.354   6.240  37.318  0.00  0.00     0.086 H 
ATOM     14  H14 T5C d   1      22.401   4.874  35.214  0.00  0.00     0.086 H 
ENDROOT
BRANCH   1  15
ATOM     15  C12 T5C d   1      23.056   7.513  35.027  0.00  0.00     0.015 C 
ATOM     16  H3  T5C d   1      23.391   8.220  34.254  0.00  0.00     0.066 H 
ATOM     17  H4  T5C d   1      22.366   6.781  34.581  0.00  0.00     0.066 H 
BRANCH  15  18
ATOM     18  C13 T5C d   1      22.341   8.272  36.125  0.00  0.00     0.060 C 
ATOM     19  H1  T5C d   1      22.438   7.703  37.062  0.00  0.00     0.062 H 
ATOM     20  H2  T5C d   1      22.823   9.254  36.241  0.00  0.00     0.062 H 
BRANCH  18  21
ATOM     21  S35 T5C d   1      20.602   8.530  35.796  0.00  0.00     0.103 S 
ATOM     22  O36 T5C d   1      20.381  10.131  35.368  0.00  0.00    -0.595 OA
ATOM     23  O37 T5C d   1      19.735   8.174  37.201  0.00  0.00    -0.595 OA
ATOM     24  O38 T5C d   1      20.087   7.520  34.547  0.00  0.00    -0.595 OA
ENDBRANCH  18  21
ENDBRANCH  15  18
ENDBRANCH   1  15
BRANCH   8  25
ATOM     25  C11 T5C d   1      25.748   4.590  37.937  0.00  0.00    -0.060 C 
ATOM     26  H8  T5C d   1      26.777   4.400  38.277  0.00  0.00     0.029 H 
ATOM     27  H9  T5C d   1      25.164   3.660  37.997  0.00  0.00     0.029 H 
ATOM     28  H10 T5C d   1      25.285   5.355  38.578  0.00  0.00     0.029 H 
ENDBRANCH   8  25
BRANCH   8  29
ATOM     29  C10 T5C d   1      26.657   4.250  35.507  0.00  0.00    -0.060 C 
ATOM     30  H11 T5C d   1      26.611   4.681  34.496  0.00  0.00     0.029 H 
ATOM     31  H12 T5C d   1      26.288   3.214  35.481  0.00  0.00     0.029 H 
ATOM     32  H13 T5C d   1      27.698   4.260  35.862  0.00  0.00     0.029 H 
ENDBRANCH   8  29
BRANCH  10  33
ATOM     33  C15 T5C d   1      23.352   2.981  35.934  0.00  0.00    -0.081 C 
ATOM     34  H15 T5C d   1      24.255   2.542  36.356  0.00  0.00     0.083 H 
BRANCH  33  35
ATOM     35  C16 T5C d   1      22.211   2.130  35.663  0.00  0.00    -0.077 C 
ATOM     36  H16 T5C d   1      21.310   2.565  35.234  0.00  0.00     0.084 H 
BRANCH  35  37
ATOM     37  C17 T5C d   1      22.247   0.702  35.954  0.00  0.00    -0.062 C 
BRANCH  37  38
ATOM     38  C34 T5C d   1      23.476   0.011  36.559  0.00  0.00    -0.051 C 
ATOM     39  H17 T5C d   1      23.268  -1.061  36.687  0.00  0.00     0.033 H 
ATOM     40  H18 T5C d   1      23.705   0.460  37.537  0.00  0.00     0.033 H 
ATOM     41  H19 T5C d   1      24.337   0.139  35.886  0.00  0.00     0.033 H 
ENDBRANCH  37  38
BRANCH  37  42
ATOM     42  C18 T5C d   1      21.035  -0.021  35.630  0.00  0.00    -0.077 C 
ATOM     43  H20 T5C d   1      20.196   0.525  35.202  0.00  0.00     0.084 H 
BRANCH  42  44
ATOM     44  C19 T5C d   1      20.899  -1.448  35.856  0.00  0.00    -0.086 C 
ATOM     45  C20 T5C d   1      19.669  -2.103  35.510  0.00  0.00    -0.107 C 
ATOM     46  H22 T5C d   1      18.866  -1.502  35.085  0.00  0.00     0.076 H 
ATOM     47  H21 T5C d   1      21.723  -2.017  36.284  0.00  0.00     0.083 H 
BRANCH  45  48
ATOM     48  C22 T5C d   1      19.441  -3.511  35.695  0.00  0.00    -0.060 C 
ATOM     49  H23 T5C d   1      18.427  -3.766  35.354  0.00  0.00     0.032 H 
ATOM     50  H24 T5C d   1      19.544  -3.762  36.761  0.00  0.00     0.032 H 
ATOM     51  H25 T5C d   1      20.178  -4.082  35.111  0.00  0.00     0.032 H 
ENDBRANCH  45  48
ENDBRANCH  42  44
ENDBRANCH  37  42
ENDBRANCH  35  37
ENDBRANCH  33  35
ENDBRANCH  10  33
BRANCH   5  52
ATOM     52  S39 T5C d   1      29.505   8.856  37.389  0.00  0.00     0.137 S 
ATOM     53  O41 T5C d   1      29.664  10.531  37.328  0.00  0.00    -0.591 OA
ATOM     54  O40 T5C d   1      30.737   8.136  36.493  0.00  0.00    -0.591 OA
ATOM     55  O42 T5C d   1      29.704   8.313  38.974  0.00  0.00    -0.591 OA
ENDBRANCH   5  52
TORSDOF 13
