REMARK  17 active torsions:
REMARK  status: ('A' for Active; 'I' for Inactive)
REMARK    1  A    between atoms: S35_2  and  C13_5 
REMARK    2  A    between atoms: C13_5  and  C12_6 
REMARK    3  A    between atoms: C12_6  and  N1_7 
REMARK    4  A    between atoms: C6_11  and  S39_12 
REMARK    5  A    between atoms: C3_18  and  C11_19 
REMARK    6  A    between atoms: C3_18  and  C10_20 
REMARK    7  A    between atoms: C14_22  and  C15_23 
REMARK    8  A    between atoms: C16_24  and  C17_25 
REMARK    9  A    between atoms: C17_25  and  C34_26 
REMARK   10  A    between atoms: C18_27  and  C19_28 
REMARK   11  A    between atoms: C20_29  and  C22_30 
REMARK   12  A    between atoms: C23_31  and  C31_32 
REMARK   13  A    between atoms: C23_31  and  C30_33 
REMARK   14  A    between atoms: C26_36  and  S47_37 
REMARK   15  A    between atoms: N21_44  and  C32_45 
REMARK   16  A    between atoms: C32_45  and  C33_46 
REMARK   17  A    between atoms: C33_46  and  S43_47 
ROOT
ATOM      1  C17 T5C d   1      92.466 -15.485  94.780  0.00  0.00    -0.062 C 
ATOM      2  C18 T5C d   1      91.311 -15.633  94.026  0.00  0.00    -0.077 C 
ATOM      3  H20 T5C d   1      90.561 -14.843  94.029  0.00  0.00     0.084 H 
ENDROOT
BRANCH   1   4
ATOM      4  C16 T5C d   1      92.619 -14.316  95.518  0.00  0.00    -0.077 C 
ATOM      5  C15 T5C d   1      93.747 -14.095  96.297  0.00  0.00    -0.081 C 
ATOM      6  H15 T5C d   1      94.534 -14.847  96.337  0.00  0.00     0.083 H 
ATOM      7  H16 T5C d   1      91.838 -13.558  95.484  0.00  0.00     0.084 H 
BRANCH   5   8
ATOM      8  C14 T5C d   1      93.876 -12.918  97.026  0.00  0.00    -0.060 C 
ATOM      9  C2  T5C d   1      94.972 -12.596  97.839  0.00  0.00     0.024 A 
ATOM     10  N1  T5C d   1      95.178 -11.498  98.570  0.00  0.00    -0.348 N 
ATOM     11  C3  T5C d   1      96.201 -13.502  98.048  0.00  0.00     0.024 A 
ATOM     12  C9  T5C d   1      96.347 -11.475  99.228  0.00  0.00     0.042 A 
ATOM     13  C8  T5C d   1      96.929 -10.486 100.026  0.00  0.00    -0.055 A 
ATOM     14  C4  T5C d   1      97.068 -12.639  98.955  0.00  0.00    -0.016 A 
ATOM     15  C7  T5C d   1      98.195 -10.677 100.574  0.00  0.00    -0.057 A 
ATOM     16  H5  T5C d   1      96.392  -9.565 100.219  0.00  0.00     0.087 H 
ATOM     17  C6  T5C d   1      98.900 -11.848 100.317  0.00  0.00     0.081 A 
ATOM     18  H6  T5C d   1      98.632  -9.910 101.203  0.00  0.00     0.086 H 
ATOM     19  C5  T5C d   1      98.337 -12.830  99.509  0.00  0.00    -0.050 A 
ATOM     20  H7  T5C d   1      98.883 -13.745  99.309  0.00  0.00     0.086 H 
ATOM     21  H14 T5C d   1      93.066 -12.193  96.961  0.00  0.00     0.086 H 
BRANCH  10  22
ATOM     22  C12 T5C d   1      94.201 -10.398  98.636  0.00  0.00     0.015 C 
ATOM     23  H3  T5C d   1      94.713  -9.428  98.719  0.00  0.00     0.066 H 
ATOM     24  H4  T5C d   1      93.556 -10.397  97.745  0.00  0.00     0.066 H 
BRANCH  22  25
ATOM     25  C13 T5C d   1      93.378 -10.688  99.903  0.00  0.00     0.060 C 
ATOM     26  H1  T5C d   1      93.212 -11.774  99.948  0.00  0.00     0.062 H 
ATOM     27  H2  T5C d   1      93.980 -10.373 100.768  0.00  0.00     0.062 H 
BRANCH  25  28
ATOM     28  S35 T5C d   1      91.751  -9.878 100.044  0.00  0.00     0.103 S 
ATOM     29  O36 T5C d   1      91.943  -8.498 100.574  0.00  0.00    -0.595 OA
ATOM     30  O37 T5C d   1      90.884 -10.651 100.987  0.00  0.00    -0.595 OA
ATOM     31  O38 T5C d   1      91.082  -9.829  98.712  0.00  0.00    -0.595 OA
ENDBRANCH  25  28
ENDBRANCH  22  25
ENDBRANCH  10  22
BRANCH  17  32
ATOM     32  S39 T5C d   1     100.476 -12.075 101.018  0.00  0.00     0.137 S 
ATOM     33  O41 T5C d   1     101.156 -10.749 101.152  0.00  0.00    -0.591 OA
ATOM     34  O40 T5C d   1     100.328 -12.692 102.374  0.00  0.00    -0.591 OA
ATOM     35  O42 T5C d   1     101.293 -12.989 100.165  0.00  0.00    -0.591 OA
ENDBRANCH  17  32
BRANCH  11  36
ATOM     36  C11 T5C d   1      96.960 -13.751  96.738  0.00  0.00    -0.060 C 
ATOM     37  H8  T5C d   1      97.826 -14.400  96.934  0.00  0.00     0.029 H 
ATOM     38  H9  T5C d   1      97.306 -12.791  96.327  0.00  0.00     0.029 H 
ATOM     39  H10 T5C d   1      96.292 -14.240  96.014  0.00  0.00     0.029 H 
ENDBRANCH  11  36
BRANCH  11  40
ATOM     40  C10 T5C d   1      95.857 -14.809  98.774  0.00  0.00    -0.060 C 
ATOM     41  H11 T5C d   1      95.316 -14.580  99.704  0.00  0.00     0.029 H 
ATOM     42  H12 T5C d   1      96.784 -15.351  99.013  0.00  0.00     0.029 H 
ATOM     43  H13 T5C d   1      95.225 -15.433  98.126  0.00  0.00     0.029 H 
ENDBRANCH  11  40
ENDBRANCH   5   8
ENDBRANCH   1   4
BRANCH   1  44
ATOM     44  C34 T5C d   1      93.543 -16.588  94.791  0.00  0.00    -0.051 C 
ATOM     45  H17 T5C d   1      93.224 -17.419  94.145  0.00  0.00     0.033 H 
ATOM     46  H18 T5C d   1      93.681 -16.955  95.819  0.00  0.00     0.033 H 
ATOM     47  H19 T5C d   1      94.493 -16.177  94.418  0.00  0.00     0.033 H 
ENDBRANCH   1  44
BRANCH   2  48
ATOM     48  C19 T5C d   1      91.099 -16.776  93.267  0.00  0.00    -0.081 C 
ATOM     49  C20 T5C d   1      89.932 -16.891  92.526  0.00  0.00    -0.060 C 
ATOM     50  H22 T5C d   1      89.227 -16.062  92.574  0.00  0.00     0.086 H 
ATOM     51  H21 T5C d   1      91.841 -17.573  93.254  0.00  0.00     0.083 H 
BRANCH  49  52
ATOM     52  C22 T5C d   1      89.585 -17.982  91.722  0.00  0.00     0.024 A 
ATOM     53  C23 T5C d   1      90.444 -19.250  91.517  0.00  0.00     0.024 A 
ATOM     54  C24 T5C d   1      89.545 -20.083  90.613  0.00  0.00    -0.016 A 
ATOM     55  C25 T5C d   1      89.675 -21.362  90.065  0.00  0.00    -0.050 A 
ATOM     56  C29 T5C d   1      88.415 -19.310  90.336  0.00  0.00     0.042 A 
ATOM     57  C26 T5C d   1      88.663 -21.871  89.257  0.00  0.00     0.081 A 
ATOM     58  H29 T5C d   1      90.560 -21.954  90.268  0.00  0.00     0.086 H 
ATOM     59  C27 T5C d   1      87.530 -21.113  89.001  0.00  0.00    -0.057 A 
ATOM     60  C28 T5C d   1      87.399 -19.841  89.543  0.00  0.00    -0.055 A 
ATOM     61  H30 T5C d   1      86.742 -21.516  88.374  0.00  0.00     0.086 H 
ATOM     62  H31 T5C d   1      86.505 -19.260  89.349  0.00  0.00     0.087 H 
ATOM     63  N21 T5C d   1      88.484 -18.144  90.987  0.00  0.00    -0.348 N 
BRANCH  53  64
ATOM     64  C31 T5C d   1      90.681 -19.998  92.839  0.00  0.00    -0.060 C 
ATOM     65  H23 T5C d   1      91.330 -19.395  93.490  0.00  0.00     0.029 H 
ATOM     66  H24 T5C d   1      91.165 -20.964  92.632  0.00  0.00     0.029 H 
ATOM     67  H25 T5C d   1      89.717 -20.171  93.341  0.00  0.00     0.029 H 
ENDBRANCH  53  64
BRANCH  53  68
ATOM     68  C30 T5C d   1      91.769 -18.935  90.799  0.00  0.00    -0.060 C 
ATOM     69  H26 T5C d   1      91.559 -18.401  89.860  0.00  0.00     0.029 H 
ATOM     70  H27 T5C d   1      92.298 -19.874  90.577  0.00  0.00     0.029 H 
ATOM     71  H28 T5C d   1      92.396 -18.305  91.447  0.00  0.00     0.029 H 
ENDBRANCH  53  68
BRANCH  57  72
ATOM     72  S47 T5C d   1      88.783 -23.453  88.554  0.00  0.00     0.137 S 
ATOM     73  O48 T5C d   1      88.874 -23.320  87.067  0.00  0.00    -0.591 OA
ATOM     74  O50 T5C d   1      90.008 -24.149  89.066  0.00  0.00    -0.591 OA
ATOM     75  O49 T5C d   1      87.556 -24.233  88.909  0.00  0.00    -0.591 OA
ENDBRANCH  57  72
BRANCH  63  76
ATOM     76  C32 T5C d   1      87.424 -17.123  90.916  0.00  0.00     0.015 C 
ATOM     77  H32 T5C d   1      87.403 -16.519  91.835  0.00  0.00     0.066 H 
ATOM     78  H33 T5C d   1      86.441 -17.592  90.764  0.00  0.00     0.066 H 
BRANCH  76  79
ATOM     79  C33 T5C d   1      87.808 -16.257  89.703  0.00  0.00     0.060 C 
ATOM     80  H34 T5C d   1      87.636 -16.859  88.799  0.00  0.00     0.062 H 
ATOM     81  H35 T5C d   1      88.879 -16.023  89.789  0.00  0.00     0.062 H 
BRANCH  79  82
ATOM     82  S43 T5C d   1      86.917 -14.679  89.490  0.00  0.00     0.103 S 
ATOM     83  O46 T5C d   1      86.833 -13.964  90.798  0.00  0.00    -0.595 OA
ATOM     84  O44 T5C d   1      85.544 -14.966  88.978  0.00  0.00    -0.595 OA
ATOM     85  O45 T5C d   1      87.647 -13.816  88.510  0.00  0.00    -0.595 OA
ENDBRANCH  79  82
ENDBRANCH  76  79
ENDBRANCH  63  76
ENDBRANCH  49  52
ENDBRANCH   2  48
TORSDOF 17
