REMARK  6 active torsions:
REMARK  status: ('A' for Active; 'I' for Inactive)
REMARK    1  A    between atoms: C6_2  and  C5_4 
REMARK    2  A    between atoms: C5_4  and  C4_5 
REMARK    3  A    between atoms: C4_5  and  C2_6 
REMARK    4  A    between atoms: C2_6  and  C3_7 
REMARK    5  A    between atoms: C2_6  and  C1_10 
REMARK    6  A    between atoms: C1_10  and  P1_11 
ROOT
ATOM      1  C2  G88 d   1      16.127  44.492  41.965  0.00  0.00     0.043 C 
ATOM      2  H5  G88 d   1      15.902  43.428  42.133  0.00  0.00     0.057 H 
ENDROOT
BRANCH   1   3
ATOM      3  C4  G88 d   1      14.850  45.263  41.502  0.00  0.00    -0.043 C 
ATOM      4  H3  G88 d   1      14.475  44.821  40.567  0.00  0.00     0.035 H 
ATOM      5  H4  G88 d   1      14.075  45.189  42.280  0.00  0.00     0.035 H 
BRANCH   3   6
ATOM      6  C5  G88 d   1      15.199  46.746  41.265  0.00  0.00     0.017 C 
ATOM      7  H1  G88 d   1      15.469  47.192  42.234  0.00  0.00     0.049 H 
ATOM      8  H2  G88 d   1      16.065  46.788  40.588  0.00  0.00     0.049 H 
BRANCH   6   9
ATOM      9  C6  G88 d   1      14.069  47.592  40.648  0.00  0.00     0.172 C 
ATOM     10  O6  G88 d   1      13.074  47.085  39.902  0.00  0.00    -0.648 OA
ATOM     11  O7  G88 d   1      14.059  48.828  40.870  0.00  0.00    -0.648 OA
ENDBRANCH   6   9
ENDBRANCH   3   6
ENDBRANCH   1   3
BRANCH   1  12
ATOM     12  C3  G88 d   1      17.128  44.637  40.839  0.00  0.00     0.177 C 
ATOM     13  O5  G88 d   1      17.019  43.885  39.741  0.00  0.00    -0.648 OA
ATOM     14  O4  G88 d   1      18.048  45.457  40.837  0.00  0.00    -0.648 OA
ENDBRANCH   1  12
BRANCH   1  15
ATOM     15  C1  G88 d   1      16.624  45.123  43.274  0.00  0.00     0.051 C 
ATOM     16  H6  G88 d   1      15.755  45.438  43.870  0.00  0.00     0.055 H 
ATOM     17  H7  G88 d   1      17.242  46.001  43.034  0.00  0.00     0.055 H 
BRANCH  15  18
ATOM     18  P1  G88 d   1      17.595  43.979  44.230  0.00  0.00     0.260 P 
ATOM     19  O2  G88 d   1      18.791  44.654  45.256  0.00  0.00    -0.640 OA
ATOM     20  O3  G88 d   1      16.637  43.101  45.074  0.00  0.00    -0.640 OA
ATOM     21  O1  G88 d   1      18.442  43.015  43.024  0.00  0.00    -0.640 OA
ENDBRANCH  15  18
ENDBRANCH   1  15
TORSDOF 6
