REMARK  4 active torsions:
REMARK  status: ('A' for Active; 'I' for Inactive)
REMARK    1  A    between atoms: C01_1  and  C02_2 
REMARK    2  A    between atoms: C02_2  and  C03_3 
REMARK    3  A    between atoms: C02_2  and  NP3_6 
REMARK    4  A    between atoms: C03_3  and  N14_7 
ROOT
ATOM      1  C03 QUS d   1      14.637  45.168  41.695  0.00  0.00     0.062 C 
ATOM      2  H2  QUS d   1      14.079  45.343  42.627  0.00  0.00     0.072 H 
ATOM      3  H3  QUS d   1      14.110  44.418  41.087  0.00  0.00     0.072 H 
ENDROOT
BRANCH   1   4
ATOM      4  C02 QUS d   1      16.011  44.609  42.058  0.00  0.00     0.200 C 
ATOM      5  H1  QUS d   1      15.876  43.552  42.332  0.00  0.00     0.104 H 
BRANCH   4   6
ATOM      6  C01 QUS d   1      17.076  44.659  41.006  0.00  0.00     0.206 C 
ATOM      7  O16 QUS d   1      17.040  43.815  40.089  0.00  0.00    -0.646 OA
ATOM      8  O17 QUS d   1      17.956  45.541  41.138  0.00  0.00    -0.646 OA
ENDBRANCH   4   6
BRANCH   4   9
ATOM      9  NP3 QUS d   1      16.478  45.359  43.235  0.00  0.00    -0.064 N 
ATOM     10  H4  QUS d   1      17.387  45.021  43.510  0.00  0.00     0.275 HD
ATOM     11  H5  QUS d   1      15.828  45.231  43.995  0.00  0.00     0.275 HD
ATOM     12  H6  QUS d   1      16.539  46.339  43.006  0.00  0.00     0.275 HD
ENDBRANCH   4   9
ENDBRANCH   1   4
BRANCH   1  13
ATOM     13  N14 QUS d   1      14.677  46.420  40.944  0.00  0.00    -0.194 N 
ATOM     14  C04 QUS d   1      13.749  46.812  40.021  0.00  0.00     0.351 A 
ATOM     15  N15 QUS d   1      13.617  48.119  40.091  0.00  0.00    -0.251 N 
ATOM     16  O18 QUS d   1      13.236  46.040  39.284  0.00  0.00    -0.244 OA
ATOM     17  C05 QUS d   1      14.388  48.637  41.048  0.00  0.00     0.391 A 
ATOM     18  H7  QUS d   1      13.014  48.656  39.501  0.00  0.00     0.176 HD
ATOM     19  O19 QUS d   1      14.536  49.800  41.392  0.00  0.00    -0.236 OA
ATOM     20  O20 QUS d   1      15.055  47.616  41.648  0.00  0.00    -0.174 OA
ENDBRANCH   1  13
TORSDOF 4
