REMARK  23 active torsions:
REMARK  status: ('A' for Active; 'I' for Inactive)
REMARK    1  A    between atoms: C2_1  and  C9_13 
REMARK    2  A    between atoms: C3_2  and  C3M_3 
REMARK    3  A    between atoms: C5_6  and  O5_33 
REMARK    4  A    between atoms: O5_33  and  C5M_7 
REMARK    5  A    between atoms: C7_9  and  O7_34 
REMARK    6  A    between atoms: O7_34  and  C7M_10 
REMARK    7  A    between atoms: C8_11  and  O8_35 
REMARK    8  A    between atoms: C9_13  and  C10_14 
REMARK    9  A    between atoms: C10_14  and  C11_15 
REMARK   10  A    between atoms: C11_15  and  C12_16 
REMARK   11  A    between atoms: C11_15  and  C22_26 
REMARK   12  A    between atoms: C12_16  and  C13_17 
REMARK   13  A    between atoms: C12_16  and  O12_36 
REMARK   14  A    between atoms: C13_17  and  C14_18 
REMARK   15  A    between atoms: C13_17  and  C24_28 
REMARK   16  A    between atoms: C14_18  and  C15_19 
REMARK   17  A    between atoms: C14_18  and  O14_37 
REMARK   18  A    between atoms: C16_20  and  C17_21 
REMARK   19  A    between atoms: C18_22  and  C19_23 
REMARK   20  A    between atoms: C19_23  and  C26_30 
REMARK   21  A    between atoms: C20_24  and  C21_25 
REMARK   22  A    between atoms: O12_36  and  C23_27 
REMARK   23  A    between atoms: O14_37  and  C25_29 
ROOT
ATOM      1  C11 SMA d   1     130.883  66.450  -4.347  0.00  0.00    -0.032 C 
ATOM      2  H   SMA d   1     131.810  65.956  -4.022  0.00  0.00     0.043 H 
ENDROOT
BRANCH   1   3
ATOM      3  C10 SMA d   1     131.077  67.941  -4.074  0.00  0.00    -0.054 C 
ATOM      4  H   SMA d   1     131.893  68.312  -4.712  0.00  0.00     0.034 H 
ATOM      5  H   SMA d   1     130.145  68.468  -4.326  0.00  0.00     0.034 H 
BRANCH   3   6
ATOM      6  C9  SMA d   1     131.425  68.237  -2.619  0.00  0.00    -0.019 C 
ATOM      7  H   SMA d   1     130.592  67.906  -1.982  0.00  0.00     0.043 H 
ATOM      8  H   SMA d   1     132.334  67.679  -2.352  0.00  0.00     0.043 H 
BRANCH   6   9
ATOM      9  C2  SMA d   1     131.669  69.709  -2.376  0.00  0.00     0.063 A 
ATOM     10  C3  SMA d   1     131.437  70.420  -1.207  0.00  0.00     0.019 A 
ATOM     11  C4  SMA d   1     131.760  71.890  -1.134  0.00  0.00     0.196 A 
ATOM     12  C4A SMA d   1     132.329  72.498  -2.390  0.00  0.00     0.085 A 
ATOM     13  O4  SMA d   1     131.568  72.546  -0.097  0.00  0.00    -0.287 OA
ATOM     14  C5  SMA d   1     132.707  73.898  -2.518  0.00  0.00     0.088 A 
ATOM     15  C8A SMA d   1     132.519  71.654  -3.540  0.00  0.00     0.128 A 
ATOM     16  C6  SMA d   1     133.242  74.402  -3.744  0.00  0.00    -0.015 A 
ATOM     17  C7  SMA d   1     133.416  73.541  -4.861  0.00  0.00     0.106 A 
ATOM     18  H   SMA d   1     133.517  75.448  -3.822  0.00  0.00     0.092 H 
ATOM     19  C8  SMA d   1     133.060  72.160  -4.779  0.00  0.00     0.134 A 
ATOM     20  O1  SMA d   1     132.201  70.293  -3.542  0.00  0.00    -0.310 OA
BRANCH  10  21
ATOM     21  C3M SMA d   1     130.874  69.773   0.014  0.00  0.00    -0.045 C 
ATOM     22  H   SMA d   1     130.690  68.707  -0.188  0.00  0.00     0.033 H 
ATOM     23  H   SMA d   1     129.928  70.264   0.286  0.00  0.00     0.033 H 
ATOM     24  H   SMA d   1     131.589  69.871   0.844  0.00  0.00     0.033 H 
ENDBRANCH  10  21
BRANCH  14  25
ATOM     25  O5  SMA d   1     132.515  74.685  -1.390  0.00  0.00    -0.355 OA
BRANCH  25  26
ATOM     26  C5M SMA d   1     132.873  76.075  -1.447  0.00  0.00     0.010 C 
ATOM     27  H   SMA d   1     132.659  76.549  -0.478  0.00  0.00     0.066 H 
ATOM     28  H   SMA d   1     132.289  76.572  -2.235  0.00  0.00     0.066 H 
ATOM     29  H   SMA d   1     133.946  76.168  -1.672  0.00  0.00     0.066 H 
ENDBRANCH  25  26
ENDBRANCH  14  25
BRANCH  17  30
ATOM     30  O7  SMA d   1     133.930  73.919  -6.112  0.00  0.00    -0.353 OA
BRANCH  30  31
ATOM     31  C7M SMA d   1     134.326  75.293  -6.327  0.00  0.00     0.010 C 
ATOM     32  H   SMA d   1     134.702  75.410  -7.354  0.00  0.00     0.066 H 
ATOM     33  H   SMA d   1     135.119  75.562  -5.613  0.00  0.00     0.066 H 
ATOM     34  H   SMA d   1     133.458  75.952  -6.178  0.00  0.00     0.066 H 
ENDBRANCH  30  31
ENDBRANCH  17  30
BRANCH  19  35
ATOM     35  O8  SMA d   1     133.207  71.272  -5.831  0.00  0.00    -0.356 OA
ATOM     36  H   SMA d   1     133.570  71.728  -6.581  0.00  0.00     0.218 HD
ENDBRANCH  19  35
ENDBRANCH   6   9
ENDBRANCH   3   6
ENDBRANCH   1   3
BRANCH   1  37
ATOM     37  C12 SMA d   1     129.732  65.757  -3.547  0.00  0.00     0.046 C 
ATOM     38  H   SMA d   1     129.642  66.265  -2.575  0.00  0.00     0.084 H 
BRANCH  37  39
ATOM     39  C13 SMA d   1     128.308  65.666  -4.186  0.00  0.00    -0.004 C 
ATOM     40  H   SMA d   1     128.377  65.121  -5.139  0.00  0.00     0.047 H 
BRANCH  39  41
ATOM     41  C14 SMA d   1     127.384  64.882  -3.200  0.00  0.00     0.059 C 
ATOM     42  H   SMA d   1     127.897  63.954  -2.908  0.00  0.00     0.090 H 
BRANCH  41  43
ATOM     43  C15 SMA d   1     126.094  64.488  -3.906  0.00  0.00    -0.075 C 
ATOM     44  C16 SMA d   1     124.821  64.765  -3.551  0.00  0.00    -0.084 C 
ATOM     45  H   SMA d   1     124.621  65.338  -2.647  0.00  0.00     0.083 H 
ATOM     46  H   SMA d   1     126.214  63.906  -4.818  0.00  0.00     0.080 H 
BRANCH  44  47
ATOM     47  C17 SMA d   1     123.714  64.299  -4.376  0.00  0.00    -0.083 C 
ATOM     48  C18 SMA d   1     122.399  64.534  -4.101  0.00  0.00    -0.078 C 
ATOM     49  H   SMA d   1     122.175  65.097  -3.196  0.00  0.00     0.084 H 
ATOM     50  H   SMA d   1     123.952  63.726  -5.271  0.00  0.00     0.083 H 
BRANCH  48  51
ATOM     51  C19 SMA d   1     121.250  64.094  -4.921  0.00  0.00    -0.066 C 
ATOM     52  C20 SMA d   1     119.989  64.415  -4.509  0.00  0.00    -0.101 C 
ATOM     53  H   SMA d   1     119.903  64.982  -3.583  0.00  0.00     0.077 H 
BRANCH  52  54
ATOM     54  C21 SMA d   1     118.709  64.060  -5.211  0.00  0.00    -0.059 C 
ATOM     55  H   SMA d   1     117.856  64.455  -4.640  0.00  0.00     0.032 H 
ATOM     56  H   SMA d   1     118.624  62.966  -5.288  0.00  0.00     0.032 H 
ATOM     57  H   SMA d   1     118.710  64.499  -6.220  0.00  0.00     0.032 H 
ENDBRANCH  52  54
BRANCH  51  58
ATOM     58  C26 SMA d   1     121.526  63.315  -6.180  0.00  0.00    -0.051 C 
ATOM     59  H   SMA d   1     122.612  63.182  -6.298  0.00  0.00     0.033 H 
ATOM     60  H   SMA d   1     121.127  63.864  -7.046  0.00  0.00     0.033 H 
ATOM     61  H   SMA d   1     121.041  62.330  -6.115  0.00  0.00     0.033 H 
ENDBRANCH  51  58
ENDBRANCH  48  51
ENDBRANCH  44  47
ENDBRANCH  41  43
BRANCH  41  62
ATOM     62  O14 SMA d   1     127.181  65.664  -2.001  0.00  0.00    -0.386 OA
BRANCH  62  63
ATOM     63  C25 SMA d   1     127.301  64.883  -0.808  0.00  0.00     0.005 C 
ATOM     64  H   SMA d   1     127.138  65.526   0.069  0.00  0.00     0.066 H 
ATOM     65  H   SMA d   1     128.308  64.443  -0.758  0.00  0.00     0.066 H 
ATOM     66  H   SMA d   1     126.550  64.080  -0.819  0.00  0.00     0.066 H 
ENDBRANCH  62  63
ENDBRANCH  41  62
ENDBRANCH  39  41
BRANCH  39  67
ATOM     67  C24 SMA d   1     127.707  67.047  -4.452  0.00  0.00    -0.068 C 
ATOM     68  H   SMA d   1     128.356  67.602  -5.146  0.00  0.00     0.028 H 
ATOM     69  H   SMA d   1     127.626  67.600  -3.505  0.00  0.00     0.028 H 
ATOM     70  H   SMA d   1     126.707  66.933  -4.896  0.00  0.00     0.028 H 
ENDBRANCH  39  67
ENDBRANCH  37  39
BRANCH  37  71
ATOM     71  O12 SMA d   1     130.134  64.379  -3.375  0.00  0.00    -0.390 OA
BRANCH  71  72
ATOM     72  C23 SMA d   1     130.781  64.121  -2.131  0.00  0.00     0.004 C 
ATOM     73  H   SMA d   1     131.055  63.057  -2.074  0.00  0.00     0.066 H 
ATOM     74  H   SMA d   1     130.099  64.368  -1.304  0.00  0.00     0.066 H 
ATOM     75  H   SMA d   1     131.688  64.738  -2.054  0.00  0.00     0.066 H 
ENDBRANCH  71  72
ENDBRANCH  37  71
ENDBRANCH   1  37
BRANCH   1  76
ATOM     76  C22 SMA d   1     130.759  66.217  -5.861  0.00  0.00    -0.070 C 
ATOM     77  H   SMA d   1     131.588  66.722  -6.379  0.00  0.00     0.028 H 
ATOM     78  H   SMA d   1     129.802  66.625  -6.218  0.00  0.00     0.028 H 
ATOM     79  H   SMA d   1     130.799  65.138  -6.070  0.00  0.00     0.028 H 
ENDBRANCH   1  76
TORSDOF 23
