REMARK  2 active torsions:
REMARK  status: ('A' for Active; 'I' for Inactive)
REMARK    1  A    between atoms: C18_10  and  C14_11 
REMARK    2  A    between atoms: C12_16  and  C2_17 
ROOT
ATOM      1  C14 P4O d   1     236.737  83.448 183.237  0.00  0.00     0.069 A 
ATOM      2  C13 P4O d   1     235.901  82.420 183.675  0.00  0.00    -0.042 A 
ATOM      3  N15 P4O d   1     236.205  84.576 182.739  0.00  0.00    -0.260 NA
ATOM      4  C10 P4O d   1     234.908  84.732 182.613  0.00  0.00     0.004 A 
ATOM      5  C11 P4O d   1     234.030  83.736 183.009  0.00  0.00    -0.054 A 
ATOM      6  C12 P4O d   1     234.530  82.558 183.537  0.00  0.00    -0.006 A 
ATOM      7  H7  P4O d   1     236.320  81.524 184.118  0.00  0.00     0.088 H 
ATOM      8  H8  P4O d   1     234.518  85.653 182.194  0.00  0.00     0.114 H 
ATOM      9  H9  P4O d   1     232.960  83.878 182.906  0.00  0.00     0.087 H 
ENDROOT
BRANCH   6  10
ATOM     10  C2  P4O d   1     233.658  81.549 183.932  0.00  0.00     0.043 A 
ATOM     11  C3  P4O d   1     232.346  81.506 183.683  0.00  0.00    -0.039 A 
ATOM     12  C4  P4O d   1     231.845  80.405 184.238  0.00  0.00     0.056 A 
ATOM     13  H10 P4O d   1     231.781  82.248 183.120  0.00  0.00     0.088 H 
ATOM     14  C6  P4O d   1     230.573  79.852 184.317  0.00  0.00     0.253 C 
ATOM     15  C5  P4O d   1     232.898  79.748 184.861  0.00  0.00     0.027 A 
ATOM     16  O26 P4O d   1     229.596  80.545 184.077  0.00  0.00    -0.268 OA
ATOM     17  N7  P4O d   1     230.415  78.517 184.702  0.00  0.00    -0.356 N 
ATOM     18  C8  P4O d   1     231.612  77.618 185.013  0.00  0.00     0.000 C 
ATOM     19  H11 P4O d   1     229.492  78.139 184.776  0.00  0.00     0.162 HD
ATOM     20  C9  P4O d   1     232.783  78.417 185.599  0.00  0.00    -0.011 C 
ATOM     21  H12 P4O d   1     231.942  77.130 184.084  0.00  0.00     0.064 H 
ATOM     22  H13 P4O d   1     231.304  76.852 185.740  0.00  0.00     0.064 H 
ATOM     23  H14 P4O d   1     233.716  77.847 185.477  0.00  0.00     0.044 H 
ATOM     24  H15 P4O d   1     232.604  78.603 186.668  0.00  0.00     0.044 H 
ATOM     25  N1  P4O d   1     233.997  80.466 184.640  0.00  0.00    -0.358 N 
ATOM     26  H16 P4O d   1     234.947  80.228 184.960  0.00  0.00     0.166 HD
ENDBRANCH   6  10
BRANCH   1  27
ATOM     27  C18 P4O d   1     238.138  83.353 183.354  0.00  0.00     0.011 A 
ATOM     28  C19 P4O d   1     238.710  82.557 184.331  0.00  0.00    -0.057 A 
ATOM     29  C20 P4O d   1     240.087  82.503 184.456  0.00  0.00    -0.006 A 
ATOM     30  H1  P4O d   1     238.081  81.977 184.997  0.00  0.00     0.086 H 
ATOM     31  C25 P4O d   1     240.677  81.699 185.461  0.00  0.00    -0.071 A 
ATOM     32  C21 P4O d   1     240.879  83.252 183.576  0.00  0.00     0.066 A 
ATOM     33  C24 P4O d   1     242.068  81.630 185.578  0.00  0.00    -0.082 A 
ATOM     34  H2  P4O d   1     240.048  81.136 186.141  0.00  0.00     0.084 H 
ATOM     35  C23 P4O d   1     242.859  82.376 184.683  0.00  0.00    -0.081 A 
ATOM     36  H3  P4O d   1     242.529  81.015 186.342  0.00  0.00     0.083 H 
ATOM     37  C22 P4O d   1     242.277  83.184 183.691  0.00  0.00    -0.054 A 
ATOM     38  H4  P4O d   1     243.939  82.326 184.761  0.00  0.00     0.083 H 
ATOM     39  H5  P4O d   1     242.906  83.753 183.016  0.00  0.00     0.087 H 
ATOM     40  N16 P4O d   1     240.305  84.012 182.625  0.00  0.00    -0.259 NA
ATOM     41  C17 P4O d   1     238.986  84.074 182.508  0.00  0.00     0.015 A 
ATOM     42  H6  P4O d   1     238.554  84.700 181.736  0.00  0.00     0.116 H 
ENDBRANCH   1  27
TORSDOF 2
