REMARK  2 active torsions:
REMARK  status: ('A' for Active; 'I' for Inactive)
REMARK    1  A    between atoms: C18_10  and  C14_11 
REMARK    2  A    between atoms: C12_16  and  C2_17 
ROOT
ATOM      1  C14 P4O d   1      30.355  64.179 192.801  0.00  0.00     0.069 A 
ATOM      2  C13 P4O d   1      29.576  64.237 191.646  0.00  0.00    -0.042 A 
ATOM      3  N15 P4O d   1      31.316  65.100 192.987  0.00  0.00    -0.260 NA
ATOM      4  C10 P4O d   1      31.554  66.064 192.114  0.00  0.00     0.004 A 
ATOM      5  C11 P4O d   1      30.803  66.160 190.947  0.00  0.00    -0.054 A 
ATOM      6  C12 P4O d   1      29.791  65.239 190.703  0.00  0.00    -0.006 A 
ATOM      7  H7  P4O d   1      28.799  63.499 191.481  0.00  0.00     0.088 H 
ATOM      8  H8  P4O d   1      32.340  66.785 192.309  0.00  0.00     0.114 H 
ATOM      9  H9  P4O d   1      31.006  66.949 190.232  0.00  0.00     0.087 H 
ENDROOT
BRANCH   6  10
ATOM     10  C2  P4O d   1      28.958  65.370 189.594  0.00  0.00     0.043 A 
ATOM     11  C3  P4O d   1      29.146  66.182 188.554  0.00  0.00    -0.039 A 
ATOM     12  C4  P4O d   1      28.139  66.041 187.694  0.00  0.00     0.056 A 
ATOM     13  H10 P4O d   1      29.992  66.856 188.427  0.00  0.00     0.088 H 
ATOM     14  C6  P4O d   1      27.818  66.605 186.463  0.00  0.00     0.253 C 
ATOM     15  C5  P4O d   1      27.284  65.101 188.245  0.00  0.00     0.027 A 
ATOM     16  O26 P4O d   1      28.490  67.519 185.987  0.00  0.00    -0.268 OA
ATOM     17  N7  P4O d   1      26.747  66.102 185.714  0.00  0.00    -0.356 N 
ATOM     18  C8  P4O d   1      25.914  64.953 186.142  0.00  0.00     0.000 C 
ATOM     19  H11 P4O d   1      26.532  66.542 184.842  0.00  0.00     0.162 HD
ATOM     20  C9  P4O d   1      25.917  64.751 187.658  0.00  0.00    -0.011 C 
ATOM     21  H12 P4O d   1      26.302  64.041 185.665  0.00  0.00     0.064 H 
ATOM     22  H13 P4O d   1      24.879  65.127 185.813  0.00  0.00     0.064 H 
ATOM     23  H14 P4O d   1      25.686  63.699 187.883  0.00  0.00     0.044 H 
ATOM     24  H15 P4O d   1      25.152  65.400 188.111  0.00  0.00     0.044 H 
ATOM     25  N1  P4O d   1      27.820  64.706 189.397  0.00  0.00    -0.358 N 
ATOM     26  H16 P4O d   1      27.420  64.001 190.033  0.00  0.00     0.166 HD
ENDBRANCH   6  10
BRANCH   1  27
ATOM     27  C18 P4O d   1      30.166  63.200 193.777  0.00  0.00     0.011 A 
ATOM     28  C19 P4O d   1      28.947  62.548 193.948  0.00  0.00    -0.057 A 
ATOM     29  C20 P4O d   1      28.784  61.632 194.983  0.00  0.00    -0.006 A 
ATOM     30  H1  P4O d   1      28.124  62.755 193.274  0.00  0.00     0.086 H 
ATOM     31  C25 P4O d   1      27.576  60.963 195.160  0.00  0.00    -0.071 A 
ATOM     32  C21 P4O d   1      29.857  61.379 195.832  0.00  0.00     0.066 A 
ATOM     33  C24 P4O d   1      27.444  60.033 196.186  0.00  0.00    -0.082 A 
ATOM     34  H2  P4O d   1      26.740  61.166 194.500  0.00  0.00     0.084 H 
ATOM     35  C23 P4O d   1      28.520  59.777 197.033  0.00  0.00    -0.081 A 
ATOM     36  H3  P4O d   1      26.506  59.508 196.326  0.00  0.00     0.083 H 
ATOM     37  C22 P4O d   1      29.723  60.451 196.860  0.00  0.00    -0.054 A 
ATOM     38  H4  P4O d   1      28.419  59.049 197.830  0.00  0.00     0.083 H 
ATOM     39  H5  P4O d   1      30.556  60.254 197.525  0.00  0.00     0.087 H 
ATOM     40  N16 P4O d   1      31.022  62.014 195.642  0.00  0.00    -0.259 NA
ATOM     41  C17 P4O d   1      31.193  62.889 194.665  0.00  0.00     0.015 A 
ATOM     42  H6  P4O d   1      32.155  63.376 194.553  0.00  0.00     0.116 H 
ENDBRANCH   1  27
TORSDOF 2
