REMARK  22 active torsions:
REMARK  status: ('A' for Active; 'I' for Inactive)
REMARK    1  A    between atoms: CA_2  and  N_1 
REMARK    2  A    between atoms: CA_2  and  CB_5 
REMARK    3  A    between atoms: C_3  and  CA_2 
REMARK       I    between atoms: N_6  and  C_3 
REMARK    4  A    between atoms: CA_7  and  N_6 
REMARK    5  A    between atoms: CA_7  and  CB_10 
REMARK    6  A    between atoms: C_8  and  CA_7 
REMARK       I    between atoms: N_11  and  C_8 
REMARK    7  A    between atoms: CA_12  and  N_11 
REMARK    8  A    between atoms: CA_12  and  CB_15 
REMARK    9  A    between atoms: C_13  and  CA_12 
REMARK       I    between atoms: N_16  and  C_13 
REMARK   10  A    between atoms: CA_17  and  N_16 
REMARK   11  A    between atoms: CA_17  and  CB_20 
REMARK   12  A    between atoms: C_18  and  CA_17 
REMARK       I    between atoms: N_21  and  C_18 
REMARK   13  A    between atoms: CA_22  and  N_21 
REMARK   14  A    between atoms: CA_22  and  CB_25 
REMARK   15  A    between atoms: C_23  and  CA_22 
REMARK       I    between atoms: N_26  and  C_23 
REMARK   16  A    between atoms: CA_27  and  N_26 
REMARK   17  A    between atoms: CA_27  and  CB_30 
REMARK   18  A    between atoms: C_28  and  CA_27 
REMARK       I    between atoms: C_28  and  N_31 
REMARK   19  A    between atoms: N_31  and  CA_32 
REMARK   20  A    between atoms: CA_32  and  CB_35 
REMARK   21  A    between atoms: CA_32  and  C_33 
REMARK   22  A    between atoms: C_33  and  OXT_36 
ROOT
ATOM      1  CA  ALA d   1    -105.459  37.535  -2.294  0.00  0.00     0.086 C 
ATOM      2  H19 ALA d   1    -106.527  37.272  -2.268  0.00  0.00     0.086 H 
ENDROOT
BRANCH   1   3
ATOM      3  N   ALA d   1    -105.063  37.824  -0.895  0.00  0.00    -0.346 N 
ATOM      4  C   ALA d   1    -105.777  37.417   0.169  0.00  0.00     0.240 C 
ATOM      5  O   ALA d   1    -106.818  36.761   0.058  0.00  0.00    -0.271 OA
ATOM      6  H18 ALA d   1    -104.225  38.346  -0.735  0.00  0.00     0.163 HD
BRANCH   4   7
ATOM      7  CA  ALA d   1    -105.255  37.824   1.580  0.00  0.00     0.086 C 
ATOM      8  H14 ALA d   1    -104.372  38.467   1.450  0.00  0.00     0.086 H 
BRANCH   7   9
ATOM      9  N   ALA d   1    -106.286  38.574   2.295  0.00  0.00    -0.346 N 
ATOM     10  C   ALA d   1    -106.591  39.836   2.001  0.00  0.00     0.240 C 
ATOM     11  O   ALA d   1    -106.039  40.471   1.103  0.00  0.00    -0.271 OA
ATOM     12  H13 ALA d   1    -106.782  38.121   3.035  0.00  0.00     0.163 HD
BRANCH  10  13
ATOM     13  CA  ALA d   1    -107.698  40.472   2.840  0.00  0.00     0.086 C 
ATOM     14  H9  ALA d   1    -107.884  39.805   3.695  0.00  0.00     0.086 H 
BRANCH  13  15
ATOM     15  N   ALA d   1    -107.374  41.796   3.383  0.00  0.00    -0.346 N 
ATOM     16  C   ALA d   1    -107.053  41.986   4.664  0.00  0.00     0.248 C 
ATOM     17  O   ALA d   1    -106.976  41.058   5.479  0.00  0.00    -0.271 OA
ATOM     18  H8  ALA d   1    -107.394  42.586   2.770  0.00  0.00     0.163 HD
BRANCH  16  19
ATOM     19  CA  ALA d   1    -106.788  43.447   5.083  0.00  0.00     0.172 C 
ATOM     20  H4  ALA d   1    -106.552  44.035   4.184  0.00  0.00     0.098 H 
BRANCH  19  21
ATOM     21  N   ALA d   1    -108.005  43.987   5.702  0.00  0.00    -0.067 N 
ATOM     22  H1  ALA d   1    -107.845  44.942   5.981  0.00  0.00     0.275 HD
ATOM     23  H2  ALA d   1    -108.243  43.436   6.512  0.00  0.00     0.275 HD
ATOM     24  H3  ALA d   1    -108.763  43.953   5.038  0.00  0.00     0.275 HD
ENDBRANCH  19  21
BRANCH  19  25
ATOM     25  CB  ALA d   1    -105.572  43.552   6.082  0.00  0.00    -0.042 C 
ATOM     26  H5  ALA d   1    -104.669  43.144   5.604  0.00  0.00     0.030 H 
ATOM     27  H6  ALA d   1    -105.796  42.978   6.994  0.00  0.00     0.030 H 
ATOM     28  H7  ALA d   1    -105.403  44.607   6.345  0.00  0.00     0.030 H 
ENDBRANCH  19  25
ENDBRANCH  16  19
ENDBRANCH  13  15
BRANCH  13  29
ATOM     29  CB  ALA d   1    -108.983  40.562   2.010  0.00  0.00    -0.049 C 
ATOM     30  H10 ALA d   1    -109.227  39.570   1.603  0.00  0.00     0.030 H 
ATOM     31  H11 ALA d   1    -108.836  41.272   1.183  0.00  0.00     0.030 H 
ATOM     32  H12 ALA d   1    -109.809  40.909   2.649  0.00  0.00     0.030 H 
ENDBRANCH  13  29
ENDBRANCH  10  13
ENDBRANCH   7   9
BRANCH   7  33
ATOM     33  CB  ALA d   1    -104.841  36.581   2.436  0.00  0.00    -0.049 C 
ATOM     34  H15 ALA d   1    -104.065  36.011   1.904  0.00  0.00     0.030 H 
ATOM     35  H16 ALA d   1    -105.719  35.939   2.599  0.00  0.00     0.030 H 
ATOM     36  H17 ALA d   1    -104.448  36.919   3.406  0.00  0.00     0.030 H 
ENDBRANCH   7  33
ENDBRANCH   4   7
ENDBRANCH   1   3
BRANCH   1  37
ATOM     37  CB  ALA d   1    -105.309  38.822  -3.173  0.00  0.00    -0.049 C 
ATOM     38  H20 ALA d   1    -105.605  38.596  -4.208  0.00  0.00     0.030 H 
ATOM     39  H21 ALA d   1    -104.261  39.157  -3.156  0.00  0.00     0.030 H 
ATOM     40  H22 ALA d   1    -105.955  39.617  -2.772  0.00  0.00     0.030 H 
ENDBRANCH   1  37
BRANCH   1  41
ATOM     41  C   ALA d   1    -104.730  36.349  -2.967  0.00  0.00     0.240 C 
ATOM     42  O   ALA d   1    -103.867  35.706  -2.354  0.00  0.00    -0.271 OA
ATOM     43  N   ALA d   1    -105.088  36.065  -4.227  0.00  0.00    -0.346 N 
ATOM     44  H23 ALA d   1    -105.784  36.633  -4.666  0.00  0.00     0.163 HD
BRANCH  43  45
ATOM     45  CA  ALA d   1    -104.499  34.950  -4.996  0.00  0.00     0.086 C 
ATOM     46  H24 ALA d   1    -104.242  34.160  -4.275  0.00  0.00     0.086 H 
BRANCH  45  47
ATOM     47  CB  ALA d   1    -105.529  34.371  -5.996  0.00  0.00    -0.049 C 
ATOM     48  H25 ALA d   1    -105.070  33.544  -6.557  0.00  0.00     0.030 H 
ATOM     49  H26 ALA d   1    -105.843  35.159  -6.696  0.00  0.00     0.030 H 
ATOM     50  H27 ALA d   1    -106.406  33.999  -5.445  0.00  0.00     0.030 H 
ENDBRANCH  45  47
BRANCH  45  51
ATOM     51  C   ALA d   1    -103.220  35.317  -5.747  0.00  0.00     0.240 C 
ATOM     52  O   ALA d   1    -102.157  34.753  -5.490  0.00  0.00    -0.271 OA
ATOM     53  N   ALA d   1    -103.334  36.243  -6.694  0.00  0.00    -0.346 N 
ATOM     54  H28 ALA d   1    -104.231  36.648  -6.872  0.00  0.00     0.163 HD
BRANCH  53  55
ATOM     55  CA  ALA d   1    -102.187  36.685  -7.482  0.00  0.00     0.086 C 
ATOM     56  H29 ALA d   1    -101.348  35.994  -7.310  0.00  0.00     0.086 H 
BRANCH  55  57
ATOM     57  CB  ALA d   1    -102.534  36.682  -8.994  0.00  0.00    -0.049 C 
ATOM     58  H30 ALA d   1    -101.660  37.017  -9.572  0.00  0.00     0.030 H 
ATOM     59  H31 ALA d   1    -103.378  37.363  -9.178  0.00  0.00     0.030 H 
ATOM     60  H32 ALA d   1    -102.810  35.664  -9.305  0.00  0.00     0.030 H 
ENDBRANCH  55  57
BRANCH  55  61
ATOM     61  C   ALA d   1    -101.775  38.088  -7.034  0.00  0.00     0.240 C 
ATOM     62  O   ALA d   1    -102.625  38.948  -6.769  0.00  0.00    -0.271 OA
ATOM     63  N   ALA d   1    -100.464  38.298  -6.937  0.00  0.00    -0.345 N 
ATOM     64  H33 ALA d   1     -99.842  37.542  -7.141  0.00  0.00     0.163 HD
BRANCH  63  65
ATOM     65  CA  ALA d   1     -99.894  39.585  -6.546  0.00  0.00     0.090 C 
ATOM     66  H34 ALA d   1     -99.995  39.706  -5.457  0.00  0.00     0.088 H 
BRANCH  65  67
ATOM     67  CB  ALA d   1     -98.413  39.625  -6.916  0.00  0.00    -0.048 C 
ATOM     68  H35 ALA d   1     -97.987  40.595  -6.620  0.00  0.00     0.030 H 
ATOM     69  H36 ALA d   1     -98.303  39.492  -8.002  0.00  0.00     0.030 H 
ATOM     70  H37 ALA d   1     -97.882  38.817  -6.392  0.00  0.00     0.030 H 
ENDBRANCH  65  67
BRANCH  65  71
ATOM     71  C   ALA d   1    -100.640  40.722  -7.241  0.00  0.00     0.163 C 
ATOM     72  O   ALA d   1    -100.253  41.053  -8.381  0.00  0.00    -0.648 OA
BRANCH  71  73
ATOM     73  OXT ALA d   1    -101.612  41.245  -6.655  0.00  0.00    -0.775 OA
ATOM     74  H38 ALA d   1    -102.398  41.118  -7.173  0.00  0.00     0.167 HD
ENDBRANCH  71  73
ENDBRANCH  65  71
ENDBRANCH  63  65
ENDBRANCH  55  61
ENDBRANCH  53  55
ENDBRANCH  45  51
ENDBRANCH  43  45
ENDBRANCH   1  41
TORSDOF 22
