REMARK  21 active torsions:
REMARK  status: ('A' for Active; 'I' for Inactive)
REMARK    1  A    between atoms: PA_1  and  O5A'_4 
REMARK    2  A    between atoms: O3P_53  and  PA_1 
REMARK    3  A    between atoms: O5A'_4  and  C5A'_5 
REMARK    4  A    between atoms: C5A'_5  and  C4A'_6 
REMARK    5  A    between atoms: C3A'_8  and  O3A'_9 
REMARK    6  A    between atoms: C2A'_10  and  O2A'_11 
REMARK    7  A    between atoms: C1A'_12  and  N9A_13 
REMARK    8  A    between atoms: C6A_17  and  N6A_18 
REMARK    9  A    between atoms: C7_33  and  C7M_34 
REMARK   10  A    between atoms: C8_35  and  C8M_36 
REMARK   11  A    between atoms: C1'_41  and  N10_39 
REMARK   12  A    between atoms: C2'_42  and  C1'_41 
REMARK   13  A    between atoms: C2'_42  and  O2'_43 
REMARK   14  A    between atoms: C3'_44  and  C2'_42 
REMARK   15  A    between atoms: C3'_44  and  O3'_45 
REMARK   16  A    between atoms: C4'_46  and  C3'_44 
REMARK   17  A    between atoms: C4'_46  and  O4'_47 
REMARK   18  A    between atoms: C5'_48  and  C4'_46 
REMARK   19  A    between atoms: O5'_49  and  C5'_48 
REMARK   20  A    between atoms: P_50  and  O5'_49 
REMARK   21  A    between atoms: P_50  and  O3P_53 
ROOT
ATOM      1  C4' FAO d   1      85.792  35.027  74.841  0.00  0.00     0.084 C 
ATOM      2  H32 FAO d   1      86.163  35.108  75.873  0.00  0.00     0.090 H 
ENDROOT
BRANCH   1   3
ATOM      3  C3' FAO d   1      84.253  35.266  74.801  0.00  0.00     0.088 C 
ATOM      4  H30 FAO d   1      83.925  35.136  73.759  0.00  0.00     0.091 H 
BRANCH   3   5
ATOM      5  C2' FAO d   1      83.819  36.658  75.264  0.00  0.00     0.078 C 
ATOM      6  H28 FAO d   1      84.100  36.801  76.318  0.00  0.00     0.089 H 
BRANCH   5   7
ATOM      7  C1' FAO d   1      82.255  36.772  75.121  0.00  0.00     0.024 C 
ATOM      8  H26 FAO d   1      81.923  36.258  74.207  0.00  0.00     0.068 H 
ATOM      9  H27 FAO d   1      81.764  36.320  75.995  0.00  0.00     0.068 H 
BRANCH   7  10
ATOM     10  N10 FAO d   1      81.926  38.190  75.043  0.00  0.00    -0.353 N 
ATOM     11  C9N FAO d   1      81.408  38.658  73.869  0.00  0.00     0.059 A 
ATOM     12  C5N FAO d   1      80.457  39.707  73.829  0.00  0.00     0.056 A 
ATOM     13  C9  FAO d   1      81.900  38.158  72.650  0.00  0.00    -0.049 A 
ATOM     14  N5  FAO d   1      79.949  40.196  75.022  0.00  0.00    -0.372 N 
ATOM     15  C6  FAO d   1      79.975  40.210  72.608  0.00  0.00    -0.049 A 
ATOM     16  C4N FAO d   1      80.679  39.973  76.290  0.00  0.00     0.124 C 
ATOM     17  H16 FAO d   1      79.060  40.717  75.026  0.00  0.00     0.160 HD
ATOM     18  C4  FAO d   1      82.130  40.560  76.566  0.00  0.00     0.252 C 
ATOM     19  C10 FAO d   1      81.331  38.663  76.305  0.00  0.00     0.109 C 
ATOM     20  H15 FAO d   1      79.983  40.162  77.120  0.00  0.00     0.093 H 
ATOM     21  N3  FAO d   1      82.717  40.272  77.853  0.00  0.00    -0.277 N 
ATOM     22  O4  FAO d   1      82.396  41.641  76.075  0.00  0.00    -0.271 OA
ATOM     23  C2  FAO d   1      82.469  38.994  78.353  0.00  0.00     0.324 C 
ATOM     24  H14 FAO d   1      83.264  40.944  78.352  0.00  0.00     0.173 HD
ATOM     25  N1  FAO d   1      81.728  38.182  77.538  0.00  0.00    -0.319 N 
ATOM     26  O2  FAO d   1      82.839  38.576  79.459  0.00  0.00    -0.247 OA
ATOM     27  H13 FAO d   1      81.479  37.258  77.829  0.00  0.00     0.166 HD
ATOM     28  H25 FAO d   1      80.416  38.056  76.233  0.00  0.00     0.111 H 
ATOM     29  C7  FAO d   1      80.455  39.693  71.397  0.00  0.00    -0.054 A 
ATOM     30  H17 FAO d   1      79.231  40.999  72.603  0.00  0.00     0.087 H 
ATOM     31  C8  FAO d   1      81.432  38.656  71.417  0.00  0.00    -0.054 A 
ATOM     32  H24 FAO d   1      82.651  37.377  72.659  0.00  0.00     0.087 H 
BRANCH  29  33
ATOM     33  C7M FAO d   1      79.896  40.281  70.099  0.00  0.00    -0.051 C 
ATOM     34  H18 FAO d   1      79.160  41.063  70.338  0.00  0.00     0.033 H 
ATOM     35  H19 FAO d   1      79.409  39.485  69.516  0.00  0.00     0.033 H 
ATOM     36  H20 FAO d   1      80.717  40.717  69.511  0.00  0.00     0.033 H 
ENDBRANCH  29  33
BRANCH  31  37
ATOM     37  C8M FAO d   1      82.025  38.032  70.119  0.00  0.00    -0.051 C 
ATOM     38  H21 FAO d   1      82.756  37.255  70.387  0.00  0.00     0.033 H 
ATOM     39  H22 FAO d   1      82.523  38.816  69.529  0.00  0.00     0.033 H 
ATOM     40  H23 FAO d   1      81.215  37.584  69.524  0.00  0.00     0.033 H 
ENDBRANCH  31  37
ENDBRANCH   7  10
ENDBRANCH   5   7
BRANCH   5  41
ATOM     41  O2' FAO d   1      84.477  37.659  74.456  0.00  0.00    -0.391 OA
ATOM     42  H29 FAO d   1      85.418  37.575  74.555  0.00  0.00     0.210 HD
ENDBRANCH   5  41
ENDBRANCH   3   5
BRANCH   3  43
ATOM     43  O3' FAO d   1      83.589  34.325  75.606  0.00  0.00    -0.390 OA
ATOM     44  H31 FAO d   1      83.841  33.449  75.340  0.00  0.00     0.210 HD
ENDBRANCH   3  43
ENDBRANCH   1   3
BRANCH   1  45
ATOM     45  O4' FAO d   1      86.430  36.014  73.997  0.00  0.00    -0.391 OA
ATOM     46  H33 FAO d   1      87.371  35.881  74.011  0.00  0.00     0.210 HD
ENDBRANCH   1  45
BRANCH   1  47
ATOM     47  C5' FAO d   1      86.094  33.643  74.279  0.00  0.00     0.058 C 
ATOM     48  H34 FAO d   1      85.677  33.553  73.265  0.00  0.00     0.079 H 
ATOM     49  H35 FAO d   1      85.651  32.872  74.927  0.00  0.00     0.079 H 
BRANCH  47  50
ATOM     50  O5' FAO d   1      87.553  33.478  74.234  0.00  0.00    -0.287 OA
BRANCH  50  51
ATOM     51  P   FAO d   1      88.243  32.180  73.559  0.00  0.00     0.417 P 
ATOM     52  O1P FAO d   1      89.720  32.300  73.782  0.00  0.00    -0.624 OA
ATOM     53  O2P FAO d   1      87.542  30.971  73.965  0.00  0.00    -0.624 OA
BRANCH  51  54
ATOM     54  O3P FAO d   1      87.874  32.342  71.965  0.00  0.00    -0.180 OA
BRANCH  54  55
ATOM     55  PA  FAO d   1      88.216  33.568  70.957  0.00  0.00     0.417 P 
ATOM     56  O1A FAO d   1      87.181  33.534  69.902  0.00  0.00    -0.624 OA
ATOM     57  O2A FAO d   1      88.492  34.869  71.633  0.00  0.00    -0.624 OA
BRANCH  55  58
ATOM     58  O5A FAO d   1      89.627  33.143  70.312  0.00  0.00    -0.287 OA
BRANCH  58  59
ATOM     59  C5A FAO d   1      89.687  32.133  69.250  0.00  0.00     0.058 C 
ATOM     60  H1  FAO d   1      88.691  31.995  68.803  0.00  0.00     0.079 H 
ATOM     61  H2  FAO d   1      90.041  31.175  69.659  0.00  0.00     0.079 H 
BRANCH  59  62
ATOM     62  C4A FAO d   1      90.674  32.652  68.190  0.00  0.00     0.089 C 
ATOM     63  O4A FAO d   1      90.928  31.575  67.306  0.00  0.00    -0.353 OA
ATOM     64  C1A FAO d   1      90.982  32.082  65.992  0.00  0.00     0.139 C 
ATOM     65  C2A FAO d   1      89.874  33.103  65.976  0.00  0.00     0.105 C 
ATOM     66  H8  FAO d   1      91.951  32.540  65.747  0.00  0.00     0.122 H 
ATOM     67  C3A FAO d   1      90.086  33.785  67.345  0.00  0.00     0.091 C 
ATOM     68  H6  FAO d   1      88.882  32.631  65.914  0.00  0.00     0.093 H 
ATOM     69  H4  FAO d   1      89.138  34.173  67.745  0.00  0.00     0.091 H 
ATOM     70  H3  FAO d   1      91.601  32.991  68.677  0.00  0.00     0.090 H 
BRANCH  64  71
ATOM     71  N9A FAO d   1      90.712  30.910  65.116  0.00  0.00    -0.294 N 
ATOM     72  C8A FAO d   1      89.533  30.259  64.974  0.00  0.00     0.071 A 
ATOM     73  N7A FAO d   1      89.695  29.289  64.086  0.00  0.00    -0.236 NA
ATOM     74  H9  FAO d   1      88.609  30.493  65.500  0.00  0.00     0.144 H 
ATOM     75  C5A FAO d   1      90.972  29.295  63.672  0.00  0.00     0.149 A 
ATOM     76  C6A FAO d   1      91.703  28.513  62.760  0.00  0.00     0.155 A 
ATOM     77  C4A FAO d   1      91.620  30.354  64.314  0.00  0.00     0.167 A 
ATOM     78  N1A FAO d   1      93.013  28.774  62.559  0.00  0.00    -0.222 NA
ATOM     79  C2A FAO d   1      93.607  29.808  63.209  0.00  0.00     0.091 A 
ATOM     80  N3A FAO d   1      92.943  30.580  64.098  0.00  0.00    -0.222 NA
ATOM     81  H12 FAO d   1      94.650  30.022  63.008  0.00  0.00     0.146 H 
BRANCH  76  82
ATOM     82  N6A FAO d   1      91.132  27.493  62.120  0.00  0.00    -0.382 N 
ATOM     83  H10 FAO d   1      91.681  26.930  61.455  0.00  0.00     0.157 HD
ATOM     84  H11 FAO d   1      90.141  27.268  62.290  0.00  0.00     0.157 HD
ENDBRANCH  76  82
ENDBRANCH  64  71
BRANCH  65  85
ATOM     85  O2A FAO d   1      90.043  33.988  64.890  0.00  0.00    -0.388 OA
ATOM     86  H7  FAO d   1      90.925  34.341  64.905  0.00  0.00     0.210 HD
ENDBRANCH  65  85
BRANCH  67  87
ATOM     87  O3A FAO d   1      91.082  34.800  67.346  0.00  0.00    -0.390 OA
ATOM     88  H5  FAO d   1      91.882  34.457  66.966  0.00  0.00     0.210 HD
ENDBRANCH  67  87
ENDBRANCH  59  62
ENDBRANCH  58  59
ENDBRANCH  55  58
ENDBRANCH  54  55
ENDBRANCH  51  54
ENDBRANCH  50  51
ENDBRANCH  47  50
ENDBRANCH   1  47
TORSDOF 21
