REMARK  9 active torsions:
REMARK  status: ('A' for Active; 'I' for Inactive)
REMARK    1  A    between atoms: C51_2  and  C2_5 
REMARK    2  A    between atoms: C5_10  and  C11_11 
REMARK       I    between atoms: C11_11  and  N12_13 
REMARK    3  A    between atoms: C17_14  and  C34_15 
REMARK    4  A    between atoms: C17_14  and  C33_18 
REMARK    5  A    between atoms: C33_18  and  C37_19 
REMARK    6  A    between atoms: C37_19  and  C44_20 
REMARK    7  A    between atoms: C37_19  and  C40_21 
REMARK    8  A    between atoms: C15_23  and  C22_24 
REMARK    9  A    between atoms: C14_27  and  C20_28 
ROOT
ATOM      1  C11 699 d   1      10.297  45.670  51.337  0.00  0.00     0.255 C 
ATOM      2  O13 699 d   1      10.221  46.917  51.554  0.00  0.00    -0.267 OA
ATOM      3  N12 699 d   1      11.490  45.101  50.970  0.00  0.00    -0.318 N 
ATOM      4  C17 699 d   1      12.805  45.857  50.967  0.00  0.00     0.126 C 
ATOM      5  C16 699 d   1      13.766  44.724  50.466  0.00  0.00    -0.017 C 
ATOM      6  C15 699 d   1      13.101  43.421  50.842  0.00  0.00     0.057 C 
ATOM      7  C14 699 d   1      11.636  43.676  50.575  0.00  0.00     0.061 C 
ATOM      8  H14 699 d   1      14.746  44.809  50.957  0.00  0.00     0.038 H 
ATOM      9  H15 699 d   1      13.896  44.787  49.376  0.00  0.00     0.038 H 
ATOM     10  H16 699 d   1      13.244  43.269  51.922  0.00  0.00     0.060 H 
ATOM     11  H17 699 d   1      11.025  43.052  51.244  0.00  0.00     0.082 H 
ENDROOT
BRANCH   1  12
ATOM     12  C5  699 d   1       9.028  44.845  51.429  0.00  0.00     0.032 A 
ATOM     13  C6  699 d   1       8.580  44.353  52.676  0.00  0.00    -0.067 A 
ATOM     14  C1  699 d   1       7.367  43.637  52.720  0.00  0.00    -0.067 A 
ATOM     15  H2  699 d   1       9.156  44.523  53.578  0.00  0.00     0.085 H 
ATOM     16  C2  699 d   1       6.599  43.415  51.537  0.00  0.00     0.048 A 
ATOM     17  H1  699 d   1       7.011  43.248  53.667  0.00  0.00     0.084 H 
ATOM     18  C3  699 d   1       7.042  43.947  50.294  0.00  0.00    -0.067 A 
ATOM     19  C4  699 d   1       8.238  44.659  50.256  0.00  0.00    -0.067 A 
ATOM     20  H3  699 d   1       6.459  43.801  49.392  0.00  0.00     0.084 H 
ATOM     21  H4  699 d   1       8.575  45.080  49.316  0.00  0.00     0.085 H 
BRANCH  16  22
ATOM     22  C51 699 d   1       5.264  42.694  51.608  0.00  0.00     0.417 C 
ATOM     23  F54 699 d   1       5.441  41.379  51.934  0.00  0.00    -0.166 F 
ATOM     24  F52 699 d   1       4.625  43.357  52.594  0.00  0.00    -0.166 F 
ATOM     25  F53 699 d   1       4.661  42.947  50.429  0.00  0.00    -0.166 F 
ENDBRANCH  16  22
ENDBRANCH   1  12
BRANCH   4  26
ATOM     26  C34 699 d   1      12.741  46.992  49.901  0.00  0.00     0.202 C 
ATOM     27  O36 699 d   1      11.825  46.766  49.005  0.00  0.00    -0.646 OA
ATOM     28  O35 699 d   1      13.559  47.866  49.747  0.00  0.00    -0.646 OA
ENDBRANCH   4  26
BRANCH   4  29
ATOM     29  C33 699 d   1      13.038  46.453  52.405  0.00  0.00    -0.029 C 
ATOM     30  H5  699 d   1      12.160  47.070  52.647  0.00  0.00     0.038 H 
ATOM     31  H6  699 d   1      13.932  47.092  52.351  0.00  0.00     0.038 H 
BRANCH  29  32
ATOM     32  C37 699 d   1      13.247  45.471  53.585  0.00  0.00    -0.058 C 
ATOM     33  H7  699 d   1      13.931  44.670  53.267  0.00  0.00     0.039 H 
BRANCH  32  34
ATOM     34  C44 699 d   1      13.844  46.224  54.744  0.00  0.00    -0.073 C 
ATOM     35  H8  699 d   1      13.997  45.536  55.589  0.00  0.00     0.028 H 
ATOM     36  H9  699 d   1      13.161  47.031  55.048  0.00  0.00     0.028 H 
ATOM     37  H10 699 d   1      14.810  46.655  54.443  0.00  0.00     0.028 H 
ENDBRANCH  32  34
BRANCH  32  38
ATOM     38  C40 699 d   1      11.926  44.847  54.063  0.00  0.00    -0.073 C 
ATOM     39  H11 699 d   1      11.464  44.288  53.236  0.00  0.00     0.028 H 
ATOM     40  H12 699 d   1      11.243  45.643  54.394  0.00  0.00     0.028 H 
ATOM     41  H13 699 d   1      12.126  44.163  54.901  0.00  0.00     0.028 H 
ENDBRANCH  32  38
ENDBRANCH  29  32
ENDBRANCH   4  29
BRANCH   7  42
ATOM     42  C20 699 d   1      11.219  43.348  49.164  0.00  0.00     0.006 A 
ATOM     43  S29 699 d   1      10.230  41.993  48.840  0.00  0.00    -0.104 SA
ATOM     44  C28 699 d   1      10.263  42.299  47.164  0.00  0.00    -0.044 A 
ATOM     45  C27 699 d   1      11.015  43.386  46.877  0.00  0.00    -0.076 A 
ATOM     46  H20 699 d   1       9.745  41.697  46.419  0.00  0.00     0.095 H 
ATOM     47  C26 699 d   1      11.610  44.043  47.995  0.00  0.00    -0.068 A 
ATOM     48  H19 699 d   1      11.157  43.738  45.856  0.00  0.00     0.084 H 
ATOM     49  H18 699 d   1      12.251  44.923  47.956  0.00  0.00     0.085 H 
ENDBRANCH   7  42
BRANCH   6  50
ATOM     50  C22 699 d   1      13.605  42.155  50.166  0.00  0.00     0.179 C 
ATOM     51  O25 699 d   1      12.882  41.077  50.530  0.00  0.00    -0.648 OA
ATOM     52  O24 699 d   1      14.687  42.132  49.622  0.00  0.00    -0.648 OA
ENDBRANCH   6  50
TORSDOF 9
