REMARK  14 active torsions:
REMARK  status: ('A' for Active; 'I' for Inactive)
REMARK    1  A    between atoms: O4_21  and  C1_1 
REMARK    2  A    between atoms: C2_2  and  O2_7 
REMARK    3  A    between atoms: C3_3  and  O3_8 
REMARK    4  A    between atoms: C4_4  and  O4_9 
REMARK    5  A    between atoms: C5_5  and  C6_6 
REMARK    6  A    between atoms: NT_29  and  C1_11 
REMARK    7  A    between atoms: C2_12  and  N2_19 
REMARK    8  A    between atoms: C3_13  and  O3_20 
REMARK    9  A    between atoms: C4_14  and  O4_21 
REMARK   10  A    between atoms: C5_15  and  C6_16 
REMARK   11  A    between atoms: C6_16  and  O6_23 
REMARK   12  A    between atoms: C7_17  and  C8_18 
REMARK       I    between atoms: N2_19  and  C7_17 
REMARK   13  A    between atoms: CA_26  and  CB_27 
REMARK   14  A    between atoms: CB_27  and  OG_28 
ROOT
ATOM      1  H12 FUC d   1      40.014   7.471  -8.046  0.00  0.00     0.123 H 
ATOM      2  H13 FUC d   1      42.176   5.901  -6.593  0.00  0.00     0.083 H 
ATOM      3  H14 FUC d   1      39.289   5.083  -7.326  0.00  0.00     0.090 H 
ATOM      4  H15 FUC d   1      40.576   5.697  -4.588  0.00  0.00     0.091 H 
ATOM      5  H16 FUC d   1      38.505   7.243  -6.239  0.00  0.00     0.090 H 
ATOM      6  C1  NAG d   1      40.867   7.418  -7.353  0.00  0.00     0.144 C 
ATOM      7  C2  NAG d   1      41.291   5.973  -7.243  0.00  0.00     0.083 C 
ATOM      8  C3  NAG d   1      40.152   5.136  -6.646  0.00  0.00     0.086 C 
ATOM      9  C4  NAG d   1      39.752   5.773  -5.313  0.00  0.00     0.095 C 
ATOM     10  C5  NAG d   1      39.344   7.225  -5.527  0.00  0.00     0.089 C 
ATOM     11  O5  NAG d   1      40.479   7.952  -6.089  0.00  0.00    -0.353 OA
ENDROOT
BRANCH   9  12
ATOM     12  O4  NAG d   1      38.568   5.113  -4.833  0.00  0.00    -0.348 OA
BRANCH  12  13
ATOM     13  C1  FUC d   1      38.745   4.486  -3.556  0.00  0.00     0.159 C 
ATOM     14  C2  FUC d   1      37.410   4.279  -2.899  0.00  0.00     0.110 C 
ATOM     15  C3  FUC d   1      36.628   3.276  -3.690  0.00  0.00     0.092 C 
ATOM     16  H2  FUC d   1      37.583   3.885  -1.887  0.00  0.00     0.094 H 
ATOM     17  C4  FUC d   1      37.366   1.966  -3.895  0.00  0.00     0.087 C 
ATOM     18  H3  FUC d   1      36.391   3.707  -4.674  0.00  0.00     0.091 H 
ATOM     19  C5  FUC d   1      38.736   2.288  -4.498  0.00  0.00     0.065 C 
ATOM     20  H4  FUC d   1      36.806   1.300  -4.568  0.00  0.00     0.091 H 
ATOM     21  O5  FUC d   1      39.471   3.230  -3.694  0.00  0.00    -0.351 OA
ATOM     22  H5  FUC d   1      38.570   2.726  -5.493  0.00  0.00     0.086 H 
ATOM     23  H1  FUC d   1      39.341   5.157  -2.920  0.00  0.00     0.133 H 
BRANCH  14  24
ATOM     24  O2  FUC d   1      36.629   5.488  -2.786  0.00  0.00    -0.388 OA
ATOM     25  H9  FUC d   1      37.116   6.132  -2.285  0.00  0.00     0.210 HD
ENDBRANCH  14  24
BRANCH  15  26
ATOM     26  O3  FUC d   1      35.391   2.992  -2.961  0.00  0.00    -0.390 OA
ATOM     27  H10 FUC d   1      34.857   2.391  -3.467  0.00  0.00     0.210 HD
ENDBRANCH  15  26
BRANCH  17  28
ATOM     28  O4  FUC d   1      37.495   1.361  -2.584  0.00  0.00    -0.390 OA
ATOM     29  H11 FUC d   1      37.991   0.554  -2.656  0.00  0.00     0.210 HD
ENDBRANCH  17  28
BRANCH  19  30
ATOM     30  C6  FUC d   1      39.611   1.042  -4.651  0.00  0.00    -0.050 C 
ATOM     31  H6  FUC d   1      40.580   1.326  -5.087  0.00  0.00     0.031 H 
ATOM     32  H7  FUC d   1      39.109   0.320  -5.312  0.00  0.00     0.031 H 
ATOM     33  H8  FUC d   1      39.773   0.584  -3.664  0.00  0.00     0.031 H 
ENDBRANCH  19  30
ENDBRANCH  12  13
ENDBRANCH   9  12
BRANCH   8  34
ATOM     34  O3  NAG d   1      40.716   3.830  -6.418  0.00  0.00    -0.391 OA
ATOM     35  H23 FUC d   1      41.485   3.910  -5.866  0.00  0.00     0.210 HD
ENDBRANCH   8  34
BRANCH  10  36
ATOM     36  C6  NAG d   1      38.925   7.946  -4.286  0.00  0.00     0.043 C 
ATOM     37  H17 FUC d   1      37.954   7.554  -3.949  0.00  0.00     0.078 H 
ATOM     38  H18 FUC d   1      38.832   9.020  -4.504  0.00  0.00     0.078 H 
BRANCH  36  39
ATOM     39  O6  NAG d   1      39.834   7.769  -3.316  0.00  0.00    -0.398 OA
ATOM     40  H24 FUC d   1      40.673   8.108  -3.604  0.00  0.00     0.209 HD
ENDBRANCH  36  39
ENDBRANCH  10  36
BRANCH   7  41
ATOM     41  N2  NAG d   1      41.619   5.462  -8.570  0.00  0.00    -0.350 N 
ATOM     42  C7  NAG d   1      42.885   5.184  -8.921  0.00  0.00     0.214 C 
ATOM     43  O7  NAG d   1      43.853   5.220  -8.128  0.00  0.00    -0.274 OA
ATOM     44  H22 FUC d   1      40.885   5.316  -9.233  0.00  0.00     0.163 HD
BRANCH  42  45
ATOM     45  C8  NAG d   1      43.089   4.777 -10.364  0.00  0.00    -0.003 C 
ATOM     46  H19 FUC d   1      44.156   4.574 -10.540  0.00  0.00     0.040 H 
ATOM     47  H20 FUC d   1      42.757   5.591 -11.025  0.00  0.00     0.040 H 
ATOM     48  H21 FUC d   1      42.503   3.870 -10.576  0.00  0.00     0.040 H 
ENDBRANCH  42  45
ENDBRANCH   7  41
BRANCH   6  49
ATOM     49  NT  TA5 d   1      41.847   8.205  -7.805  0.00  0.00    -0.252 N 
ATOM     50  C   TA5 d   1      42.989   8.476  -7.128  0.00  0.00     0.025 A 
ATOM     51  CA  TA5 d   1      43.744   9.409  -7.849  0.00  0.00     0.092 A 
ATOM     52  H28 FUC d   1      43.275   8.037  -6.173  0.00  0.00     0.117 H 
ATOM     53  N   TA5 d   1      43.038   9.696  -8.959  0.00  0.00    -0.161 NA
ATOM     54  N2  TA5 d   1      41.827   8.962  -8.983  0.00  0.00     0.007 NA
BRANCH  51  55
ATOM     55  CB  TA5 d   1      45.089   9.960  -7.399  0.00  0.00     0.059 C 
ATOM     56  H25 FUC d   1      45.639   9.197  -6.829  0.00  0.00     0.083 H 
ATOM     57  H26 FUC d   1      44.942  10.851  -6.771  0.00  0.00     0.083 H 
BRANCH  55  58
ATOM     58  OG  TA5 d   1      45.811  10.306  -8.582  0.00  0.00    -0.395 OA
ATOM     59  H27 FUC d   1      46.661  10.656  -8.342  0.00  0.00     0.209 HD
ENDBRANCH  55  58
ENDBRANCH  51  55
ENDBRANCH   6  49
TORSDOF 14
