REMARK  15 active torsions:
REMARK  status: ('A' for Active; 'I' for Inactive)
REMARK    1  A    between atoms: O4_21  and  C1_1 
REMARK    2  A    between atoms: C2_2  and  O2_7 
REMARK    3  A    between atoms: C3_3  and  O3_8 
REMARK    4  A    between atoms: C4_4  and  O4_9 
REMARK    5  A    between atoms: C5_5  and  C6_6 
REMARK    6  A    between atoms: N1_32  and  C1_11 
REMARK    7  A    between atoms: C2_12  and  N2_19 
REMARK    8  A    between atoms: C3_13  and  O3_20 
REMARK    9  A    between atoms: C4_14  and  O4_21 
REMARK   10  A    between atoms: C5_15  and  C6_16 
REMARK   11  A    between atoms: C6_16  and  O6_23 
REMARK   12  A    between atoms: C7_17  and  C8_18 
REMARK       I    between atoms: N2_19  and  C7_17 
REMARK   13  A    between atoms: C3_26  and  O_27 
REMARK   14  A    between atoms: C2_29  and  C3_26 
REMARK   15  A    between atoms: O_27  and  C4_28 
ROOT
ATOM      1  H12 FUC d   1      40.152   7.652  -7.966  0.00  0.00     0.123 H 
ATOM      2  H13 FUC d   1      42.284   6.050  -6.514  0.00  0.00     0.083 H 
ATOM      3  H14 FUC d   1      39.439   5.212  -7.311  0.00  0.00     0.090 H 
ATOM      4  H15 FUC d   1      40.623   5.793  -4.550  0.00  0.00     0.091 H 
ATOM      5  H16 FUC d   1      38.590   7.380  -6.205  0.00  0.00     0.090 H 
ATOM      6  C1  NAG d   1      40.981   7.579  -7.247  0.00  0.00     0.144 C 
ATOM      7  C2  NAG d   1      41.403   6.131  -7.167  0.00  0.00     0.083 C 
ATOM      8  C3  NAG d   1      40.276   5.264  -6.600  0.00  0.00     0.086 C 
ATOM      9  C4  NAG d   1      39.809   5.870  -5.286  0.00  0.00     0.095 C 
ATOM     10  C5  NAG d   1      39.415   7.343  -5.479  0.00  0.00     0.089 C 
ATOM     11  O5  NAG d   1      40.553   8.063  -6.007  0.00  0.00    -0.353 OA
ENDROOT
BRANCH   9  12
ATOM     12  O4  NAG d   1      38.637   5.204  -4.784  0.00  0.00    -0.348 OA
BRANCH  12  13
ATOM     13  C1  FUC d   1      38.840   4.580  -3.528  0.00  0.00     0.159 C 
ATOM     14  C2  FUC d   1      37.489   4.358  -2.866  0.00  0.00     0.110 C 
ATOM     15  C3  FUC d   1      36.666   3.383  -3.642  0.00  0.00     0.092 C 
ATOM     16  H2  FUC d   1      37.678   3.951  -1.862  0.00  0.00     0.094 H 
ATOM     17  C4  FUC d   1      37.424   2.086  -3.869  0.00  0.00     0.087 C 
ATOM     18  H3  FUC d   1      36.413   3.827  -4.616  0.00  0.00     0.091 H 
ATOM     19  C5  FUC d   1      38.801   2.368  -4.474  0.00  0.00     0.065 C 
ATOM     20  H4  FUC d   1      36.858   1.427  -4.544  0.00  0.00     0.091 H 
ATOM     21  O5  FUC d   1      39.520   3.332  -3.664  0.00  0.00    -0.351 OA
ATOM     22  H5  FUC d   1      38.651   2.783  -5.482  0.00  0.00     0.086 H 
ATOM     23  H1  FUC d   1      39.448   5.244  -2.896  0.00  0.00     0.133 H 
BRANCH  14  24
ATOM     24  O2  FUC d   1      36.675   5.551  -2.730  0.00  0.00    -0.388 OA
ATOM     25  H9  FUC d   1      37.156   6.207  -2.240  0.00  0.00     0.210 HD
ENDBRANCH  14  24
BRANCH  15  26
ATOM     26  O3  FUC d   1      35.458   3.089  -2.925  0.00  0.00    -0.390 OA
ATOM     27  H10 FUC d   1      34.927   2.489  -3.435  0.00  0.00     0.210 HD
ENDBRANCH  15  26
BRANCH  17  28
ATOM     28  O4  FUC d   1      37.555   1.464  -2.545  0.00  0.00    -0.390 OA
ATOM     29  H11 FUC d   1      38.028   0.644  -2.627  0.00  0.00     0.210 HD
ENDBRANCH  17  28
BRANCH  19  30
ATOM     30  C6  FUC d   1      39.674   1.126  -4.586  0.00  0.00    -0.050 C 
ATOM     31  H6  FUC d   1      40.644   1.399  -5.027  0.00  0.00     0.031 H 
ATOM     32  H7  FUC d   1      39.176   0.384  -5.227  0.00  0.00     0.031 H 
ATOM     33  H8  FUC d   1      39.833   0.698  -3.585  0.00  0.00     0.031 H 
ENDBRANCH  19  30
ENDBRANCH  12  13
ENDBRANCH   9  12
BRANCH   8  34
ATOM     34  O3  NAG d   1      40.801   3.953  -6.355  0.00  0.00    -0.391 OA
ATOM     35  H23 FUC d   1      41.534   4.014  -5.753  0.00  0.00     0.210 HD
ENDBRANCH   8  34
BRANCH  10  36
ATOM     36  C6  NAG d   1      38.979   8.039  -4.251  0.00  0.00     0.043 C 
ATOM     37  H17 FUC d   1      38.010   7.622  -3.940  0.00  0.00     0.078 H 
ATOM     38  H18 FUC d   1      38.862   9.109  -4.480  0.00  0.00     0.078 H 
BRANCH  36  39
ATOM     39  O6  NAG d   1      39.845   7.914  -3.227  0.00  0.00    -0.398 OA
ATOM     40  H24 FUC d   1      40.685   8.278  -3.478  0.00  0.00     0.209 HD
ENDBRANCH  36  39
ENDBRANCH  10  36
BRANCH   7  41
ATOM     41  N2  NAG d   1      41.740   5.649  -8.495  0.00  0.00    -0.350 N 
ATOM     42  C7  NAG d   1      43.016   5.454  -8.861  0.00  0.00     0.214 C 
ATOM     43  O7  NAG d   1      43.983   5.560  -8.069  0.00  0.00    -0.274 OA
ATOM     44  H22 FUC d   1      41.007   5.459  -9.149  0.00  0.00     0.163 HD
BRANCH  42  45
ATOM     45  C8  NAG d   1      43.276   5.081 -10.295  0.00  0.00    -0.003 C 
ATOM     46  H19 FUC d   1      44.358   4.954 -10.450  0.00  0.00     0.040 H 
ATOM     47  H20 FUC d   1      42.902   5.878 -10.955  0.00  0.00     0.040 H 
ATOM     48  H21 FUC d   1      42.759   4.139 -10.528  0.00  0.00     0.040 H 
ENDBRANCH  42  45
ENDBRANCH   7  41
BRANCH   6  49
ATOM     49  N1  T45 d   1      41.959   8.361  -7.644  0.00  0.00    -0.252 N 
ATOM     50  N2  T45 d   1      41.942   8.993  -8.879  0.00  0.00     0.007 NA
ATOM     51  N3  T45 d   1      43.159   9.666  -8.992  0.00  0.00    -0.152 NA
ATOM     52  C2  T45 d   1      43.870   9.478  -7.869  0.00  0.00     0.166 A 
ATOM     53  C1  T45 d   1      43.109   8.662  -7.015  0.00  0.00     0.033 A 
ATOM     54  H28 FUC d   1      43.399   8.331  -6.019  0.00  0.00     0.117 H 
BRANCH  52  55
ATOM     55  C3  T45 d   1      45.245  10.055  -7.684  0.00  0.00     0.314 C 
ATOM     56  O1  T45 d   1      46.115   9.473  -7.035  0.00  0.00    -0.257 OA
BRANCH  55  57
ATOM     57  O   T45 d   1      45.571  11.321  -8.327  0.00  0.00    -0.321 OA
BRANCH  57  58
ATOM     58  C4  T45 d   1      46.147  11.424  -9.636  0.00  0.00     0.013 C 
ATOM     59  H25 FUC d   1      46.295  12.484  -9.889  0.00  0.00     0.067 H 
ATOM     60  H26 FUC d   1      45.471  10.963 -10.371  0.00  0.00     0.067 H 
ATOM     61  H27 FUC d   1      47.116  10.904  -9.652  0.00  0.00     0.067 H 
ENDBRANCH  57  58
ENDBRANCH  55  57
ENDBRANCH  52  55
ENDBRANCH   6  49
TORSDOF 15
