REMARK WARNING: 32 MAX_TORS EXCEEDED!!!
REMARK  40 active torsions:
REMARK  status: ('A' for Active; 'I' for Inactive)
REMARK    1  A    between atoms: N_1  and  CA_2 
REMARK    2  A    between atoms: CA_2  and  C_3 
REMARK    3  A    between atoms: CA_2  and  CB_5 
REMARK       I    between atoms: C_3  and  N_9 
REMARK    4  A    between atoms: CB_5  and  CG_6 
REMARK    5  A    between atoms: N_9  and  CA_10 
REMARK    6  A    between atoms: CA_10  and  C_11 
REMARK    7  A    between atoms: CA_10  and  CB_13 
REMARK       I    between atoms: C_11  and  N_17 
REMARK    8  A    between atoms: CB_13  and  CG_14 
REMARK    9  A    between atoms: N_17  and  CA_18 
REMARK   10  A    between atoms: CA_18  and  C_19 
REMARK   11  A    between atoms: CA_18  and  CB_21 
REMARK       I    between atoms: C_19  and  N_25 
REMARK   12  A    between atoms: CB_21  and  CG_22 
REMARK   13  A    between atoms: N_25  and  CA_26 
REMARK   14  A    between atoms: CA_26  and  C_27 
REMARK   15  A    between atoms: CA_26  and  CB_29 
REMARK       I    between atoms: C_27  and  N_33 
REMARK   16  A    between atoms: CB_29  and  CG_30 
REMARK   17  A    between atoms: CG_30  and  SD_31 
REMARK   18  A    between atoms: SD_31  and  CE_32 
REMARK   19  A    between atoms: N_33  and  CA_34 
REMARK   20  A    between atoms: CA_34  and  C_35 
REMARK       I    between atoms: C_35  and  N_37 
REMARK   21  A    between atoms: N_37  and  CA_38 
REMARK   22  A    between atoms: CA_38  and  C_39 
REMARK   23  A    between atoms: CA_38  and  CB_41 
REMARK       I    between atoms: C_39  and  N_48 
REMARK   24  A    between atoms: CB_41  and  CG_42 
REMARK   25  A    between atoms: N_48  and  CA_49 
REMARK   26  A    between atoms: CA_49  and  C_50 
REMARK       I    between atoms: C_50  and  N_52 
REMARK   27  A    between atoms: N_52  and  CA_53 
REMARK   28  A    between atoms: CA_53  and  C_54 
REMARK   29  A    between atoms: CA_53  and  CB_56 
REMARK       I    between atoms: C_54  and  N_60 
REMARK   30  A    between atoms: CB_56  and  CG_57 
REMARK   31  A    between atoms: CG_57  and  CD1_58 
REMARK   32  A    between atoms: CG_57  and  CD2_59 
REMARK   33  A    between atoms: N_60  and  CA_61 
REMARK   34  A    between atoms: CA_61  and  C_62 
REMARK   35  A    between atoms: CA_61  and  CB_64 
REMARK       I    between atoms: C_62  and  N_71 
REMARK   36  A    between atoms: CB_64  and  CG_65 
REMARK   37  A    between atoms: N_71  and  CA_72 
REMARK   38  A    between atoms: CA_72  and  C_73 
REMARK   39  A    between atoms: CA_72  and  CB_75 
REMARK   40  A    between atoms: CB_75  and  CG_76 
ROOT
ATOM      1  CA  PHE d   1      28.300 -19.138  16.393  0.00  0.00     0.093 C 
ATOM      2  H28 PHE d   1      29.064 -18.585  16.959  0.00  0.00     0.088 H 
ENDROOT
BRANCH   1   3
ATOM      3  N   PHE d   1      26.996 -18.570  16.751  0.00  0.00    -0.346 N 
ATOM      4  C   GLY d   1      26.720 -17.255  16.697  0.00  0.00     0.236 C 
ATOM      5  O   GLY d   1      27.475 -16.398  16.217  0.00  0.00    -0.272 OA
ATOM      6  H27 PHE d   1      26.274 -19.194  17.051  0.00  0.00     0.163 HD
BRANCH   4   7
ATOM      7  CA  GLY d   1      25.381 -16.833  17.276  0.00  0.00     0.069 C 
ATOM      8  H25 GLY d   1      25.467 -15.788  17.608  0.00  0.00     0.078 H 
ATOM      9  H26 GLY d   1      24.627 -16.904  16.479  0.00  0.00     0.078 H 
BRANCH   7  10
ATOM     10  N   GLY d   1      24.927 -17.622  18.393  0.00  0.00    -0.351 N 
ATOM     11  C   MET d   1      25.675 -17.906  19.468  0.00  0.00     0.240 C 
ATOM     12  O   MET d   1      26.858 -17.582  19.599  0.00  0.00    -0.271 OA
ATOM     13  H24 GLY d   1      23.994 -17.981  18.364  0.00  0.00     0.163 HD
BRANCH  11  14
ATOM     14  CA  MET d   1      24.957 -18.659  20.600  0.00  0.00     0.090 C 
ATOM     15  H16 MET d   1      25.169 -18.125  21.538  0.00  0.00     0.087 H 
BRANCH  14  16
ATOM     16  N   MET d   1      23.502 -18.607  20.383  0.00  0.00    -0.346 N 
ATOM     17  C   ASP d   1      22.738 -17.599  20.813  0.00  0.00     0.241 C 
ATOM     18  O   ASP d   1      23.192 -16.572  21.322  0.00  0.00    -0.271 OA
ATOM     19  H15 MET d   1      23.066 -19.360  19.891  0.00  0.00     0.163 HD
BRANCH  17  20
ATOM     20  CA  ASP d   1      21.223 -17.800  20.651  0.00  0.00     0.098 C 
ATOM     21  H12 ASP d   1      20.826 -17.056  19.945  0.00  0.00     0.088 H 
BRANCH  20  22
ATOM     22  N   ASP d   1      21.010 -19.146  20.112  0.00  0.00    -0.345 N 
ATOM     23  C   ASP d   1      20.330 -19.421  19.000  0.00  0.00     0.241 C 
ATOM     24  O   ASP d   1      19.428 -18.680  18.553  0.00  0.00    -0.271 OA
ATOM     25  H11 ASP d   1      21.404 -19.915  20.616  0.00  0.00     0.163 HD
BRANCH  23  26
ATOM     26  CA  ASP d   1      20.642 -20.800  18.333  0.00  0.00     0.098 C 
ATOM     27  H8  ASP d   1      19.799 -21.482  18.518  0.00  0.00     0.088 H 
BRANCH  26  28
ATOM     28  N   ASP d   1      20.764 -20.552  16.908  0.00  0.00    -0.345 N 
ATOM     29  C   ASP d   1      20.821 -21.519  15.994  0.00  0.00     0.249 C 
ATOM     30  O   ASP d   1      20.892 -22.731  16.261  0.00  0.00    -0.271 OA
ATOM     31  H7  ASP d   1      20.808 -19.603  16.596  0.00  0.00     0.163 HD
BRANCH  29  32
ATOM     32  CA  ASP d   1      20.810 -21.015  14.548  0.00  0.00     0.185 C 
ATOM     33  H4  ASP d   1      20.956 -19.925  14.563  0.00  0.00     0.100 H 
BRANCH  32  34
ATOM     34  N   ASP d   1      21.945 -21.619  13.797  0.00  0.00    -0.066 N 
ATOM     35  H1  ASP d   1      21.934 -21.285  12.846  0.00  0.00     0.275 HD
ATOM     36  H2  ASP d   1      21.855 -22.623  13.801  0.00  0.00     0.275 HD
ATOM     37  H3  ASP d   1      22.814 -21.358  14.235  0.00  0.00     0.275 HD
ENDBRANCH  32  34
BRANCH  32  38
ATOM     38  CB  ASP d   1      19.437 -21.298  13.876  0.00  0.00     0.050 C 
ATOM     39  H5  ASP d   1      19.084 -22.286  14.205  0.00  0.00     0.052 H 
ATOM     40  H6  ASP d   1      19.577 -21.303  12.785  0.00  0.00     0.052 H 
BRANCH  38  41
ATOM     41  CG  ASP d   1      18.331 -20.225  14.235  0.00  0.00     0.175 C 
ATOM     42  OD1 ASP d   1      18.106 -19.885  15.454  0.00  0.00    -0.648 OA
ATOM     43  OD2 ASP d   1      17.674 -19.748  13.262  0.00  0.00    -0.648 OA
ENDBRANCH  38  41
ENDBRANCH  32  38
ENDBRANCH  29  32
ENDBRANCH  26  28
BRANCH  26  44
ATOM     44  CB  ASP d   1      21.940 -21.476  18.869  0.00  0.00     0.043 C 
ATOM     45  H9  ASP d   1      22.710 -20.702  19.001  0.00  0.00     0.052 H 
ATOM     46  H10 ASP d   1      22.284 -22.213  18.128  0.00  0.00     0.052 H 
BRANCH  44  47
ATOM     47  CG  ASP d   1      21.728 -22.195  20.217  0.00  0.00     0.175 C 
ATOM     48  OD1 ASP d   1      22.515 -21.906  21.172  0.00  0.00    -0.648 OA
ATOM     49  OD2 ASP d   1      20.771 -23.026  20.303  0.00  0.00    -0.648 OA
ENDBRANCH  44  47
ENDBRANCH  26  44
ENDBRANCH  23  26
ENDBRANCH  20  22
BRANCH  20  50
ATOM     50  CB  ASP d   1      20.512 -17.628  22.013  0.00  0.00     0.043 C 
ATOM     51  H13 ASP d   1      20.880 -16.706  22.486  0.00  0.00     0.052 H 
ATOM     52  H14 ASP d   1      20.761 -18.491  22.649  0.00  0.00     0.052 H 
BRANCH  50  53
ATOM     53  CG  ASP d   1      18.986 -17.537  21.891  0.00  0.00     0.175 C 
ATOM     54  OD1 ASP d   1      18.402 -18.056  20.913  0.00  0.00    -0.648 OA
ATOM     55  OD2 ASP d   1      18.380 -16.969  22.810  0.00  0.00    -0.648 OA
ENDBRANCH  50  53
ENDBRANCH  20  50
ENDBRANCH  17  20
ENDBRANCH  14  16
BRANCH  14  56
ATOM     56  CB  MET d   1      25.488 -20.115  20.780  0.00  0.00    -0.030 C 
ATOM     57  H17 MET d   1      26.544 -20.131  20.471  0.00  0.00     0.037 H 
ATOM     58  H18 MET d   1      24.903 -20.772  20.120  0.00  0.00     0.037 H 
BRANCH  56  59
ATOM     59  CG  MET d   1      25.402 -20.706  22.264  0.00  0.00    -0.021 C 
ATOM     60  H19 MET d   1      25.880 -21.697  22.241  0.00  0.00     0.049 H 
ATOM     61  H20 MET d   1      24.334 -20.819  22.500  0.00  0.00     0.049 H 
BRANCH  59  62
ATOM     62  SD  MET d   1      26.174 -19.766  23.684  0.00  0.00    -0.173 SA
BRANCH  62  63
ATOM     63  CE  MET d   1      24.933 -18.521  24.098  0.00  0.00    -0.035 C 
ATOM     64  H21 MET d   1      25.296 -17.906  24.935  0.00  0.00     0.041 H 
ATOM     65  H22 MET d   1      23.996 -19.019  24.388  0.00  0.00     0.041 H 
ATOM     66  H23 MET d   1      24.751 -17.879  23.223  0.00  0.00     0.041 H 
ENDBRANCH  62  63
ENDBRANCH  59  62
ENDBRANCH  56  59
ENDBRANCH  14  56
ENDBRANCH  11  14
ENDBRANCH   7  10
ENDBRANCH   4   7
ENDBRANCH   1   3
BRANCH   1  67
ATOM     67  C   PHE d   1      28.554 -18.906  14.909  0.00  0.00     0.241 C 
ATOM     68  O   PHE d   1      27.764 -19.257  14.076  0.00  0.00    -0.271 OA
ATOM     69  N   GLY d   1      29.679 -18.280  14.601  0.00  0.00    -0.351 N 
ATOM     70  H36 GLY d   1      30.303 -18.020  15.338  0.00  0.00     0.163 HD
BRANCH  69  71
ATOM     71  CA  GLY d   1      30.047 -17.951  13.209  0.00  0.00     0.069 C 
ATOM     72  H37 GLY d   1      29.796 -18.820  12.583  0.00  0.00     0.078 H 
ATOM     73  H38 GLY d   1      31.133 -17.780  13.182  0.00  0.00     0.078 H 
BRANCH  71  74
ATOM     74  C   GLY d   1      29.376 -16.738  12.602  0.00  0.00     0.236 C 
ATOM     75  O   GLY d   1      29.350 -16.601  11.398  0.00  0.00    -0.272 OA
ATOM     76  N   LEU d   1      28.760 -15.884  13.403  0.00  0.00    -0.346 N 
ATOM     77  H39 LEU d   1      28.776 -16.031  14.392  0.00  0.00     0.163 HD
BRANCH  76  78
ATOM     78  CA  LEU d   1      28.048 -14.715  12.846  0.00  0.00     0.089 C 
ATOM     79  H40 LEU d   1      28.076 -14.814  11.751  0.00  0.00     0.087 H 
BRANCH  78  80
ATOM     80  C   LEU d   1      28.684 -13.409  13.207  0.00  0.00     0.241 C 
ATOM     81  O   LEU d   1      28.035 -12.346  13.000  0.00  0.00    -0.271 OA
ATOM     82  N   PHE d   1      29.901 -13.492  13.763  0.00  0.00    -0.346 N 
ATOM     83  H50 PHE d   1      30.325 -14.395  13.839  0.00  0.00     0.163 HD
BRANCH  82  84
ATOM     84  CA  PHE d   1      30.646 -12.331  14.267  0.00  0.00     0.093 C 
ATOM     85  H51 PHE d   1      30.133 -11.428  13.905  0.00  0.00     0.088 H 
BRANCH  84  86
ATOM     86  C   PHE d   1      32.025 -12.310  13.647  0.00  0.00     0.241 C 
ATOM     87  O   PHE d   1      32.179 -11.801  12.526  0.00  0.00    -0.271 OA
ATOM     88  N   ASP d   1      33.030 -12.867  14.327  0.00  0.00    -0.344 N 
ATOM     89  H59 ASP d   1      32.856 -13.314  15.204  0.00  0.00     0.163 HD
BRANCH  88  90
ATOM     90  CA  ASP d   1      34.389 -12.820  13.782  0.00  0.00     0.105 C 
ATOM     91  H60 ASP d   1      34.379 -11.943  13.119  0.00  0.00     0.090 H 
BRANCH  90  92
ATOM     92  C   ASP d   1      34.700 -13.981  12.844  0.00  0.00     0.197 C 
ATOM     93  O   ASP d   1      33.866 -14.772  12.486  0.00  0.00    -0.646 OA
ATOM     94  OXT ASP d   1      35.761 -14.026  12.242  0.00  0.00    -0.646 OA
ENDBRANCH  90  92
BRANCH  90  95
ATOM     95  CB  ASP d   1      35.477 -12.483  14.803  0.00  0.00     0.044 C 
ATOM     96  H61 ASP d   1      35.202 -11.542  15.303  0.00  0.00     0.053 H 
ATOM     97  H62 ASP d   1      36.426 -12.348  14.264  0.00  0.00     0.053 H 
BRANCH  95  98
ATOM     98  CG  ASP d   1      35.681 -13.546  15.868  0.00  0.00     0.175 C 
ATOM     99  OD1 ASP d   1      36.693 -13.435  16.607  0.00  0.00    -0.648 OA
ATOM    100  OD2 ASP d   1      34.871 -14.470  15.980  0.00  0.00    -0.648 OA
ENDBRANCH  95  98
ENDBRANCH  90  95
ENDBRANCH  88  90
ENDBRANCH  84  86
BRANCH  84 101
ATOM    101  CB  PHE d   1      30.579 -12.270  15.799  0.00  0.00    -0.014 C 
ATOM    102  H52 PHE d   1      31.185 -11.421  16.148  0.00  0.00     0.043 H 
ATOM    103  H53 PHE d   1      30.986 -13.205  16.211  0.00  0.00     0.043 H 
BRANCH 101 104
ATOM    104  CG  PHE d   1      29.137 -12.092  16.301  0.00  0.00    -0.056 A 
ATOM    105  CD1 PHE d   1      28.335 -13.219  16.604  0.00  0.00    -0.077 A 
ATOM    106  CE1 PHE d   1      26.982 -13.058  16.974  0.00  0.00    -0.082 A 
ATOM    107  H54 PHE d   1      28.763 -14.213  16.552  0.00  0.00     0.084 H 
ATOM    108  CZ  PHE d   1      26.433 -11.802  17.038  0.00  0.00    -0.083 A 
ATOM    109  H56 PHE d   1      26.377 -13.927  17.207  0.00  0.00     0.083 H 
ATOM    110  CE2 PHE d   1      27.231 -10.674  16.747  0.00  0.00    -0.082 A 
ATOM    111  H58 PHE d   1      25.391 -11.676  17.311  0.00  0.00     0.083 H 
ATOM    112  CD2 PHE d   1      28.546 -10.830  16.346  0.00  0.00    -0.077 A 
ATOM    113  H57 PHE d   1      26.811  -9.679  16.838  0.00  0.00     0.083 H 
ATOM    114  H55 PHE d   1      29.125  -9.959  16.063  0.00  0.00     0.084 H 
ENDBRANCH 101 104
ENDBRANCH  84 101
ENDBRANCH  82  84
ENDBRANCH  78  80
BRANCH  78 115
ATOM    115  CB  LEU d   1      26.581 -14.654  13.279  0.00  0.00    -0.035 C 
ATOM    116  H41 LEU d   1      26.082 -13.848  12.721  0.00  0.00     0.037 H 
ATOM    117  H42 LEU d   1      26.541 -14.434  14.356  0.00  0.00     0.037 H 
BRANCH 115 118
ATOM    118  CG  LEU d   1      25.844 -15.947  13.022  0.00  0.00    -0.059 C 
ATOM    119  H43 LEU d   1      26.449 -16.763  13.444  0.00  0.00     0.038 H 
BRANCH 118 120
ATOM    120  CD1 LEU d   1      24.548 -15.895  13.790  0.00  0.00    -0.073 C 
ATOM    121  H44 LEU d   1      23.985 -16.826  13.623  0.00  0.00     0.028 H 
ATOM    122  H45 LEU d   1      23.951 -15.039  13.444  0.00  0.00     0.028 H 
ATOM    123  H46 LEU d   1      24.762 -15.783  14.863  0.00  0.00     0.028 H 
ENDBRANCH 118 120
BRANCH 118 124
ATOM    124  CD2 LEU d   1      25.656 -16.272  11.521  0.00  0.00    -0.073 C 
ATOM    125  H47 LEU d   1      26.637 -16.294  11.025  0.00  0.00     0.028 H 
ATOM    126  H48 LEU d   1      25.026 -15.500  11.055  0.00  0.00     0.028 H 
ATOM    127  H49 LEU d   1      25.171 -17.253  11.416  0.00  0.00     0.028 H 
ENDBRANCH 118 124
ENDBRANCH 115 118
ENDBRANCH  78 115
ENDBRANCH  76  78
ENDBRANCH  71  74
ENDBRANCH  69  71
ENDBRANCH   1  67
BRANCH   1 128
ATOM    128  CB  PHE d   1      28.469 -20.643  16.753  0.00  0.00    -0.014 C 
ATOM    129  H29 PHE d   1      29.311 -21.041  16.168  0.00  0.00     0.043 H 
ATOM    130  H30 PHE d   1      27.545 -21.167  16.468  0.00  0.00     0.043 H 
BRANCH 128 131
ATOM    131  CG  PHE d   1      28.748 -20.940  18.272  0.00  0.00    -0.056 A 
ATOM    132  CD1 PHE d   1      27.920 -21.871  18.997  0.00  0.00    -0.077 A 
ATOM    133  CE1 PHE d   1      28.156 -22.188  20.400  0.00  0.00    -0.082 A 
ATOM    134  H31 PHE d   1      27.095 -22.351  18.482  0.00  0.00     0.084 H 
ATOM    135  CZ  PHE d   1      29.232 -21.574  21.069  0.00  0.00    -0.083 A 
ATOM    136  H33 PHE d   1      27.512 -22.887  20.921  0.00  0.00     0.083 H 
ATOM    137  CE2 PHE d   1      30.066 -20.647  20.349  0.00  0.00    -0.082 A 
ATOM    138  H35 PHE d   1      29.430 -21.796  22.111  0.00  0.00     0.083 H 
ATOM    139  CD2 PHE d   1      29.808 -20.347  18.959  0.00  0.00    -0.077 A 
ATOM    140  H34 PHE d   1      30.897 -20.169  20.855  0.00  0.00     0.083 H 
ATOM    141  H32 PHE d   1      30.451 -19.646  18.439  0.00  0.00     0.084 H 
ENDBRANCH 128 131
ENDBRANCH   1 128
TORSDOF 40
