REMARK  7 active torsions:
REMARK  status: ('A' for Active; 'I' for Inactive)
REMARK    1  A    between atoms: C1_1  and  O1_8 
REMARK    2  A    between atoms: C2_2  and  O2_9 
REMARK    3  A    between atoms: C3_3  and  O3_10 
REMARK    4  A    between atoms: C4_4  and  O4_11 
REMARK    5  A    between atoms: C5_5  and  C6_6 
REMARK    6  A    between atoms: C6_6  and  O6_13 
REMARK    7  A    between atoms: O1_8  and  C7_7 
ROOT
ATOM      1  C1  NON d   1      38.739   2.448  -4.380  0.00  0.00     0.158 C 
ATOM      2  C2  NON d   1      37.366   2.159  -3.765  0.00  0.00     0.110 C 
ATOM      3  C3  NON d   1      36.596   3.454  -3.552  0.00  0.00     0.092 C 
ATOM      4  C4  NON d   1      37.402   4.497  -2.829  0.00  0.00     0.090 C 
ATOM      5  C5  NON d   1      38.666   4.736  -3.660  0.00  0.00     0.089 C 
ATOM      6  O5  NON d   1      39.402   3.504  -3.722  0.00  0.00    -0.349 OA
ATOM      7  H1  NON d   1      39.373   1.550  -4.330  0.00  0.00     0.133 H 
ATOM      8  H2  NON d   1      36.802   1.476  -4.417  0.00  0.00     0.094 H 
ATOM      9  H3  NON d   1      36.316   3.854  -4.538  0.00  0.00     0.091 H 
ATOM     10  H4  NON d   1      37.680   4.142  -1.826  0.00  0.00     0.091 H 
ATOM     11  H5  NON d   1      38.368   5.045  -4.673  0.00  0.00     0.090 H 
ENDROOT
BRANCH   1  12
ATOM     12  O1  NON d   1      38.449   2.768  -5.733  0.00  0.00    -0.363 OA
BRANCH  12  13
ATOM     13  C7  NON d   1      39.669   2.830  -6.513  0.00  0.00     0.007 C 
ATOM     14  H8  NON d   1      39.425   3.079  -7.556  0.00  0.00     0.066 H 
ATOM     15  H9  NON d   1      40.177   1.855  -6.478  0.00  0.00     0.066 H 
ATOM     16  H10 NON d   1      40.331   3.604  -6.097  0.00  0.00     0.066 H 
ENDBRANCH  12  13
ENDBRANCH   1  12
BRANCH   2  17
ATOM     17  O2  NON d   1      37.534   1.591  -2.458  0.00  0.00    -0.388 OA
ATOM     18  H11 NON d   1      38.012   0.773  -2.528  0.00  0.00     0.210 HD
ENDBRANCH   2  17
BRANCH   3  19
ATOM     19  O3  NON d   1      35.393   3.186  -2.792  0.00  0.00    -0.390 OA
ATOM     20  H12 NON d   1      34.876   2.527  -3.241  0.00  0.00     0.210 HD
ENDBRANCH   3  19
BRANCH   5  21
ATOM     21  C6  NON d   1      39.588   5.789  -3.081  0.00  0.00     0.043 C 
ATOM     22  H6  NON d   1      39.021   6.722  -2.947  0.00  0.00     0.078 H 
ATOM     23  H7  NON d   1      40.416   5.961  -3.784  0.00  0.00     0.078 H 
BRANCH  21  24
ATOM     24  O6  NON d   1      40.134   5.390  -1.809  0.00  0.00    -0.398 OA
ATOM     25  H14 NON d   1      39.425   5.245  -1.193  0.00  0.00     0.209 HD
ENDBRANCH  21  24
ENDBRANCH   5  21
BRANCH   4  26
ATOM     26  O4  NON d   1      36.590   5.692  -2.709  0.00  0.00    -0.390 OA
ATOM     27  H13 NON d   1      37.096   6.376  -2.287  0.00  0.00     0.210 HD
ENDBRANCH   4  26
TORSDOF 7
