REMARK  10 active torsions:
REMARK  status: ('A' for Active; 'I' for Inactive)
REMARK    1  A    between atoms: C5_5  and  C6_6 
REMARK    2  A    between atoms: C6_6  and  O7_7 
REMARK    3  A    between atoms: O7_7  and  C8_8 
REMARK    4  A    between atoms: C8_8  and  C9_9 
REMARK    5  A    between atoms: C9_9  and  N10_10 
REMARK    6  A    between atoms: N10_10  and  C13_11 
REMARK    7  A    between atoms: C13_11  and  C14_12 
REMARK    8  A    between atoms: C14_12  and  N15_13 
REMARK    9  A    between atoms: N15_13  and  S16_14 
REMARK   10  A    between atoms: S16_14  and  C19_17 
ROOT
ATOM      1  C13 I5S d   1      43.589  29.997 113.495  0.00  0.00     0.097 C 
ATOM      2  H11 I5S d   1      43.923  29.642 112.509  0.00  0.00     0.078 H 
ATOM      3  H12 I5S d   1      44.214  29.544 114.279  0.00  0.00     0.078 H 
ENDROOT
BRANCH   1   4
ATOM      4  N10 I5S d   1      42.193  29.618 113.703  0.00  0.00    -0.072 N 
ATOM      5  H9  I5S d   1      41.885  29.993 114.587  0.00  0.00     0.277 HD
ATOM      6  H10 I5S d   1      41.638  30.011 112.959  0.00  0.00     0.277 HD
BRANCH   4   7
ATOM      7  C9  I5S d   1      41.999  28.164 113.716  0.00  0.00     0.101 C 
ATOM      8  H7  I5S d   1      42.861  27.686 114.205  0.00  0.00     0.079 H 
ATOM      9  H8  I5S d   1      41.082  27.924 114.274  0.00  0.00     0.079 H 
BRANCH   7  10
ATOM     10  C8  I5S d   1      41.874  27.643 112.300  0.00  0.00     0.042 C 
ATOM     11  H5  I5S d   1      41.182  26.788 112.277  0.00  0.00     0.076 H 
ATOM     12  H6  I5S d   1      41.495  28.439 111.642  0.00  0.00     0.076 H 
BRANCH  10  13
ATOM     13  O7  I5S d   1      43.177  27.227 111.859  0.00  0.00    -0.385 OA
BRANCH  13  14
ATOM     14  C6  I5S d   1      43.146  26.518 110.611  0.00  0.00     0.043 C 
ATOM     15  H3  I5S d   1      44.141  26.098 110.402  0.00  0.00     0.081 H 
ATOM     16  H4  I5S d   1      42.409  25.703 110.669  0.00  0.00     0.081 H 
BRANCH  14  17
ATOM     17  C5  I5S d   1      42.759  27.469 109.509  0.00  0.00    -0.035 A 
ATOM     18  C4  I5S d   1      41.580  27.279 108.798  0.00  0.00    -0.073 A 
ATOM     19  C3  I5S d   1      41.228  28.147 107.788  0.00  0.00    -0.061 A 
ATOM     20  H2  I5S d   1      40.934  26.443 109.040  0.00  0.00     0.084 H 
ATOM     21  C2  I5S d   1      42.040  29.226 107.484  0.00  0.00     0.034 A 
ATOM     22  H1  I5S d   1      40.313  27.985 107.230  0.00  0.00     0.086 H 
ATOM     23 CL1  I5S d   1      41.595  30.314 106.212  0.00  0.00    -0.084 Cl
ATOM     24  C30 I5S d   1      43.216  29.426 108.191  0.00  0.00    -0.061 A 
ATOM     25  C29 I5S d   1      43.570  28.556 109.201  0.00  0.00    -0.073 A 
ATOM     26  H23 I5S d   1      43.857  30.266 107.950  0.00  0.00     0.086 H 
ATOM     27  H22 I5S d   1      44.485  28.720 109.758  0.00  0.00     0.084 H 
ENDBRANCH  14  17
ENDBRANCH  13  14
ENDBRANCH  10  13
ENDBRANCH   7  10
ENDBRANCH   4   7
ENDBRANCH   1   4
BRANCH   1  28
ATOM     28  C14 I5S d   1      43.713  31.508 113.559  0.00  0.00     0.025 C 
ATOM     29  H13 I5S d   1      43.914  31.806 114.599  0.00  0.00     0.067 H 
ATOM     30  H14 I5S d   1      42.767  31.959 113.224  0.00  0.00     0.067 H 
BRANCH  28  31
ATOM     31  N15 I5S d   1      44.796  31.993 112.709  0.00  0.00    -0.314 N 
ATOM     32  H15 I5S d   1      45.737  31.960 113.047  0.00  0.00     0.172 HD
BRANCH  31  33
ATOM     33  S16 I5S d   1      44.499  32.591 111.209  0.00  0.00     0.259 S 
ATOM     34  O17 I5S d   1      45.766  32.655 110.542  0.00  0.00    -0.201 OA
ATOM     35  O18 I5S d   1      43.452  31.800 110.629  0.00  0.00    -0.201 OA
BRANCH  33  36
ATOM     36  C19 I5S d   1      43.886  34.228 111.443  0.00  0.00     0.090 A 
ATOM     37  C20 I5S d   1      42.515  34.441 111.369  0.00  0.00    -0.059 A 
ATOM     38  C21 I5S d   1      41.984  35.698 111.561  0.00  0.00    -0.081 A 
ATOM     39  H16 I5S d   1      41.855  33.608 111.157  0.00  0.00     0.085 H 
ATOM     40  C22 I5S d   1      42.806  36.770 111.834  0.00  0.00    -0.071 A 
ATOM     41  H17 I5S d   1      40.912  35.845 111.497  0.00  0.00     0.083 H 
ATOM     42  C23 I5S d   1      44.177  36.600 111.933  0.00  0.00    -0.007 A 
ATOM     43  H18 I5S d   1      42.376  37.755 111.972  0.00  0.00     0.084 H 
ATOM     44  C24 I5S d   1      45.027  37.662 112.218  0.00  0.00     0.013 A 
ATOM     45  C28 I5S d   1      44.736  35.326 111.737  0.00  0.00     0.000 A 
ATOM     46  N25 I5S d   1      46.354  37.547 112.319  0.00  0.00    -0.272 NA
ATOM     47  H19 I5S d   1      44.587  38.642 112.367  0.00  0.00     0.116 H 
ATOM     48  C26 I5S d   1      46.874  36.332 112.123  0.00  0.00     0.003 A 
ATOM     49  C27 I5S d   1      46.116  35.217 111.842  0.00  0.00    -0.054 A 
ATOM     50  H20 I5S d   1      47.950  36.218 112.189  0.00  0.00     0.114 H 
ATOM     51  H21 I5S d   1      46.596  34.255 111.703  0.00  0.00     0.087 H 
ENDBRANCH  33  36
ENDBRANCH  31  33
ENDBRANCH  28  31
ENDBRANCH   1  28
TORSDOF 10
