REMARK  8 active torsions:
REMARK  status: ('A' for Active; 'I' for Inactive)
REMARK    1  A    between atoms: C1_1  and  C2_2 
REMARK    2  A    between atoms: C9_8  and  C12_11 
REMARK    3  A    between atoms: C16_15  and  O17_16 
REMARK    4  A    between atoms: O17_16  and  C18_17 
REMARK    5  A    between atoms: C18_17  and  C19_18 
REMARK    6  A    between atoms: C19_18  and  N21_19 
REMARK    7  A    between atoms: C19_18  and  C25_20 
REMARK    8  A    between atoms: C25_20  and  C26_21 
ROOT
ATOM      1  O17 L20 d   1      11.158   8.846   1.687  0.00  0.00    -0.348 OA
ENDROOT
BRANCH   1   2
ATOM      2  C16 L20 d   1      10.112   9.419   0.986  0.00  0.00     0.087 A 
ATOM      3  C15 L20 d   1      10.362  10.175  -0.168  0.00  0.00     0.034 A 
ATOM      4  N14 L20 d   1       9.389  10.754  -0.851  0.00  0.00    -0.269 NA
ATOM      5  H9  L20 d   1      11.384  10.288  -0.511  0.00  0.00     0.119 H 
ATOM      6  C13 L20 d   1       8.118  10.609  -0.438  0.00  0.00     0.013 A 
ATOM      7  C12 L20 d   1       7.761   9.890   0.736  0.00  0.00    -0.006 A 
ATOM      8  H8  L20 d   1       7.328  11.061  -1.027  0.00  0.00     0.116 H 
ATOM      9  C36 L20 d   1       8.798   9.287   1.452  0.00  0.00    -0.037 A 
ATOM     10  H24 L20 d   1       8.589   8.725   2.355  0.00  0.00     0.089 H 
BRANCH   7  11
ATOM     11  C9  L20 d   1       6.362   9.783   1.168  0.00  0.00    -0.023 A 
ATOM     12  C8  L20 d   1       5.330   9.718   0.200  0.00  0.00    -0.070 A 
ATOM     13  C7  L20 d   1       3.982   9.639   0.515  0.00  0.00    -0.052 A 
ATOM     14  H6  L20 d   1       5.610   9.731  -0.847  0.00  0.00     0.084 H 
ATOM     15  C6  L20 d   1       3.674   9.610   1.901  0.00  0.00     0.089 A 
ATOM     16  H5  L20 d   1       3.213   9.602  -0.248  0.00  0.00     0.087 H 
ATOM     17  N4  L20 d   1       2.494   9.532   2.590  0.00  0.00    -0.174 NA
ATOM     18  C11 L20 d   1       4.693   9.682   2.908  0.00  0.00     0.019 A 
ATOM     19  N3  L20 d   1       2.660   9.543   3.927  0.00  0.00    -0.281 N 
ATOM     20  C2  L20 d   1       3.982   9.617   4.162  0.00  0.00     0.036 A 
ATOM     21  H4  L20 d   1       1.914   9.502   4.636  0.00  0.00     0.189 HD
ATOM     22  C10 L20 d   1       6.038   9.761   2.541  0.00  0.00    -0.058 A 
ATOM     23  H7  L20 d   1       6.816   9.805   3.295  0.00  0.00     0.086 H 
BRANCH  20  24
ATOM     24  C1  L20 d   1       4.630   9.646   5.483  0.00  0.00    -0.035 C 
ATOM     25  H1  L20 d   1       5.721   9.709   5.355  0.00  0.00     0.035 H 
ATOM     26  H2  L20 d   1       4.378   8.729   6.035  0.00  0.00     0.035 H 
ATOM     27  H3  L20 d   1       4.276  10.522   6.046  0.00  0.00     0.035 H 
ENDBRANCH  20  24
ENDBRANCH   7  11
ENDBRANCH   1   2
BRANCH   1  28
ATOM     28  C18 L20 d   1      11.035   7.598   2.361  0.00  0.00     0.053 C 
ATOM     29  H10 L20 d   1      10.766   6.791   1.663  0.00  0.00     0.078 H 
ATOM     30  H11 L20 d   1      10.288   7.651   3.167  0.00  0.00     0.078 H 
BRANCH  28  31
ATOM     31  C19 L20 d   1      12.458   7.399   2.927  0.00  0.00     0.124 C 
ATOM     32  H12 L20 d   1      12.470   6.471   3.518  0.00  0.00     0.087 H 
BRANCH  31  33
ATOM     33  N21 L20 d   1      13.366   7.254   1.753  0.00  0.00    -0.073 N 
ATOM     34  H13 L20 d   1      14.312   7.121   2.074  0.00  0.00     0.274 HD
ATOM     35  H14 L20 d   1      13.318   8.086   1.186  0.00  0.00     0.274 HD
ATOM     36  H15 L20 d   1      13.082   6.457   1.205  0.00  0.00     0.274 HD
ENDBRANCH  31  33
BRANCH  31  37
ATOM     37  C25 L20 d   1      12.971   8.560   3.847  0.00  0.00    -0.010 C 
ATOM     38  H16 L20 d   1      12.910   9.511   3.297  0.00  0.00     0.043 H 
ATOM     39  H17 L20 d   1      14.017   8.364   4.126  0.00  0.00     0.043 H 
BRANCH  37  40
ATOM     40  C26 L20 d   1      12.155   8.655   5.068  0.00  0.00    -0.028 A 
ATOM     41  C27 L20 d   1      12.413   7.987   6.265  0.00  0.00    -0.015 A 
ATOM     42  N28 L20 d   1      11.412   8.247   7.186  0.00  0.00    -0.365 N 
ATOM     43  H18 L20 d   1      13.278   7.352   6.449  0.00  0.00     0.112 H 
ATOM     44  C30 L20 d   1      10.470   9.092   6.609  0.00  0.00     0.042 A 
ATOM     45  H19 L20 d   1      11.372   7.874   8.145  0.00  0.00     0.165 HD
ATOM     46  C31 L20 d   1       9.297   9.628   7.146  0.00  0.00    -0.056 A 
ATOM     47  C35 L20 d   1      10.914   9.383   5.254  0.00  0.00    -0.002 A 
ATOM     48  C32 L20 d   1       8.545  10.453   6.338  0.00  0.00    -0.081 A 
ATOM     49  H20 L20 d   1       8.990   9.403   8.161  0.00  0.00     0.086 H 
ATOM     50  C33 L20 d   1       8.944  10.710   5.006  0.00  0.00    -0.082 A 
ATOM     51  H21 L20 d   1       7.641  10.908   6.726  0.00  0.00     0.083 H 
ATOM     52  C34 L20 d   1      10.113  10.206   4.459  0.00  0.00    -0.070 A 
ATOM     53  H22 L20 d   1       8.307  11.329   4.385  0.00  0.00     0.083 H 
ATOM     54  H23 L20 d   1      10.399  10.444   3.441  0.00  0.00     0.084 H 
ENDBRANCH  37  40
ENDBRANCH  31  37
ENDBRANCH  28  31
ENDBRANCH   1  28
TORSDOF 8
