REMARK  12 active torsions:
REMARK  status: ('A' for Active; 'I' for Inactive)
REMARK    1  A    between atoms: S11_2  and  N_4 
REMARK    2  A    between atoms: S11_2  and  C12_14 
REMARK    3  A    between atoms: N_4  and  CA_5 
REMARK    4  A    between atoms: CA_5  and  C_6 
REMARK    5  A    between atoms: CA_5  and  CB_9 
REMARK    6  A    between atoms: CB_9  and  CG_10 
REMARK    7  A    between atoms: CG_10  and  CD_11 
REMARK    8  A    between atoms: C20_19  and  O22_24 
REMARK    9  A    between atoms: O22_24  and  C23_25 
REMARK   10  A    between atoms: C23_25  and  C24_26 
REMARK   11  A    between atoms: C24_26  and  C25_27 
REMARK   12  A    between atoms: C25_27  and  C26_28 
ROOT
ATOM      1  C12 LK1 d   1      20.823  -3.190  20.182  0.00  0.00     0.080 A 
ATOM      2  C17 LK1 d   1      20.544  -3.064  21.523  0.00  0.00    -0.059 A 
ATOM      3  C16 LK1 d   1      19.663  -2.123  22.002  0.00  0.00    -0.071 A 
ATOM      4  C15 LK1 d   1      19.048  -1.271  21.109  0.00  0.00    -0.023 A 
ATOM      5  C21 LK1 d   1      18.158  -0.356  21.607  0.00  0.00    -0.040 A 
ATOM      6  C20 LK1 d   1      17.543   0.535  20.771  0.00  0.00     0.069 A 
ATOM      7  C19 LK1 d   1      17.778   0.482  19.400  0.00  0.00    -0.050 A 
ATOM      8  C18 LK1 d   1      18.665  -0.460  18.895  0.00  0.00    -0.070 A 
ATOM      9  C14 LK1 d   1      19.319  -1.350  19.751  0.00  0.00    -0.024 A 
ATOM     10  C13 LK1 d   1      20.219  -2.319  19.272  0.00  0.00    -0.050 A 
ATOM     11  H7  LK1 d   1      21.035  -3.728  22.225  0.00  0.00     0.085 H 
ATOM     12  H8  LK1 d   1      19.456  -2.052  23.064  0.00  0.00     0.084 H 
ATOM     13  H9  LK1 d   1      17.940  -0.338  22.669  0.00  0.00     0.089 H 
ATOM     14  H10 LK1 d   1      17.273   1.170  18.732  0.00  0.00     0.087 H 
ATOM     15  H11 LK1 d   1      18.851  -0.505  17.828  0.00  0.00     0.085 H 
ATOM     16  H12 LK1 d   1      20.441  -2.389  18.213  0.00  0.00     0.087 H 
ENDROOT
BRANCH   1  17
ATOM     17  S11 LK1 d   1      21.896  -4.289  19.814  0.00  0.00     0.259 S 
ATOM     18  O28 LK1 d   1      21.910  -4.590  18.429  0.00  0.00    -0.201 OA
ATOM     19  O27 LK1 d   1      21.684  -5.449  20.586  0.00  0.00    -0.201 OA
BRANCH  17  20
ATOM     20  N   LK1 d   1      23.268  -3.638  20.308  0.00  0.00    -0.300 N 
ATOM     21  H1  LK1 d   1      23.174  -2.986  21.060  0.00  0.00     0.173 HD
BRANCH  20  22
ATOM     22  CA  LK1 d   1      24.629  -3.838  19.844  0.00  0.00     0.104 C 
ATOM     23  H2  LK1 d   1      24.628  -3.783  18.745  0.00  0.00     0.090 H 
BRANCH  22  24
ATOM     24  C   LK1 d   1      25.305  -5.145  20.227  0.00  0.00     0.197 C 
ATOM     25  OXT LK1 d   1      25.627  -5.359  21.389  0.00  0.00    -0.646 OA
ATOM     26  O   LK1 d   1      25.398  -5.936  19.293  0.00  0.00    -0.646 OA
ENDBRANCH  22  24
BRANCH  22  27
ATOM     27  CB  LK1 d   1      25.411  -2.658  20.415  0.00  0.00    -0.027 C 
ATOM     28  H3  LK1 d   1      25.521  -2.790  21.502  0.00  0.00     0.037 H 
ATOM     29  H4  LK1 d   1      24.860  -1.728  20.212  0.00  0.00     0.037 H 
BRANCH  27  30
ATOM     30  CG  LK1 d   1      26.777  -2.571  19.786  0.00  0.00     0.018 C 
ATOM     31  H5  LK1 d   1      26.676  -2.561  18.691  0.00  0.00     0.049 H 
ATOM     32  H6  LK1 d   1      27.377  -3.441  20.091  0.00  0.00     0.049 H 
BRANCH  30  33
ATOM     33  CD  LK1 d   1      27.454  -1.315  20.236  0.00  0.00     0.172 C 
ATOM     34  OE2 LK1 d   1      27.950  -1.315  21.363  0.00  0.00    -0.648 OA
ATOM     35  OE1 LK1 d   1      27.487  -0.360  19.449  0.00  0.00    -0.648 OA
ENDBRANCH  30  33
ENDBRANCH  27  30
ENDBRANCH  22  27
ENDBRANCH  20  22
ENDBRANCH  17  20
ENDBRANCH   1  17
BRANCH   6  36
ATOM     36  O22 LK1 d   1      16.661   1.425  21.300  0.00  0.00    -0.351 OA
BRANCH  36  37
ATOM     37  C23 LK1 d   1      15.431   1.578  20.607  0.00  0.00     0.026 C 
ATOM     38  H13 LK1 d   1      15.556   1.213  19.577  0.00  0.00     0.075 H 
ATOM     39  H14 LK1 d   1      15.165   2.645  20.588  0.00  0.00     0.075 H 
BRANCH  37  40
ATOM     40  C24 LK1 d   1      14.309   0.808  21.263  0.00  0.00    -0.045 C 
ATOM     41  H15 LK1 d   1      14.253   1.072  22.329  0.00  0.00     0.036 H 
ATOM     42  H16 LK1 d   1      14.493  -0.272  21.162  0.00  0.00     0.036 H 
BRANCH  40  43
ATOM     43  C25 LK1 d   1      13.004   1.170  20.578  0.00  0.00    -0.067 C 
ATOM     44  H17 LK1 d   1      12.764   0.388  19.843  0.00  0.00     0.032 H 
ATOM     45  H18 LK1 d   1      13.134   2.132  20.060  0.00  0.00     0.032 H 
BRANCH  43  46
ATOM     46  C26 LK1 d   1      11.853   1.294  21.541  0.00  0.00    -0.076 C 
ATOM     47  H19 LK1 d   1      10.939   1.557  20.988  0.00  0.00     0.027 H 
ATOM     48  H20 LK1 d   1      12.074   2.080  22.278  0.00  0.00     0.027 H 
ATOM     49  H21 LK1 d   1      11.705   0.336  22.061  0.00  0.00     0.027 H 
ENDBRANCH  43  46
ENDBRANCH  40  43
ENDBRANCH  37  40
ENDBRANCH  36  37
ENDBRANCH   6  36
TORSDOF 12
