REMARK  5 active torsions:
REMARK  status: ('A' for Active; 'I' for Inactive)
REMARK    1  A    between atoms: N_1  and  CA_2 
REMARK    2  A    between atoms: CA_2  and  CB_3 
REMARK    3  A    between atoms: CA_2  and  C_5 
REMARK    4  A    between atoms: CB_3  and  OG_4 
REMARK    5  A    between atoms: OG_4  and  P_7 
ROOT
ATOM      1  CA  SEP d   1     -18.542   9.650   1.584  0.00  0.00     0.170 C 
ATOM      2  H4  SEP d   1     -18.416  10.742   1.614  0.00  0.00     0.098 H 
ENDROOT
BRANCH   1   3
ATOM      3  N   SEP d   1     -19.782   9.309   2.337  0.00  0.00    -0.067 N 
ATOM      4  H1  SEP d   1     -19.684   9.603   3.296  0.00  0.00     0.275 HD
ATOM      5  H2  SEP d   1     -19.932   8.313   2.304  0.00  0.00     0.275 HD
ATOM      6  H3  SEP d   1     -20.569   9.781   1.920  0.00  0.00     0.275 HD
ENDBRANCH   1   3
BRANCH   1   7
ATOM      7  CB  SEP d   1     -17.316   9.008   2.236  0.00  0.00     0.065 C 
ATOM      8  H5  SEP d   1     -17.214   9.390   3.262  0.00  0.00     0.079 H 
ATOM      9  H6  SEP d   1     -16.420   9.273   1.655  0.00  0.00     0.079 H 
BRANCH   7  10
ATOM     10  OG  SEP d   1     -17.439   7.598   2.278  0.00  0.00    -0.280 OA
BRANCH  10  11
ATOM     11  P   SEP d   1     -15.995   6.890   2.365  0.00  0.00     0.422 P 
ATOM     12  O1P SEP d   1     -15.096   7.545   3.524  0.00  0.00    -0.617 OA
ATOM     13  O2P SEP d   1     -15.252   7.071   0.951  0.00  0.00    -0.617 OA
ATOM     14  O3P SEP d   1     -16.190   5.316   2.619  0.00  0.00    -0.617 OA
ENDBRANCH  10  11
ENDBRANCH   7  10
ENDBRANCH   1   7
BRANCH   1  15
ATOM     15  C   SEP d   1     -18.643   9.224   0.124  0.00  0.00     0.119 C 
ATOM     16  O   SEP d   1     -18.321  10.000  -0.774  0.00  0.00    -0.305 OA
ATOM     17  H7  SEP d   1     -19.002   8.227  -0.125  0.00  0.00     0.146 H 
ENDBRANCH   1  15
TORSDOF 5
