REMARK  9 active torsions:
REMARK  status: ('A' for Active; 'I' for Inactive)
REMARK    1  A    between atoms: NBF_3  and  CAN_4 
REMARK    2  A    between atoms: CAN_4  and  CAA_5 
REMARK    3  A    between atoms: NBG_8  and  CAS_9 
REMARK    4  A    between atoms: CAS_9  and  CAX_10 
REMARK    5  A    between atoms: CAY_15  and  CBA_16 
REMARK    6  A    between atoms: C6_24  and  NAV_25 
REMARK    7  A    between atoms: NAV_25  and  CBE_26 
REMARK    8  A    between atoms: CBE_26  and  CAB_27 
REMARK    9  A    between atoms: CBE_26  and  CAZ_28 
ROOT
ATOM      1  CAX AEE d   1     -10.515  13.168  33.742  0.00  0.00    -0.033 A 
ATOM      2  CAI AEE d   1      -9.129  13.170  33.642  0.00  0.00    -0.074 A 
ATOM      3  CAK AEE d   1      -8.473  14.265  33.090  0.00  0.00    -0.070 A 
ATOM      4  CAJ AEE d   1     -11.246  14.261  33.291  0.00  0.00    -0.074 A 
ATOM      5  CAL AEE d   1     -10.591  15.356  32.740  0.00  0.00    -0.070 A 
ATOM      6  CAY AEE d   1      -9.204  15.358  32.639  0.00  0.00    -0.009 A 
ATOM      7  H18 AEE d   1      -8.559  12.318  33.994  0.00  0.00     0.084 H 
ATOM      8  H19 AEE d   1      -7.392  14.266  33.011  0.00  0.00     0.084 H 
ATOM      9  H20 AEE d   1     -12.327  14.259  33.369  0.00  0.00     0.084 H 
ATOM     10  H21 AEE d   1     -11.161  16.209  32.389  0.00  0.00     0.084 H 
ENDROOT
BRANCH   6  11
ATOM     11  CBA AEE d   1      -8.549  16.452  32.087  0.00  0.00     0.045 A 
ATOM     12  NAW AEE d   1      -7.235  16.677  32.144  0.00  0.00    -0.339 N 
ATOM     13  C4  AEE d   1      -6.981  17.816  31.509  0.00  0.00     0.143 A 
ATOM     14  H22 AEE d   1      -6.538  16.072  32.601  0.00  0.00     0.167 HD
ATOM     15  C5  AEE d   1      -8.188  18.304  31.046  0.00  0.00     0.058 A 
ATOM     16  N3  AEE d   1      -5.857  18.503  31.266  0.00  0.00    -0.223 NA
ATOM     17  CAM AEE d   1      -9.133  17.446  31.416  0.00  0.00    -0.039 A 
ATOM     18  C6  AEE d   1      -8.198  19.497  30.341  0.00  0.00     0.139 A 
ATOM     19  H23 AEE d   1     -10.198  17.538  31.208  0.00  0.00     0.088 H 
ATOM     20  N1  AEE d   1      -7.039  20.136  30.132  0.00  0.00    -0.224 NA
ATOM     21  C2  AEE d   1      -5.899  19.640  30.589  0.00  0.00     0.091 A 
ATOM     22  H24 AEE d   1      -4.977  20.179  30.404  0.00  0.00     0.146 H 
BRANCH  18  23
ATOM     23  NAV AEE d   1      -9.340  19.999  29.880  0.00  0.00    -0.366 N 
ATOM     24  H25 AEE d   1     -10.146  19.379  29.715  0.00  0.00     0.161 HD
BRANCH  23  25
ATOM     25  CBE AEE d   1      -9.452  21.439  29.606  0.00  0.00     0.033 C 
ATOM     26  H26 AEE d   1      -8.994  22.005  30.430  0.00  0.00     0.079 H 
BRANCH  25  27
ATOM     27  CAB AEE d   1     -10.928  21.822  29.484  0.00  0.00    -0.053 C 
ATOM     28  H27 AEE d   1     -11.011  22.899  29.279  0.00  0.00     0.030 H 
ATOM     29  H28 AEE d   1     -11.447  21.587  30.425  0.00  0.00     0.030 H 
ATOM     30  H29 AEE d   1     -11.387  21.256  28.660  0.00  0.00     0.030 H 
ENDBRANCH  25  27
BRANCH  25  31
ATOM     31  CAZ AEE d   1      -8.729  21.769  28.299  0.00  0.00    -0.036 A 
ATOM     32  CAG AEE d   1      -8.182  23.032  28.107  0.00  0.00    -0.075 A 
ATOM     33  CAD AEE d   1      -7.525  23.332  26.919  0.00  0.00    -0.082 A 
ATOM     34  H30 AEE d   1      -8.268  23.783  28.884  0.00  0.00     0.084 H 
ATOM     35  CAC AEE d   1      -7.414  22.368  25.924  0.00  0.00    -0.083 A 
ATOM     36  H31 AEE d   1      -7.099  24.318  26.769  0.00  0.00     0.083 H 
ATOM     37  CAE AEE d   1      -7.961  21.105  26.116  0.00  0.00    -0.082 A 
ATOM     38  H32 AEE d   1      -6.901  22.601  24.998  0.00  0.00     0.083 H 
ATOM     39  CAH AEE d   1      -8.618  20.805  27.304  0.00  0.00    -0.075 A 
ATOM     40  H33 AEE d   1      -7.875  20.354  25.339  0.00  0.00     0.083 H 
ATOM     41  H34 AEE d   1      -9.044  19.819  27.454  0.00  0.00     0.084 H 
ENDBRANCH  25  31
ENDBRANCH  23  25
ENDBRANCH  18  23
ENDBRANCH   6  11
BRANCH   1  42
ATOM     42  CAS AEE d   1     -11.236  11.963  34.350  0.00  0.00     0.107 C 
ATOM     43  H16 AEE d   1     -12.312  12.031  34.131  0.00  0.00     0.083 H 
ATOM     44  H17 AEE d   1     -10.831  11.037  33.917  0.00  0.00     0.083 H 
BRANCH  42  45
ATOM     45  NBG AEE d   1     -11.032  11.953  35.806  0.00  0.00    -0.064 N 
ATOM     46  CAQ AEE d   1     -10.690  10.592  36.244  0.00  0.00     0.106 C 
ATOM     47  CAO AEE d   1     -11.834   9.639  35.893  0.00  0.00     0.106 C 
ATOM     48  H1  AEE d   1      -9.771  10.264  35.736  0.00  0.00     0.078 H 
ATOM     49  H2  AEE d   1     -10.530  10.587  37.332  0.00  0.00     0.078 H 
ATOM     50  NBF AEE d   1     -13.064  10.079  36.569  0.00  0.00    -0.068 N 
ATOM     51  H3  AEE d   1     -11.578   8.621  36.223  0.00  0.00     0.078 H 
ATOM     52  H4  AEE d   1     -11.993   9.642  34.804  0.00  0.00     0.078 H 
ATOM     53  CAP AEE d   1     -13.406  11.438  36.126  0.00  0.00     0.106 C 
ATOM     54  H5  AEE d   1     -13.818   9.451  36.338  0.00  0.00     0.280 HD
ATOM     55  CAR AEE d   1     -12.263  12.392  36.478  0.00  0.00     0.106 C 
ATOM     56  H11 AEE d   1     -14.327  11.767  36.630  0.00  0.00     0.078 H 
ATOM     57  H12 AEE d   1     -13.563  11.440  35.037  0.00  0.00     0.078 H 
ATOM     58  H13 AEE d   1     -12.107  12.390  37.567  0.00  0.00     0.078 H 
ATOM     59  H14 AEE d   1     -12.519  13.409  36.146  0.00  0.00     0.078 H 
ATOM     60  H15 AEE d   1     -10.279  12.580  36.043  0.00  0.00     0.280 HD
BRANCH  50  61
ATOM     61  CAN AEE d   1     -12.852  10.076  38.023  0.00  0.00     0.080 C 
ATOM     62  H6  AEE d   1     -13.265  10.999  38.455  0.00  0.00     0.075 H 
ATOM     63  H7  AEE d   1     -11.774  10.022  38.236  0.00  0.00     0.075 H 
BRANCH  61  64
ATOM     64  CAA AEE d   1     -13.555   8.865  38.640  0.00  0.00    -0.053 C 
ATOM     65  H8  AEE d   1     -13.396   8.864  39.728  0.00  0.00     0.029 H 
ATOM     66  H9  AEE d   1     -13.142   7.942  38.208  0.00  0.00     0.029 H 
ATOM     67  H10 AEE d   1     -14.633   8.919  38.427  0.00  0.00     0.029 H 
ENDBRANCH  61  64
ENDBRANCH  50  61
ENDBRANCH  42  45
ENDBRANCH   1  42
TORSDOF 9
