REMARK  6 active torsions:
REMARK  status: ('A' for Active; 'I' for Inactive)
REMARK    1  A    between atoms: C1_1  and  O27_24 
REMARK    2  A    between atoms: C3_3  and  C24_21 
REMARK    3  A    between atoms: C6_6  and  C17_14 
REMARK    4  A    between atoms: C20_17  and  O21_18 
REMARK    5  A    between atoms: C24_21  and  O25_22 
REMARK    6  A    between atoms: O25_22  and  C26_23 
ROOT
ATOM      1  C1  JJ3 d   1      79.969  42.617  68.043  0.00  0.00     0.067 A 
ATOM      2  C2  JJ3 d   1      80.009  42.696  69.431  0.00  0.00    -0.040 A 
ATOM      3  C3  JJ3 d   1      79.110  41.943  70.182  0.00  0.00     0.002 A 
ATOM      4  C4  JJ3 d   1      78.165  41.112  69.573  0.00  0.00     0.085 A 
ATOM      5  O5  JJ3 d   1      77.331  40.420  70.403  0.00  0.00    -0.340 OA
ATOM      6  C6  JJ3 d   1      76.906  39.192  69.810  0.00  0.00     0.074 C 
ATOM      7  C8  JJ3 d   1      76.148  39.466  68.490  0.00  0.00    -0.017 C 
ATOM      8  C10 JJ3 d   1      75.036  40.532  68.703  0.00  0.00    -0.058 C 
ATOM      9  C11 JJ3 d   1      74.859  41.184  67.309  0.00  0.00    -0.064 C 
ATOM     10  C12 JJ3 d   1      76.198  41.006  66.562  0.00  0.00    -0.057 C 
ATOM     11  C13 JJ3 d   1      77.122  40.129  67.470  0.00  0.00    -0.020 C 
ATOM     12  C15 JJ3 d   1      78.126  41.027  68.188  0.00  0.00    -0.017 A 
ATOM     13  C16 JJ3 d   1      79.028  41.785  67.417  0.00  0.00    -0.042 A 
ATOM     14  H1  JJ3 d   1      80.732  43.337  69.923  0.00  0.00     0.088 H 
ATOM     15  H2  JJ3 d   1      77.791  38.578  69.587  0.00  0.00     0.092 H 
ATOM     16  H3  JJ3 d   1      75.728  38.530  68.094  0.00  0.00     0.045 H 
ATOM     17  H4  JJ3 d   1      75.350  41.280  69.446  0.00  0.00     0.033 H 
ATOM     18  H5  JJ3 d   1      74.100  40.058  69.033  0.00  0.00     0.033 H 
ATOM     19  H6  JJ3 d   1      74.625  42.253  67.418  0.00  0.00     0.033 H 
ATOM     20  H7  JJ3 d   1      74.048  40.685  66.758  0.00  0.00     0.033 H 
ATOM     21  H8  JJ3 d   1      76.664  41.986  66.385  0.00  0.00     0.034 H 
ATOM     22  H9  JJ3 d   1      76.028  40.502  65.599  0.00  0.00     0.034 H 
ATOM     23  H10 JJ3 d   1      77.653  39.367  66.880  0.00  0.00     0.048 H 
ATOM     24  H11 JJ3 d   1      78.995  41.726  66.335  0.00  0.00     0.088 H 
ENDROOT
BRANCH   6  25
ATOM     25  C17 JJ3 d   1      76.020  38.441  70.797  0.00  0.00    -0.028 A 
ATOM     26  C18 JJ3 d   1      75.983  38.825  72.137  0.00  0.00    -0.072 A 
ATOM     27  C19 JJ3 d   1      75.169  38.140  73.042  0.00  0.00    -0.050 A 
ATOM     28  H12 JJ3 d   1      76.588  39.658  72.477  0.00  0.00     0.084 H 
ATOM     29  C20 JJ3 d   1      74.391  37.064  72.598  0.00  0.00     0.065 A 
ATOM     30  H13 JJ3 d   1      75.140  38.440  74.083  0.00  0.00     0.087 H 
ATOM     31  C22 JJ3 d   1      74.428  36.677  71.259  0.00  0.00    -0.050 A 
ATOM     32  C23 JJ3 d   1      75.241  37.363  70.360  0.00  0.00    -0.072 A 
ATOM     33  H15 JJ3 d   1      73.825  35.843  70.918  0.00  0.00     0.087 H 
ATOM     34  H16 JJ3 d   1      75.271  37.061  69.319  0.00  0.00     0.084 H 
BRANCH  29  35
ATOM     35  O21 JJ3 d   1      73.584  36.386  73.470  0.00  0.00    -0.361 OA
ATOM     36  H14 JJ3 d   1      74.114  36.011  74.164  0.00  0.00     0.217 HD
ENDBRANCH  29  35
ENDBRANCH   6  25
BRANCH   3  37
ATOM     37  C24 JJ3 d   1      79.147  42.017  71.667  0.00  0.00     0.045 C 
ATOM     38  H17 JJ3 d   1      78.132  42.171  72.063  0.00  0.00     0.081 H 
ATOM     39  H18 JJ3 d   1      79.795  42.846  71.988  0.00  0.00     0.081 H 
BRANCH  37  40
ATOM     40  O25 JJ3 d   1      79.673  40.773  72.135  0.00  0.00    -0.391 OA
BRANCH  40  41
ATOM     41  C26 JJ3 d   1      80.459  41.069  73.263  0.00  0.00     0.004 C 
ATOM     42  H19 JJ3 d   1      80.890  40.140  73.664  0.00  0.00     0.066 H 
ATOM     43  H20 JJ3 d   1      79.832  41.544  74.032  0.00  0.00     0.066 H 
ATOM     44  H21 JJ3 d   1      81.270  41.755  72.975  0.00  0.00     0.066 H 
ENDBRANCH  40  41
ENDBRANCH  37  40
ENDBRANCH   3  37
BRANCH   1  45
ATOM     45  O27 JJ3 d   1      80.848  43.358  67.310  0.00  0.00    -0.361 OA
ATOM     46  H22 JJ3 d   1      80.367  43.952  66.747  0.00  0.00     0.217 HD
ENDBRANCH   1  45
TORSDOF 6
