REMARK  12 active torsions:
REMARK  status: ('A' for Active; 'I' for Inactive)
REMARK    1  A    between atoms: N5_4  and  S1_1 
REMARK    2  A    between atoms: S1_1  and  C9_7 
REMARK    3  A    between atoms: N3_3  and  S2_2 
REMARK    4  A    between atoms: S2_2  and  C10_8 
REMARK       I    between atoms: C8_6  and  N3_3 
REMARK       I    between atoms: C7_5  and  N5_4 
REMARK       I    between atoms: N21_17  and  C7_5 
REMARK       I    between atoms: N22_18  and  C8_6 
REMARK    5  A    between atoms: C38_30  and  N21_17 
REMARK    6  A    between atoms: C35_29  and  N22_18 
REMARK    7  A    between atoms: C45_31  and  C35_29 
REMARK    8  A    between atoms: C48_32  and  C38_30 
REMARK    9  A    between atoms: C51_33  and  C45_31 
REMARK   10  A    between atoms: C54_34  and  C48_32 
REMARK   11  A    between atoms: C57_35  and  C51_33 
REMARK   12  A    between atoms: C54_34  and  C57_35 
ROOT
ATOM      1  C57 R15 d   1      13.499  60.429  26.254  0.00  0.00    -0.065 C 
ATOM      2  H25 R15 d   1      14.041  61.293  25.843  0.00  0.00     0.033 H 
ATOM      3  H26 R15 d   1      13.277  60.608  27.316  0.00  0.00     0.033 H 
ENDROOT
BRANCH   1   4
ATOM      4  C51 R15 d   1      14.410  59.203  26.156  0.00  0.00    -0.064 C 
ATOM      5  H21 R15 d   1      15.204  59.298  26.911  0.00  0.00     0.033 H 
ATOM      6  H22 R15 d   1      13.810  58.305  26.366  0.00  0.00     0.033 H 
BRANCH   4   7
ATOM      7  C45 R15 d   1      15.064  59.038  24.782  0.00  0.00    -0.050 C 
ATOM      8  H17 R15 d   1      15.569  58.061  24.747  0.00  0.00     0.035 H 
ATOM      9  H18 R15 d   1      14.279  59.073  24.012  0.00  0.00     0.035 H 
BRANCH   7  10
ATOM     10  C35 R15 d   1      16.094  60.134  24.484  0.00  0.00    -0.003 C 
ATOM     11  H13 R15 d   1      15.839  61.039  25.054  0.00  0.00     0.064 H 
ATOM     12  H14 R15 d   1      17.094  59.785  24.779  0.00  0.00     0.064 H 
BRANCH  10  13
ATOM     13  N22 R15 d   1      16.090  60.442  23.059  0.00  0.00    -0.342 N 
ATOM     14  C8  R15 d   1      16.552  59.533  22.111  0.00  0.00     0.329 C 
ATOM     15  N3  R15 d   1      16.459  60.007  20.802  0.00  0.00    -0.232 N 
ATOM     16  O20 R15 d   1      17.014  58.394  22.391  0.00  0.00    -0.246 OA
ATOM     17  H1  R15 d   1      16.081  60.917  20.629  0.00  0.00     0.183 HD
ATOM     18  H6  R15 d   1      15.746  61.330  22.754  0.00  0.00     0.164 HD
BRANCH  15  19
ATOM     19  S2  R15 d   1      16.985  59.047  19.494  0.00  0.00     0.266 S 
ATOM     20  O12 R15 d   1      16.401  57.728  19.638  0.00  0.00    -0.200 OA
ATOM     21  O13 R15 d   1      16.669  59.781  18.263  0.00  0.00    -0.200 OA
BRANCH  19  22
ATOM     22  C10 R15 d   1      18.743  58.853  19.483  0.00  0.00     0.081 A 
ATOM     23  C17 R15 d   1      19.327  57.644  19.871  0.00  0.00    -0.039 A 
ATOM     24  C24 R15 d   1      20.706  57.520  19.841  0.00  0.00     0.035 A 
ATOM     25  H4  R15 d   1      18.708  56.814  20.191  0.00  0.00     0.088 H 
ATOM     26 CL26 R15 d   1      21.452  56.018  20.310  0.00  0.00    -0.084 Cl
ATOM     27  C43 R15 d   1      21.492  58.585  19.429  0.00  0.00    -0.062 A 
ATOM     28  C33 R15 d   1      20.906  59.784  19.037  0.00  0.00    -0.080 A 
ATOM     29  H12 R15 d   1      22.571  58.483  19.412  0.00  0.00     0.086 H 
ATOM     30  C29 R15 d   1      19.531  59.914  19.050  0.00  0.00    -0.060 A 
ATOM     31  H10 R15 d   1      21.527  60.615  18.722  0.00  0.00     0.083 H 
ATOM     32  H8  R15 d   1      19.068  60.839  18.724  0.00  0.00     0.085 H 
ENDBRANCH  19  22
ENDBRANCH  15  19
ENDBRANCH  10  13
ENDBRANCH   7  10
ENDBRANCH   4   7
ENDBRANCH   1   4
BRANCH   1  33
ATOM     33  C54 R15 d   1      12.170  60.296  25.503  0.00  0.00    -0.064 C 
ATOM     34  H23 R15 d   1      11.515  61.133  25.786  0.00  0.00     0.033 H 
ATOM     35  H24 R15 d   1      12.366  60.333  24.421  0.00  0.00     0.033 H 
BRANCH  33  36
ATOM     36  C48 R15 d   1      11.465  58.977  25.837  0.00  0.00    -0.050 C 
ATOM     37  H19 R15 d   1      11.912  58.177  25.229  0.00  0.00     0.035 H 
ATOM     38  H20 R15 d   1      11.620  58.757  26.904  0.00  0.00     0.035 H 
BRANCH  36  39
ATOM     39  C38 R15 d   1       9.958  59.016  25.560  0.00  0.00    -0.003 C 
ATOM     40  H15 R15 d   1       9.785  59.497  24.586  0.00  0.00     0.064 H 
ATOM     41  H16 R15 d   1       9.571  57.986  25.535  0.00  0.00     0.064 H 
BRANCH  39  42
ATOM     42  N21 R15 d   1       9.250  59.765  26.593  0.00  0.00    -0.342 N 
ATOM     43  C7  R15 d   1       9.195  59.304  27.889  0.00  0.00     0.329 C 
ATOM     44  N5  R15 d   1       8.854  60.312  28.785  0.00  0.00    -0.232 N 
ATOM     45  O19 R15 d   1       9.402  58.126  28.225  0.00  0.00    -0.246 OA
ATOM     46  H2  R15 d   1       8.675  61.238  28.452  0.00  0.00     0.183 HD
ATOM     47  H5  R15 d   1       8.798  60.625  26.356  0.00  0.00     0.164 HD
BRANCH  44  48
ATOM     48  S1  R15 d   1       8.743  59.974  30.423  0.00  0.00     0.266 S 
ATOM     49  O11 R15 d   1       9.890  59.143  30.769  0.00  0.00    -0.200 OA
ATOM     50  O14 R15 d   1       8.675  61.243  31.185  0.00  0.00    -0.200 OA
BRANCH  48  51
ATOM     51  C9  R15 d   1       7.249  59.071  30.721  0.00  0.00     0.081 A 
ATOM     52  C15 R15 d   1       7.299  57.695  30.918  0.00  0.00    -0.039 A 
ATOM     53  C23 R15 d   1       6.130  56.990  31.151  0.00  0.00     0.035 A 
ATOM     54  H3  R15 d   1       8.250  57.176  30.889  0.00  0.00     0.088 H 
ATOM     55 CL25 R15 d   1       6.216  55.275  31.394  0.00  0.00    -0.084 Cl
ATOM     56  C41 R15 d   1       4.911  57.644  31.203  0.00  0.00    -0.062 A 
ATOM     57  C31 R15 d   1       4.854  59.022  31.014  0.00  0.00    -0.080 A 
ATOM     58  H11 R15 d   1       4.002  57.084  31.391  0.00  0.00     0.086 H 
ATOM     59  C27 R15 d   1       6.029  59.723  30.766  0.00  0.00    -0.060 A 
ATOM     60  H9  R15 d   1       3.904  59.543  31.060  0.00  0.00     0.083 H 
ATOM     61  H7  R15 d   1       5.989  60.794  30.606  0.00  0.00     0.085 H 
ENDBRANCH  48  51
ENDBRANCH  44  48
ENDBRANCH  39  42
ENDBRANCH  36  39
ENDBRANCH  33  36
ENDBRANCH   1  33
TORSDOF 12
