REMARK  10 active torsions:
REMARK  status: ('A' for Active; 'I' for Inactive)
REMARK    1  A    between atoms: C_1  and  C1_2 
REMARK    2  A    between atoms: C_1  and  C2_3 
REMARK    3  A    between atoms: C_1  and  C3_4 
REMARK    4  A    between atoms: C_1  and  N_8 
REMARK    5  A    between atoms: C1_2  and  C4_5 
REMARK    6  A    between atoms: C2_3  and  C5_6 
REMARK    7  A    between atoms: C3_4  and  C6_7 
REMARK    8  A    between atoms: C4_5  and  O4_9 
REMARK    9  A    between atoms: C5_6  and  O5_10 
REMARK   10  A    between atoms: C6_7  and  O6_11 
ROOT
ATOM      1  C   NON d   1      21.562 -18.143 -18.778  0.00  0.00     0.129 C 
ENDROOT
BRANCH   1   2
ATOM      2  C1  NON d   1      21.752 -17.414 -20.111  0.00  0.00    -0.014 C 
ATOM      3  H1  NON d   1      21.031 -17.833 -20.828  0.00  0.00     0.039 H 
ATOM      4  H2  NON d   1      22.776 -17.614 -20.460  0.00  0.00     0.039 H 
BRANCH   2   5
ATOM      5  C4  NON d   1      21.556 -15.894 -20.086  0.00  0.00     0.019 C 
ATOM      6  H7  NON d   1      22.090 -15.474 -19.221  0.00  0.00     0.074 H 
ATOM      7  H8  NON d   1      20.483 -15.668 -20.000  0.00  0.00     0.074 H 
BRANCH   5   8
ATOM      8  O4  NON d   1      22.069 -15.305 -21.290  0.00  0.00    -0.401 OA
ATOM      9  H16 NON d   1      22.996 -15.497 -21.365  0.00  0.00     0.209 HD
ENDBRANCH   5   8
ENDBRANCH   2   5
ENDBRANCH   1   2
BRANCH   1  10
ATOM     10  C2  NON d   1      22.034 -19.596 -18.951  0.00  0.00    -0.014 C 
ATOM     11  H3  NON d   1      23.120 -19.616 -18.780  0.00  0.00     0.039 H 
ATOM     12  H4  NON d   1      21.820 -19.895 -19.988  0.00  0.00     0.039 H 
BRANCH  10  13
ATOM     13  C5  NON d   1      21.399 -20.640 -18.027  0.00  0.00     0.019 C 
ATOM     14  H9  NON d   1      20.576 -21.138 -18.561  0.00  0.00     0.074 H 
ATOM     15  H10 NON d   1      21.003 -20.134 -17.134  0.00  0.00     0.074 H 
BRANCH  13  16
ATOM     16  O5  NON d   1      22.363 -21.636 -17.615  0.00  0.00    -0.401 OA
ATOM     17  H17 NON d   1      21.940 -22.267 -17.045  0.00  0.00     0.209 HD
ENDBRANCH  13  16
ENDBRANCH  10  13
ENDBRANCH   1  10
BRANCH   1  18
ATOM     18  C3  NON d   1      22.348 -17.425 -17.692  0.00  0.00    -0.014 C 
ATOM     19  H5  NON d   1      23.200 -16.918 -18.170  0.00  0.00     0.039 H 
ATOM     20  H6  NON d   1      22.721 -18.183 -16.987  0.00  0.00     0.039 H 
BRANCH  18  21
ATOM     21  C6  NON d   1      21.564 -16.375 -16.887  0.00  0.00     0.019 C 
ATOM     22  H11 NON d   1      21.157 -16.845 -15.980  0.00  0.00     0.074 H 
ATOM     23  H12 NON d   1      20.738 -15.990 -17.503  0.00  0.00     0.074 H 
BRANCH  21  24
ATOM     24  O6  NON d   1      22.420 -15.285 -16.510  0.00  0.00    -0.401 OA
ATOM     25  H18 NON d   1      21.919 -14.648 -16.015  0.00  0.00     0.209 HD
ENDBRANCH  21  24
ENDBRANCH  18  21
ENDBRANCH   1  18
BRANCH   1  26
ATOM     26  N   NON d   1      20.139 -18.131 -18.419  0.00  0.00    -0.070 N 
ATOM     27  H13 NON d   1      19.608 -18.605 -19.133  0.00  0.00     0.275 HD
ATOM     28  H14 NON d   1      19.820 -17.178 -18.340  0.00  0.00     0.275 HD
ATOM     29  H15 NON d   1      20.011 -18.602 -17.537  0.00  0.00     0.275 HD
ENDBRANCH   1  26
TORSDOF 10
