REMARK  12 active torsions:
REMARK  status: ('A' for Active; 'I' for Inactive)
REMARK    1  A    between atoms: C5_6  and  N2_7 
REMARK       I    between atoms: N2_7  and  C4_8 
REMARK    2  A    between atoms: C4_8  and  C1_9 
REMARK    3  A    between atoms: C1_9  and  C2_10 
REMARK    4  A    between atoms: C1_9  and  N1_12 
REMARK    5  A    between atoms: C2_10  and  C3_11 
REMARK    6  A    between atoms: N1_12  and  C26_24 
REMARK    7  A    between atoms: C13_17  and  C14_18 
REMARK    8  A    between atoms: C14_18  and  O3_19 
REMARK    9  A    between atoms: C14_18  and  N4_20 
REMARK   10  A    between atoms: N4_20  and  C15_21 
REMARK   11  A    between atoms: C15_21  and  C17_22 
REMARK   12  A    between atoms: C15_21  and  C16_29 
ROOT
ATOM      1  C49 BI6 d   1     110.817  98.784  61.803  0.00  0.00    -0.063 C 
ATOM      2  C9  BI6 d   1     109.717  98.193  62.813  0.00  0.00    -0.046 C 
ATOM      3  C10 BI6 d   1     108.409  97.361  62.307  0.00  0.00     0.015 C 
ATOM      4  N3  BI6 d   1     108.143  97.074  60.793  0.00  0.00    -0.337 N 
ATOM      5  C6  BI6 d   1     109.001  96.384  59.879  0.00  0.00     0.243 C 
ATOM      6  C5  BI6 d   1     110.418  95.754  60.172  0.00  0.00     0.089 C 
ATOM      7  C7  BI6 d   1     111.401  96.741  60.529  0.00  0.00    -0.038 C 
ATOM      8  C8  BI6 d   1     111.314  97.974  60.681  0.00  0.00    -0.063 C 
ATOM      9  O2  BI6 d   1     108.639  96.232  58.668  0.00  0.00    -0.271 OA
ATOM     10  C13 BI6 d   1     106.859  97.586  60.232  0.00  0.00     0.065 C 
ATOM     11  C12 BI6 d   1     106.087  97.236  61.433  0.00  0.00    -0.040 C 
ATOM     12  C11 BI6 d   1     107.065  97.903  62.565  0.00  0.00    -0.044 C 
ATOM     13  H1  BI6 d   1     111.694  99.049  62.412  0.00  0.00     0.033 H 
ATOM     14  H2  BI6 d   1     110.385  99.696  61.366  0.00  0.00     0.033 H 
ATOM     15  H3  BI6 d   1     109.330  99.054  63.378  0.00  0.00     0.036 H 
ATOM     16  H4  BI6 d   1     110.260  97.521  63.494  0.00  0.00     0.036 H 
ATOM     17  H5  BI6 d   1     108.503  96.395  62.825  0.00  0.00     0.072 H 
ATOM     18  H6  BI6 d   1     110.249  95.158  61.081  0.00  0.00     0.087 H 
ATOM     19  H16 BI6 d   1     112.177  96.627  59.758  0.00  0.00     0.036 H 
ATOM     20  H17 BI6 d   1     111.789  96.386  61.495  0.00  0.00     0.036 H 
ATOM     21  H18 BI6 d   1     112.346  98.328  60.541  0.00  0.00     0.033 H 
ATOM     22  H19 BI6 d   1     110.696  98.299  59.831  0.00  0.00     0.033 H 
ATOM     23  H20 BI6 d   1     106.506  96.930  59.423  0.00  0.00     0.079 H 
ATOM     24  H39 BI6 d   1     105.991  96.148  61.560  0.00  0.00     0.036 H 
ATOM     25  H40 BI6 d   1     105.087  97.694  61.429  0.00  0.00     0.036 H 
ATOM     26  H41 BI6 d   1     107.069  98.999  62.469  0.00  0.00     0.036 H 
ATOM     27  H42 BI6 d   1     106.727  97.625  63.574  0.00  0.00     0.036 H 
ENDROOT
BRANCH  10  28
ATOM     28  C14 BI6 d   1     107.008  98.957  59.545  0.00  0.00     0.211 C 
ATOM     29  H21 BI6 d   1     106.414  99.701  60.097  0.00  0.00     0.132 H 
BRANCH  28  30
ATOM     30  O3  BI6 d   1     108.129  99.461  59.512  0.00  0.00    -0.368 OA
ATOM     31  H22 BI6 d   1     108.426  99.628  60.399  0.00  0.00     0.212 HD
ENDBRANCH  28  30
BRANCH  28  32
ATOM     32  N4  BI6 d   1     106.258  98.577  58.402  0.00  0.00    -0.035 N 
ATOM     33  H23 BI6 d   1     105.349  98.268  58.710  0.00  0.00     0.281 HD
ATOM     34  H24 BI6 d   1     106.737  97.814  57.950  0.00  0.00     0.281 HD
BRANCH  32  35
ATOM     35  C15 BI6 d   1     106.063  99.679  57.387  0.00  0.00     0.155 C 
ATOM     36  H25 BI6 d   1     107.058  99.992  57.037  0.00  0.00     0.100 H 
BRANCH  35  37
ATOM     37  C17 BI6 d   1     105.296 100.995  57.933  0.00  0.00    -0.023 A 
ATOM     38  C18 BI6 d   1     105.546 102.318  57.289  0.00  0.00    -0.074 A 
ATOM     39  C19 BI6 d   1     104.857 103.501  57.774  0.00  0.00    -0.082 A 
ATOM     40  H26 BI6 d   1     106.241 102.396  56.461  0.00  0.00     0.084 H 
ATOM     41  C20 BI6 d   1     103.927 103.423  58.876  0.00  0.00    -0.083 A 
ATOM     42  H30 BI6 d   1     105.044 104.458  57.301  0.00  0.00     0.083 H 
ATOM     43  C21 BI6 d   1     103.666 102.142  59.519  0.00  0.00    -0.082 A 
ATOM     44  H31 BI6 d   1     103.423 104.317  59.225  0.00  0.00     0.083 H 
ATOM     45  C22 BI6 d   1     104.342 100.935  59.053  0.00  0.00    -0.074 A 
ATOM     46  H32 BI6 d   1     102.968 102.085  60.346  0.00  0.00     0.083 H 
ATOM     47  H33 BI6 d   1     104.140  99.986  59.536  0.00  0.00     0.084 H 
ENDBRANCH  35  37
BRANCH  35  48
ATOM     48  C16 BI6 d   1     105.257  99.102  56.184  0.00  0.00    -0.023 A 
ATOM     49  C23 BI6 d   1     103.993  99.627  55.633  0.00  0.00    -0.074 A 
ATOM     50  C24 BI6 d   1     103.364  99.005  54.521  0.00  0.00    -0.082 A 
ATOM     51  H34 BI6 d   1     103.537 100.501  56.084  0.00  0.00     0.084 H 
ATOM     52  C25 BI6 d   1     103.970  97.852  53.924  0.00  0.00    -0.083 A 
ATOM     53  H35 BI6 d   1     102.434  99.399  54.128  0.00  0.00     0.083 H 
ATOM     54  C28 BI6 d   1     105.210  97.316  54.445  0.00  0.00    -0.082 A 
ATOM     55  H36 BI6 d   1     103.495  97.376  53.074  0.00  0.00     0.083 H 
ATOM     56  C27 BI6 d   1     105.833  97.945  55.564  0.00  0.00    -0.074 A 
ATOM     57  H38 BI6 d   1     105.662  96.443  53.988  0.00  0.00     0.083 H 
ATOM     58  H37 BI6 d   1     106.760  97.540  55.953  0.00  0.00     0.084 H 
ENDBRANCH  35  48
ENDBRANCH  32  35
ENDBRANCH  28  32
ENDBRANCH  10  28
BRANCH   6  59
ATOM     59  N2  BI6 d   1     111.013  94.831  59.255  0.00  0.00    -0.346 N 
ATOM     60  C4  BI6 d   1     111.648  93.760  59.856  0.00  0.00     0.249 C 
ATOM     61  O1  BI6 d   1     111.719  93.593  61.106  0.00  0.00    -0.271 OA
ATOM     62  H7  BI6 d   1     110.973  94.950  58.263  0.00  0.00     0.163 HD
BRANCH  60  63
ATOM     63  C1  BI6 d   1     112.287  92.724  58.986  0.00  0.00     0.177 C 
ATOM     64  H8  BI6 d   1     112.324  93.076  57.944  0.00  0.00     0.099 H 
BRANCH  63  65
ATOM     65  C2  BI6 d   1     111.438  91.406  59.043  0.00  0.00    -0.033 C 
ATOM     66  H9  BI6 d   1     111.373  91.079  60.091  0.00  0.00     0.036 H 
ATOM     67  H10 BI6 d   1     111.951  90.635  58.449  0.00  0.00     0.036 H 
BRANCH  65  68
ATOM     68  C3  BI6 d   1     109.996  91.573  58.490  0.00  0.00    -0.074 C 
ATOM     69  H11 BI6 d   1     109.463  90.614  58.561  0.00  0.00     0.027 H 
ATOM     70  H12 BI6 d   1     110.041  91.890  57.438  0.00  0.00     0.027 H 
ATOM     71  H13 BI6 d   1     109.463  92.334  59.080  0.00  0.00     0.027 H 
ENDBRANCH  65  68
ENDBRANCH  63  65
BRANCH  63  72
ATOM     72  N1  BI6 d   1     113.660  92.547  59.490  0.00  0.00    -0.066 N 
ATOM     73  H14 BI6 d   1     113.930  91.655  59.105  0.00  0.00     0.277 HD
ATOM     74  H15 BI6 d   1     113.526  92.457  60.485  0.00  0.00     0.277 HD
BRANCH  72  75
ATOM     75  C26 BI6 d   1     114.839  93.299  59.398  0.00  0.00     0.066 C 
ATOM     76  H27 BI6 d   1     115.647  92.781  59.935  0.00  0.00     0.067 H 
ATOM     77  H28 BI6 d   1     114.678  94.290  59.846  0.00  0.00     0.067 H 
ATOM     78  H29 BI6 d   1     115.118  93.416  58.340  0.00  0.00     0.067 H 
ENDBRANCH  72  75
ENDBRANCH  63  72
ENDBRANCH  60  63
ENDBRANCH   6  59
TORSDOF 12
