REMARK  31 active torsions:
REMARK  status: ('A' for Active; 'I' for Inactive)
REMARK    1  A    between atoms: N_1  and  CA_2 
REMARK    2  A    between atoms: CA_2  and  C_3 
REMARK    3  A    between atoms: CA_2  and  CB_5 
REMARK       I    between atoms: C_3  and  N_9 
REMARK    4  A    between atoms: CB_5  and  CG_6 
REMARK       I    between atoms: CG_6  and  ND2_8 
REMARK    5  A    between atoms: N_9  and  CA_10 
REMARK    6  A    between atoms: CA_10  and  C_11 
REMARK    7  A    between atoms: CA_10  and  CB_13 
REMARK       I    between atoms: C_11  and  N_18 
REMARK    8  A    between atoms: CB_13  and  CG_14 
REMARK    9  A    between atoms: CG_14  and  CD_15 
REMARK   10  A    between atoms: N_18  and  CA_19 
REMARK   11  A    between atoms: CA_19  and  C_20 
REMARK   12  A    between atoms: CA_19  and  CB_22 
REMARK       I    between atoms: C_20  and  N_26 
REMARK   13  A    between atoms: CB_22  and  CG_23 
REMARK   14  A    between atoms: CG_23  and  CD1_24 
REMARK   15  A    between atoms: CG_23  and  CD2_25 
REMARK   16  A    between atoms: N_26  and  CA_27 
REMARK   17  A    between atoms: CA_27  and  C_28 
REMARK   18  A    between atoms: CA_27  and  CB_30 
REMARK       I    between atoms: C_28  and  N_34 
REMARK   19  A    between atoms: CB_30  and  CG_31 
REMARK       I    between atoms: CG_31  and  ND2_33 
REMARK   20  A    between atoms: N_34  and  CA_35 
REMARK   21  A    between atoms: CA_35  and  C_36 
REMARK   22  A    between atoms: CA_35  and  CB_38 
REMARK       I    between atoms: C_36  and  N_42 
REMARK   23  A    between atoms: CB_38  and  CG_39 
REMARK       I    between atoms: CG_39  and  ND2_41 
REMARK   24  A    between atoms: N_42  and  CA_43 
REMARK   25  A    between atoms: CA_43  and  C_44 
REMARK   26  A    between atoms: CA_43  and  CB_46 
REMARK       I    between atoms: C_44  and  N_50 
REMARK   27  A    between atoms: CB_46  and  CG_47 
REMARK       I    between atoms: CG_47  and  ND2_49 
REMARK   28  A    between atoms: N_50  and  CA_51 
REMARK   29  A    between atoms: CA_51  and  C_52 
REMARK   30  A    between atoms: CA_51  and  CB_54 
REMARK       I    between atoms: C_52  and  N_55 
REMARK   31  A    between atoms: CA_56  and  C_57 
ROOT
ATOM      1  CA  ASN d   1      -0.895  40.933  36.755  0.00  0.00     0.097 C 
ATOM      2  H27 ASN d   1      -1.976  40.731  36.744  0.00  0.00     0.088 H 
ENDROOT
BRANCH   1   3
ATOM      3  N   ASN d   1      -0.684  42.125  37.594  0.00  0.00    -0.346 N 
ATOM      4  C   LEU d   1      -1.684  42.747  38.207  0.00  0.00     0.241 C 
ATOM      5  O   LEU d   1      -2.846  42.335  38.162  0.00  0.00    -0.271 OA
ATOM      6  H26 ASN d   1       0.245  42.478  37.706  0.00  0.00     0.163 HD
BRANCH   4   7
ATOM      7  CA  LEU d   1      -1.323  44.034  38.997  0.00  0.00     0.089 C 
ATOM      8  H16 LEU d   1      -2.192  44.287  39.622  0.00  0.00     0.087 H 
BRANCH   7   9
ATOM      9  N   LEU d   1      -0.164  43.916  39.876  0.00  0.00    -0.346 N 
ATOM     10  C   GLU d   1       0.105  42.860  40.635  0.00  0.00     0.241 C 
ATOM     11  O   GLU d   1      -0.564  41.827  40.632  0.00  0.00    -0.271 OA
ATOM     12  H15 LEU d   1       0.473  44.686  39.909  0.00  0.00     0.163 HD
BRANCH  10  13
ATOM     13  CA  GLU d   1       1.321  43.007  41.553  0.00  0.00     0.090 C 
ATOM     14  H10 GLU d   1       1.412  44.058  41.864  0.00  0.00     0.087 H 
BRANCH  13  15
ATOM     15  N   GLU d   1       1.106  42.173  42.744  0.00  0.00    -0.346 N 
ATOM     16  C   ASN d   1       0.527  42.625  43.861  0.00  0.00     0.249 C 
ATOM     17  O   ASN d   1       0.337  43.822  44.090  0.00  0.00    -0.271 OA
ATOM     18  H9  GLU d   1       1.408  41.220  42.718  0.00  0.00     0.163 HD
BRANCH  16  19
ATOM     19  CA  ASN d   1       0.120  41.549  44.883  0.00  0.00     0.183 C 
ATOM     20  H4  ASN d   1      -0.692  40.956  44.438  0.00  0.00     0.099 H 
BRANCH  19  21
ATOM     21  N   ASN d   1       1.253  40.628  45.179  0.00  0.00    -0.066 N 
ATOM     22  H1  ASN d   1       0.957  39.936  45.850  0.00  0.00     0.275 HD
ATOM     23  H2  ASN d   1       2.024  41.155  45.558  0.00  0.00     0.275 HD
ATOM     24  H3  ASN d   1       1.544  40.170  44.330  0.00  0.00     0.275 HD
ENDBRANCH  19  21
BRANCH  19  25
ATOM     25  CB  ASN d   1      -0.412  42.176  46.190  0.00  0.00     0.044 C 
ATOM     26  H5  ASN d   1       0.158  43.094  46.394  0.00  0.00     0.051 H 
ATOM     27  H6  ASN d   1      -0.258  41.459  47.010  0.00  0.00     0.051 H 
BRANCH  25  28
ATOM     28  CG  ASN d   1      -1.902  42.532  46.128  0.00  0.00     0.217 C 
ATOM     29  OD1 ASN d   1      -2.659  42.000  45.312  0.00  0.00    -0.274 OA
ATOM     30  ND2 ASN d   1      -2.327  43.424  47.017  0.00  0.00    -0.370 N 
ATOM     31  H7  ASN d   1      -3.288  43.699  47.029  0.00  0.00     0.159 HD
ATOM     32  H8  ASN d   1      -1.685  43.820  47.674  0.00  0.00     0.159 HD
ENDBRANCH  25  28
ENDBRANCH  19  25
ENDBRANCH  16  19
ENDBRANCH  13  15
BRANCH  13  33
ATOM     33  CB  GLU d   1       2.609  42.603  40.816  0.00  0.00    -0.029 C 
ATOM     34  H11 GLU d   1       2.452  41.605  40.380  0.00  0.00     0.037 H 
ATOM     35  H12 GLU d   1       3.422  42.556  41.555  0.00  0.00     0.037 H 
BRANCH  33  36
ATOM     36  CG  GLU d   1       3.053  43.558  39.677  0.00  0.00     0.018 C 
ATOM     37  H13 GLU d   1       4.153  43.580  39.658  0.00  0.00     0.049 H 
ATOM     38  H14 GLU d   1       2.670  44.564  39.904  0.00  0.00     0.049 H 
BRANCH  36  39
ATOM     39  CD  GLU d   1       2.556  43.161  38.271  0.00  0.00     0.172 C 
ATOM     40  OE1 GLU d   1       1.964  42.069  38.093  0.00  0.00    -0.648 OA
ATOM     41  OE2 GLU d   1       2.759  43.950  37.327  0.00  0.00    -0.648 OA
ENDBRANCH  36  39
ENDBRANCH  33  36
ENDBRANCH  13  33
ENDBRANCH  10  13
ENDBRANCH   7   9
BRANCH   7  42
ATOM     42  CB  LEU d   1      -1.058  45.198  38.025  0.00  0.00    -0.035 C 
ATOM     43  H17 LEU d   1      -0.079  45.011  37.560  0.00  0.00     0.037 H 
ATOM     44  H18 LEU d   1      -1.008  46.115  38.630  0.00  0.00     0.037 H 
BRANCH  42  45
ATOM     45  CG  LEU d   1      -2.045  45.468  36.889  0.00  0.00    -0.059 C 
ATOM     46  H19 LEU d   1      -2.086  44.579  36.243  0.00  0.00     0.038 H 
BRANCH  45  47
ATOM     47  CD1 LEU d   1      -3.444  45.724  37.436  0.00  0.00    -0.073 C 
ATOM     48  H20 LEU d   1      -4.135  45.915  36.602  0.00  0.00     0.028 H 
ATOM     49  H21 LEU d   1      -3.423  46.599  38.102  0.00  0.00     0.028 H 
ATOM     50  H22 LEU d   1      -3.784  44.843  37.999  0.00  0.00     0.028 H 
ENDBRANCH  45  47
BRANCH  45  51
ATOM     51  CD2 LEU d   1      -1.555  46.648  36.057  0.00  0.00    -0.073 C 
ATOM     52  H23 LEU d   1      -0.545  46.434  35.677  0.00  0.00     0.028 H 
ATOM     53  H24 LEU d   1      -1.527  47.552  36.683  0.00  0.00     0.028 H 
ATOM     54  H25 LEU d   1      -2.239  46.809  35.211  0.00  0.00     0.028 H 
ENDBRANCH  45  51
ENDBRANCH  42  45
ENDBRANCH   7  42
ENDBRANCH   4   7
ENDBRANCH   1   3
BRANCH   1  55
ATOM     55  C   ASN d   1      -0.215  39.666  37.308  0.00  0.00     0.241 C 
ATOM     56  O   ASN d   1       0.128  38.763  36.556  0.00  0.00    -0.271 OA
ATOM     57  N   ASN d   1      -0.052  39.608  38.634  0.00  0.00    -0.346 N 
ATOM     58  H32 ASN d   1      -0.292  40.412  39.178  0.00  0.00     0.163 HD
BRANCH  57  59
ATOM     59  CA  ASN d   1       0.461  38.423  39.330  0.00  0.00     0.097 C 
ATOM     60  H33 ASN d   1       0.392  38.622  40.410  0.00  0.00     0.088 H 
BRANCH  59  61
ATOM     61  C   ASN d   1       1.936  38.111  39.017  0.00  0.00     0.241 C 
ATOM     62  O   ASN d   1       2.368  36.959  39.081  0.00  0.00    -0.271 OA
ATOM     63  N   ASN d   1       2.699  39.147  38.687  0.00  0.00    -0.346 N 
ATOM     64  H38 ASN d   1       2.306  40.066  38.719  0.00  0.00     0.163 HD
BRANCH  63  65
ATOM     65  CA  ASN d   1       4.085  38.990  38.281  0.00  0.00     0.097 C 
ATOM     66  H39 ASN d   1       4.258  37.931  38.039  0.00  0.00     0.088 H 
BRANCH  65  67
ATOM     67  C   ASN d   1       5.039  39.382  39.407  0.00  0.00     0.241 C 
ATOM     68  O   ASN d   1       4.648  40.079  40.348  0.00  0.00    -0.271 OA
ATOM     69  N   LEU d   1       6.278  38.913  39.311  0.00  0.00    -0.346 N 
ATOM     70  H44 LEU d   1       6.517  38.337  38.529  0.00  0.00     0.163 HD
BRANCH  69  71
ATOM     71  CA  LEU d   1       7.303  39.210  40.308  0.00  0.00     0.086 C 
ATOM     72  H45 LEU d   1       6.821  39.331  41.289  0.00  0.00     0.086 H 
BRANCH  71  73
ATOM     73  C   LEU d   1       8.014  40.523  39.937  0.00  0.00     0.243 C 
ATOM     74  O   LEU d   1       8.530  40.652  38.823  0.00  0.00    -0.271 OA
ATOM     75  N   PRO d   1       8.027  41.505  40.858  0.00  0.00    -0.336 N 
ATOM     76  CA  PRO d   1       8.761  42.758  40.649  0.00  0.00     0.098 C 
ATOM     77  CD  PRO d   1       7.229  41.548  42.099  0.00  0.00    -0.001 C 
ATOM     78  CB  PRO d   1       8.721  43.407  42.039  0.00  0.00    -0.035 C 
ATOM     79  H49 PRO d   1       8.237  43.385  39.913  0.00  0.00     0.089 H 
ATOM     80  CG  PRO d   1       7.436  42.948  42.610  0.00  0.00    -0.048 C 
ATOM     81  H50 PRO d   1       8.744  44.504  41.959  0.00  0.00     0.036 H 
ATOM     82  H51 PRO d   1       9.566  43.066  42.654  0.00  0.00     0.036 H 
ATOM     83  H52 PRO d   1       6.615  43.601  42.278  0.00  0.00     0.035 H 
ATOM     84  H53 PRO d   1       7.484  42.950  43.709  0.00  0.00     0.035 H 
ATOM     85  H54 PRO d   1       7.594  40.807  42.826  0.00  0.00     0.064 H 
ATOM     86  H55 PRO d   1       6.166  41.361  41.888  0.00  0.00     0.064 H 
BRANCH  76  87
ATOM     87  C   PRO d   1      10.208  42.556  40.175  0.00  0.00     0.196 C 
ATOM     88  O   PRO d   1      11.155  42.878  40.897  0.00  0.00    -0.646 OA
ATOM     89  OXT PRO d   1      10.442  42.069  39.066  0.00  0.00    -0.646 OA
ENDBRANCH  76  87
ENDBRANCH  71  73
BRANCH  71  90
ATOM     90  CB  LEU d   1       8.314  38.061  40.396  0.00  0.00    -0.049 C 
ATOM     91  H46 LEU d   1       9.078  38.301  41.151  0.00  0.00     0.030 H 
ATOM     92  H47 LEU d   1       8.797  37.922  39.417  0.00  0.00     0.030 H 
ATOM     93  H48 LEU d   1       7.793  37.136  40.683  0.00  0.00     0.030 H 
ENDBRANCH  71  90
ENDBRANCH  69  71
ENDBRANCH  65  67
BRANCH  65  94
ATOM     94  CB  ASN d   1       4.349  39.822  37.025  0.00  0.00     0.036 C 
ATOM     95  H40 ASN d   1       5.429  39.812  36.815  0.00  0.00     0.051 H 
ATOM     96  H41 ASN d   1       4.021  40.855  37.209  0.00  0.00     0.051 H 
BRANCH  94  97
ATOM     97  CG  ASN d   1       3.609  39.283  35.811  0.00  0.00     0.217 C 
ATOM     98  OD1 ASN d   1       3.648  38.086  35.542  0.00  0.00    -0.274 OA
ATOM     99  ND2 ASN d   1       2.929  40.164  35.075  0.00  0.00    -0.370 N 
ATOM    100  H42 ASN d   1       2.426  39.858  34.267  0.00  0.00     0.159 HD
ATOM    101  H43 ASN d   1       2.922  41.130  35.332  0.00  0.00     0.159 HD
ENDBRANCH  94  97
ENDBRANCH  65  94
ENDBRANCH  63  65
ENDBRANCH  59  61
BRANCH  59 102
ATOM    102  CB  ASN d   1      -0.425  37.204  39.014  0.00  0.00     0.036 C 
ATOM    103  H34 ASN d   1      -0.148  36.816  38.022  0.00  0.00     0.051 H 
ATOM    104  H35 ASN d   1      -1.476  37.528  39.001  0.00  0.00     0.051 H 
BRANCH 102 105
ATOM    105  CG  ASN d   1      -0.276  36.088  40.028  0.00  0.00     0.217 C 
ATOM    106  OD1 ASN d   1      -0.232  36.333  41.244  0.00  0.00    -0.274 OA
ATOM    107  ND2 ASN d   1      -0.222  34.851  39.538  0.00  0.00    -0.370 N 
ATOM    108  H36 ASN d   1      -0.124  34.072  40.157  0.00  0.00     0.159 HD
ATOM    109  H37 ASN d   1      -0.279  34.701  38.551  0.00  0.00     0.159 HD
ENDBRANCH 102 105
ENDBRANCH  59 102
ENDBRANCH  57  59
ENDBRANCH   1  55
BRANCH   1 110
ATOM    110  CB  ASN d   1      -0.469  41.235  35.308  0.00  0.00     0.036 C 
ATOM    111  H28 ASN d   1      -0.266  40.283  34.795  0.00  0.00     0.051 H 
ATOM    112  H29 ASN d   1       0.448  41.843  35.330  0.00  0.00     0.051 H 
BRANCH 110 113
ATOM    113  CG  ASN d   1      -1.547  41.999  34.520  0.00  0.00     0.217 C 
ATOM    114  OD1 ASN d   1      -2.713  41.611  34.511  0.00  0.00    -0.274 OA
ATOM    115  ND2 ASN d   1      -1.146  43.071  33.845  0.00  0.00    -0.370 N 
ATOM    116  H30 ASN d   1      -1.806  43.604  33.316  0.00  0.00     0.159 HD
ATOM    117  H31 ASN d   1      -0.184  43.344  33.866  0.00  0.00     0.159 HD
ENDBRANCH 110 113
ENDBRANCH   1 110
TORSDOF 31
