REMARK  9 active torsions:
REMARK  status: ('A' for Active; 'I' for Inactive)
REMARK    1  A    between atoms: NBB_6  and  CBA_7 
REMARK    2  A    between atoms: CAS_9  and  OAT_10 
REMARK    3  A    between atoms: OAT_10  and  CAU_11 
REMARK    4  A    between atoms: CAL_14  and  NAH_15 
REMARK    5  A    between atoms: NAH_15  and  C2_16 
REMARK    6  A    between atoms: C4_22  and  NAE_23 
REMARK    7  A    between atoms: NAE_23  and  CAJ_24 
REMARK    8  A    between atoms: CAP_29  and  CAO_30 
REMARK       I    between atoms: CAO_30  and  NAN_32 
REMARK    9  A    between atoms: NAN_32  and  CAM_33 
ROOT
ATOM      1  NAH BI9 d   1       5.923   1.244  27.965  0.00  0.00    -0.185 N 
ATOM      2  H15 BI9 d   1       4.938   0.944  27.990  0.00  0.00     0.184 HD
ENDROOT
BRANCH   1   3
ATOM      3  CAL BI9 d   1       6.814   0.468  28.608  0.00  0.00     0.082 A 
ATOM      4  CAS BI9 d   1       6.397  -0.113  29.800  0.00  0.00     0.097 A 
ATOM      5  CAY BI9 d   1       7.279  -0.935  30.531  0.00  0.00    -0.023 A 
ATOM      6  CBA BI9 d   1       8.574  -1.203  30.072  0.00  0.00     0.033 A 
ATOM      7  H9  BI9 d   1       6.947  -1.368  31.468  0.00  0.00     0.091 H 
ATOM      8  CAX BI9 d   1       8.997  -0.606  28.874  0.00  0.00    -0.055 A 
ATOM      9  CAR BI9 d   1       8.116   0.204  28.147  0.00  0.00    -0.052 A 
ATOM     10  H13 BI9 d   1      10.005  -0.772  28.512  0.00  0.00     0.087 H 
ATOM     11  H14 BI9 d   1       8.445   0.637  27.209  0.00  0.00     0.087 H 
BRANCH   4  12
ATOM     12  OAT BI9 d   1       5.128   0.166  30.202  0.00  0.00    -0.354 OA
BRANCH  12  13
ATOM     13  CAU BI9 d   1       4.790  -0.560  31.394  0.00  0.00     0.010 C 
ATOM     14  H10 BI9 d   1       3.760  -0.314  31.694  0.00  0.00     0.066 H 
ATOM     15  H11 BI9 d   1       5.483  -0.282  32.202  0.00  0.00     0.066 H 
ATOM     16  H12 BI9 d   1       4.867  -1.640  31.200  0.00  0.00     0.066 H 
ENDBRANCH  12  13
ENDBRANCH   4  12
BRANCH   6  17
ATOM     17  NBB BI9 d   1       9.479  -2.048  30.804  0.00  0.00    -0.377 N 
ATOM     18  CBC BI9 d   1       9.041  -2.719  32.049  0.00  0.00     0.015 C 
ATOM     19  CBE BI9 d   1      10.213  -2.961  33.022  0.00  0.00     0.034 C 
ATOM     20  H1  BI9 d   1       8.291  -2.087  32.547  0.00  0.00     0.067 H 
ATOM     21  H2  BI9 d   1       8.590  -3.688  31.790  0.00  0.00     0.067 H 
ATOM     22  OBG BI9 d   1      11.304  -3.569  32.339  0.00  0.00    -0.388 OA
ATOM     23  H3  BI9 d   1       9.879  -3.623  33.835  0.00  0.00     0.076 H 
ATOM     24  H4  BI9 d   1      10.540  -1.999  33.443  0.00  0.00     0.076 H 
ATOM     25  CBF BI9 d   1      11.866  -2.667  31.390  0.00  0.00     0.034 C 
ATOM     26  CBD BI9 d   1      10.867  -2.228  30.314  0.00  0.00     0.015 C 
ATOM     27  H5  BI9 d   1      12.716  -3.162  30.898  0.00  0.00     0.076 H 
ATOM     28  H6  BI9 d   1      12.221  -1.773  31.924  0.00  0.00     0.076 H 
ATOM     29  H7  BI9 d   1      10.856  -2.992  29.522  0.00  0.00     0.067 H 
ATOM     30  H8  BI9 d   1      11.211  -1.271  29.895  0.00  0.00     0.067 H 
ENDBRANCH   6  17
ENDBRANCH   1   3
BRANCH   1  31
ATOM     31  C2  BI9 d   1       6.201   2.377  27.292  0.00  0.00     0.728 A 
ATOM     32  N3  BI9 d   1       7.454   2.824  27.134  0.00  0.00    -0.043 NA
ATOM     33  C4  BI9 d   1       7.772   3.931  26.416  0.00  0.00     0.170 A 
ATOM     34  C5  BI9 d   1       6.711   4.662  25.879  0.00  0.00     0.098 A 
ATOM     35  C6  BI9 d   1       5.427   4.184  26.074  0.00  0.00     0.046 A 
ATOM     36 CL5  BI9 d   1       6.978   6.121  24.963  0.00  0.00    -0.079 Cl
ATOM     37  N1  BI9 d   1       5.199   3.067  26.755  0.00  0.00    -0.073 NA
ATOM     38  H16 BI9 d   1       4.589   4.734  25.662  0.00  0.00     0.118 H 
BRANCH  33  39
ATOM     39  NAE BI9 d   1       9.049   4.341  26.229  0.00  0.00    -0.338 N 
ATOM     40  H17 BI9 d   1       9.170   5.248  25.756  0.00  0.00     0.167 HD
BRANCH  39  41
ATOM     41  CAJ BI9 d   1      10.186   3.700  26.590  0.00  0.00     0.049 A 
ATOM     42  CAQ BI9 d   1      10.377   3.348  27.943  0.00  0.00    -0.056 A 
ATOM     43  CAW BI9 d   1      11.518   2.695  28.373  0.00  0.00    -0.081 A 
ATOM     44  H18 BI9 d   1       9.608   3.596  28.666  0.00  0.00     0.086 H 
ATOM     45  CAZ BI9 d   1      12.533   2.417  27.457  0.00  0.00    -0.082 A 
ATOM     46  H19 BI9 d   1      11.623   2.402  29.411  0.00  0.00     0.083 H 
ATOM     47  CAV BI9 d   1      12.370   2.774  26.120  0.00  0.00    -0.066 A 
ATOM     48  H20 BI9 d   1      13.443   1.926  27.783  0.00  0.00     0.083 H 
ATOM     49  CAP BI9 d   1      11.210   3.405  25.674  0.00  0.00     0.058 A 
ATOM     50  H21 BI9 d   1      13.162   2.557  25.412  0.00  0.00     0.085 H 
BRANCH  49  51
ATOM     51  CAO BI9 d   1      11.117   3.755  24.183  0.00  0.00     0.253 C 
ATOM     52  OAI BI9 d   1      10.395   4.671  23.818  0.00  0.00    -0.268 OA
ATOM     53  NAN BI9 d   1      11.837   2.988  23.359  0.00  0.00    -0.361 N 
ATOM     54  H22 BI9 d   1      12.373   2.220  23.710  0.00  0.00     0.162 HD
BRANCH  53  55
ATOM     55  CAM BI9 d   1      11.819   3.303  21.924  0.00  0.00    -0.018 C 
ATOM     56  H23 BI9 d   1      12.455   2.587  21.383  0.00  0.00     0.056 H 
ATOM     57  H24 BI9 d   1      12.200   4.323  21.768  0.00  0.00     0.056 H 
ATOM     58  H25 BI9 d   1      10.788   3.235  21.547  0.00  0.00     0.056 H 
ENDBRANCH  53  55
ENDBRANCH  49  51
ENDBRANCH  39  41
ENDBRANCH  33  39
ENDBRANCH   1  31
TORSDOF 9
