REMARK  9 active torsions:
REMARK  status: ('A' for Active; 'I' for Inactive)
REMARK    1  A    between atoms: NBH_3  and  CBI_4 
REMARK    2  A    between atoms: NBC_7  and  CBA_8 
REMARK    3  A    between atoms: CAQ_10  and  OAR_11 
REMARK    4  A    between atoms: OAR_11  and  CAS_12 
REMARK    5  A    between atoms: CAL_15  and  NAH_16 
REMARK    6  A    between atoms: NAH_16  and  C2_17 
REMARK    7  A    between atoms: C4_23  and  NAE_24 
REMARK    8  A    between atoms: NAE_24  and  CAJ_25 
REMARK    9  A    between atoms: NAU_29  and  CAT_30 
ROOT
ATOM      1  CBA BIJ d   1      29.325  21.475  33.252  0.00  0.00     0.033 A 
ATOM      2  CAW BIJ d   1      30.702  21.563  33.032  0.00  0.00    -0.023 A 
ATOM      3  CAQ BIJ d   1      31.539  22.275  33.902  0.00  0.00     0.097 A 
ATOM      4  CAV BIJ d   1      28.792  22.110  34.381  0.00  0.00    -0.055 A 
ATOM      5  CAP BIJ d   1      29.619  22.820  35.258  0.00  0.00    -0.052 A 
ATOM      6  CAL BIJ d   1      30.997  22.918  35.022  0.00  0.00     0.082 A 
ATOM      7  H13 BIJ d   1      31.133  21.069  32.169  0.00  0.00     0.091 H 
ATOM      8  H17 BIJ d   1      27.728  22.051  34.577  0.00  0.00     0.087 H 
ATOM      9  H18 BIJ d   1      29.189  23.300  36.130  0.00  0.00     0.087 H 
ENDROOT
BRANCH   6  10
ATOM     10  NAH BIJ d   1      31.826  23.586  35.848  0.00  0.00    -0.185 N 
ATOM     11  H19 BIJ d   1      32.775  23.201  35.956  0.00  0.00     0.184 HD
BRANCH  10  12
ATOM     12  C2  BIJ d   1      31.548  24.703  36.547  0.00  0.00     0.728 A 
ATOM     13  N3  BIJ d   1      30.289  25.183  36.629  0.00  0.00    -0.043 NA
ATOM     14  C4  BIJ d   1      29.993  26.294  37.334  0.00  0.00     0.170 A 
ATOM     15  C5  BIJ d   1      31.034  26.959  37.986  0.00  0.00     0.098 A 
ATOM     16  C6  BIJ d   1      32.330  26.442  37.892  0.00  0.00     0.046 A 
ATOM     17 CL5  BIJ d   1      30.717  28.393  38.910  0.00  0.00    -0.079 Cl
ATOM     18  N1  BIJ d   1      32.556  25.340  37.183  0.00  0.00    -0.073 NA
ATOM     19  H20 BIJ d   1      33.150  26.939  38.397  0.00  0.00     0.118 H 
BRANCH  14  20
ATOM     20  NAE BIJ d   1      28.727  26.760  37.407  0.00  0.00    -0.338 N 
ATOM     21  H21 BIJ d   1      28.584  27.773  37.532  0.00  0.00     0.167 HD
BRANCH  20  22
ATOM     22  CAJ BIJ d   1      27.642  25.966  37.325  0.00  0.00     0.050 A 
ATOM     23  CAN BIJ d   1      26.808  25.741  38.439  0.00  0.00     0.066 A 
ATOM     24  CAM BIJ d   1      26.842  26.185  39.773  0.00  0.00     0.256 A 
ATOM     25  CAY BIJ d   1      25.689  24.905  38.297  0.00  0.00    -0.022 A 
ATOM     26  OAI BIJ d   1      27.700  26.942  40.235  0.00  0.00    -0.267 OA
ATOM     27  NAU BIJ d   1      25.827  25.681  40.492  0.00  0.00    -0.348 N 
ATOM     28  CAX BIJ d   1      24.979  24.830  39.649  0.00  0.00     0.022 A 
ATOM     29  H25 BIJ d   1      23.955  25.227  39.584  0.00  0.00     0.071 H 
ATOM     30  H26 BIJ d   1      24.949  23.797  40.027  0.00  0.00     0.071 H 
ATOM     31  CBB BIJ d   1      25.396  24.306  37.071  0.00  0.00    -0.074 A 
ATOM     32  CAZ BIJ d   1      26.218  24.533  35.968  0.00  0.00    -0.080 A 
ATOM     33  H27 BIJ d   1      24.528  23.663  36.976  0.00  0.00     0.084 H 
ATOM     34  CAO BIJ d   1      27.331  25.364  36.098  0.00  0.00    -0.056 A 
ATOM     35  H28 BIJ d   1      25.994  24.067  35.015  0.00  0.00     0.083 H 
ATOM     36  H29 BIJ d   1      27.965  25.547  35.238  0.00  0.00     0.086 H 
BRANCH  27  37
ATOM     37  CAT BIJ d   1      25.558  25.942  41.930  0.00  0.00    -0.015 C 
ATOM     38  H22 BIJ d   1      24.658  25.391  42.240  0.00  0.00     0.056 H 
ATOM     39  H23 BIJ d   1      25.400  27.020  42.084  0.00  0.00     0.056 H 
ATOM     40  H24 BIJ d   1      26.417  25.608  42.530  0.00  0.00     0.056 H 
ENDBRANCH  27  37
ENDBRANCH  20  22
ENDBRANCH  14  20
ENDBRANCH  10  12
ENDBRANCH   6  10
BRANCH   3  41
ATOM     41  OAR BIJ d   1      32.887  22.362  33.674  0.00  0.00    -0.354 OA
BRANCH  41  42
ATOM     42  CAS BIJ d   1      33.307  21.874  32.369  0.00  0.00     0.010 C 
ATOM     43  H14 BIJ d   1      34.398  21.981  32.271  0.00  0.00     0.066 H 
ATOM     44  H15 BIJ d   1      32.809  22.459  31.581  0.00  0.00     0.066 H 
ATOM     45  H16 BIJ d   1      33.032  20.814  32.268  0.00  0.00     0.066 H 
ENDBRANCH  41  42
ENDBRANCH   3  41
BRANCH   1  46
ATOM     46  NBC BIJ d   1      28.498  20.739  32.351  0.00  0.00    -0.378 N 
ATOM     47  CBD BIJ d   1      29.145  20.043  31.185  0.00  0.00     0.018 C 
ATOM     48  CBF BIJ d   1      28.156  19.758  30.044  0.00  0.00     0.098 C 
ATOM     49  H1  BIJ d   1      29.954  20.680  30.799  0.00  0.00     0.066 H 
ATOM     50  H2  BIJ d   1      29.565  19.088  31.534  0.00  0.00     0.066 H 
ATOM     51  NBH BIJ d   1      26.913  19.192  30.596  0.00  0.00    -0.072 N 
ATOM     52  H3  BIJ d   1      28.605  19.040  29.342  0.00  0.00     0.078 H 
ATOM     53  H4  BIJ d   1      27.928  20.695  29.515  0.00  0.00     0.078 H 
ATOM     54  CBG BIJ d   1      26.188  20.227  31.364  0.00  0.00     0.098 C 
ATOM     55  H5  BIJ d   1      27.143  18.426  31.209  0.00  0.00     0.279 HD
ATOM     56  CBE BIJ d   1      27.014  20.649  32.607  0.00  0.00     0.018 C 
ATOM     57  H9  BIJ d   1      25.219  19.824  31.692  0.00  0.00     0.078 H 
ATOM     58  H10 BIJ d   1      26.022  21.105  30.723  0.00  0.00     0.078 H 
ATOM     59  H11 BIJ d   1      26.844  19.910  33.404  0.00  0.00     0.066 H 
ATOM     60  H12 BIJ d   1      26.659  21.635  32.940  0.00  0.00     0.066 H 
BRANCH  51  61
ATOM     61  CBI BIJ d   1      26.057  18.696  29.502  0.00  0.00     0.066 C 
ATOM     62  H6  BIJ d   1      25.132  18.275  29.922  0.00  0.00     0.068 H 
ATOM     63  H7  BIJ d   1      26.593  17.916  28.942  0.00  0.00     0.068 H 
ATOM     64  H8  BIJ d   1      25.808  19.527  28.826  0.00  0.00     0.068 H 
ENDBRANCH  51  61
ENDBRANCH   1  46
TORSDOF 9
