REMARK  9 active torsions:
REMARK  status: ('A' for Active; 'I' for Inactive)
REMARK    1  A    between atoms: NBI_6  and  CBH_7 
REMARK    2  A    between atoms: NBC_12  and  CBB_13 
REMARK    3  A    between atoms: NAU_18  and  CAT_19 
REMARK    4  A    between atoms: CAJ_23  and  NAE_24 
REMARK    5  A    between atoms: NAE_24  and  C4_25 
REMARK    6  A    between atoms: C2_31  and  NAH_32 
REMARK    7  A    between atoms: NAH_32  and  CAL_33 
REMARK    8  A    between atoms: CAQ_38  and  OAR_39 
REMARK    9  A    between atoms: OAR_39  and  CAS_40 
ROOT
ATOM      1  CBB VG8 d   1      11.885   1.597  26.248  0.00  0.00     0.039 A 
ATOM      2  CAZ VG8 d   1      11.094   1.912  27.350  0.00  0.00    -0.055 A 
ATOM      3  CAO VG8 d   1      10.073   2.844  27.259  0.00  0.00    -0.054 A 
ATOM      4  CAY VG8 d   1      11.620   2.247  25.040  0.00  0.00     0.004 A 
ATOM      5  CAX VG8 d   1      12.309   2.115  23.676  0.00  0.00     0.024 A 
ATOM      6  NAU VG8 d   1      11.545   3.071  22.875  0.00  0.00    -0.348 N 
ATOM      7  CAM VG8 d   1      10.605   3.652  23.613  0.00  0.00     0.256 A 
ATOM      8  OAI VG8 d   1       9.836   4.500  23.160  0.00  0.00    -0.267 OA
ATOM      9  CAN VG8 d   1      10.600   3.193  24.935  0.00  0.00     0.069 A 
ATOM     10  CAJ VG8 d   1       9.810   3.489  26.056  0.00  0.00     0.050 A 
ATOM     11  H21 VG8 d   1      11.281   1.419  28.297  0.00  0.00     0.087 H 
ATOM     12  H22 VG8 d   1       9.474   3.072  28.133  0.00  0.00     0.087 H 
ATOM     13  H23 VG8 d   1      12.220   1.094  23.277  0.00  0.00     0.071 H 
ATOM     14  H24 VG8 d   1      13.371   2.395  23.733  0.00  0.00     0.071 H 
ENDROOT
BRANCH   1  15
ATOM     15  NBC VG8 d   1      12.903   0.619  26.417  0.00  0.00    -0.380 N 
ATOM     16  CBD VG8 d   1      13.979   0.389  25.411  0.00  0.00    -0.003 C 
ATOM     17  CBF VG8 d   1      14.580  -1.005  25.659  0.00  0.00    -0.023 C 
ATOM     18  H15 VG8 d   1      13.556   0.437  24.396  0.00  0.00     0.064 H 
ATOM     19  H16 VG8 d   1      14.760   1.156  25.520  0.00  0.00     0.064 H 
ATOM     20  CBH VG8 d   1      15.262  -1.041  27.054  0.00  0.00     0.107 C 
ATOM     21  H13 VG8 d   1      13.780  -1.759  25.623  0.00  0.00     0.038 H 
ATOM     22  H14 VG8 d   1      15.326  -1.225  24.881  0.00  0.00     0.038 H 
ATOM     23  CBG VG8 d   1      14.300  -0.535  28.171  0.00  0.00    -0.023 C 
ATOM     24  H12 VG8 d   1      16.102  -0.332  27.008  0.00  0.00     0.084 H 
ATOM     25  CBE VG8 d   1      12.877  -0.228  27.659  0.00  0.00    -0.003 C 
ATOM     26  H17 VG8 d   1      14.721   0.384  28.604  0.00  0.00     0.038 H 
ATOM     27  H18 VG8 d   1      14.231  -1.309  28.950  0.00  0.00     0.038 H 
ATOM     28  H19 VG8 d   1      12.324   0.308  28.444  0.00  0.00     0.064 H 
ATOM     29  H20 VG8 d   1      12.367  -1.176  27.433  0.00  0.00     0.064 H 
BRANCH  20  30
ATOM     30  NBI VG8 d   1      15.850  -2.373  27.410  0.00  0.00    -0.067 N 
ATOM     31  CBJ VG8 d   1      15.225  -3.554  26.741  0.00  0.00     0.084 C 
ATOM     32  CBL VG8 d   1      16.035  -4.854  27.144  0.00  0.00    -0.042 C 
ATOM     33  H1  VG8 d   1      14.179  -3.654  27.067  0.00  0.00     0.076 H 
ATOM     34  H2  VG8 d   1      15.258  -3.421  25.649  0.00  0.00     0.076 H 
ATOM     35  CBN VG8 d   1      16.964  -4.587  28.348  0.00  0.00    -0.062 C 
ATOM     36  H3  VG8 d   1      16.644  -5.177  26.287  0.00  0.00     0.035 H 
ATOM     37  H4  VG8 d   1      15.325  -5.651  27.410  0.00  0.00     0.035 H 
ATOM     38  CBM VG8 d   1      17.969  -3.447  28.044  0.00  0.00    -0.042 C 
ATOM     39  H5  VG8 d   1      17.524  -5.505  28.579  0.00  0.00     0.033 H 
ATOM     40  H6  VG8 d   1      16.352  -4.302  29.216  0.00  0.00     0.033 H 
ATOM     41  CBK VG8 d   1      17.306  -2.369  27.123  0.00  0.00     0.084 C 
ATOM     42  H7  VG8 d   1      18.850  -3.866  27.536  0.00  0.00     0.035 H 
ATOM     43  H8  VG8 d   1      18.280  -2.976  28.988  0.00  0.00     0.035 H 
ATOM     44  H9  VG8 d   1      17.481  -2.619  26.066  0.00  0.00     0.076 H 
ATOM     45  H10 VG8 d   1      17.729  -1.377  27.341  0.00  0.00     0.076 H 
ATOM     46  H11 VG8 d   1      15.724  -2.494  28.403  0.00  0.00     0.280 HD
ENDBRANCH  20  30
ENDBRANCH   1  15
BRANCH  10  47
ATOM     47  NAE VG8 d   1       8.804   4.387  26.022  0.00  0.00    -0.338 N 
ATOM     48  H28 VG8 d   1       9.025   5.391  25.964  0.00  0.00     0.167 HD
BRANCH  47  49
ATOM     49  C4  VG8 d   1       7.511   3.995  26.063  0.00  0.00     0.170 A 
ATOM     50  N3  VG8 d   1       7.160   2.846  26.675  0.00  0.00    -0.043 NA
ATOM     51  C2  VG8 d   1       5.886   2.414  26.730  0.00  0.00     0.728 A 
ATOM     52  N1  VG8 d   1       4.909   3.128  26.167  0.00  0.00    -0.073 NA
ATOM     53  C6  VG8 d   1       5.186   4.272  25.557  0.00  0.00     0.046 A 
ATOM     54  C5  VG8 d   1       6.495   4.750  25.479  0.00  0.00     0.098 A 
ATOM     55  H29 VG8 d   1       4.382   4.846  25.111  0.00  0.00     0.118 H 
ATOM     56 CL5  VG8 d   1       6.822   6.257  24.674  0.00  0.00    -0.079 Cl
BRANCH  51  57
ATOM     57  NAH VG8 d   1       5.576   1.266  27.324  0.00  0.00    -0.185 N 
ATOM     58  H30 VG8 d   1       4.615   0.911  27.215  0.00  0.00     0.184 HD
BRANCH  57  59
ATOM     59  CAL VG8 d   1       6.432   0.542  28.055  0.00  0.00     0.082 A 
ATOM     60  CAP VG8 d   1       7.716   0.249  27.604  0.00  0.00    -0.054 A 
ATOM     61  CAV VG8 d   1       8.586  -0.507  28.386  0.00  0.00    -0.081 A 
ATOM     62  H31 VG8 d   1       8.041   0.612  26.636  0.00  0.00     0.087 H 
ATOM     63  CBA VG8 d   1       8.177  -0.996  29.620  0.00  0.00    -0.080 A 
ATOM     64  H32 VG8 d   1       9.588  -0.715  28.029  0.00  0.00     0.083 H 
ATOM     65  CAW VG8 d   1       6.892  -0.712  30.069  0.00  0.00    -0.049 A 
ATOM     66  H33 VG8 d   1       8.851  -1.591  30.225  0.00  0.00     0.083 H 
ATOM     67  CAQ VG8 d   1       6.020   0.050  29.289  0.00  0.00     0.095 A 
ATOM     68  H34 VG8 d   1       6.564  -1.085  31.033  0.00  0.00     0.087 H 
BRANCH  67  69
ATOM     69  OAR VG8 d   1       4.763   0.321  29.718  0.00  0.00    -0.354 OA
BRANCH  69  70
ATOM     70  CAS VG8 d   1       4.378  -0.687  30.687  0.00  0.00     0.010 C 
ATOM     71  H35 VG8 d   1       3.359  -0.481  31.045  0.00  0.00     0.066 H 
ATOM     72  H36 VG8 d   1       5.077  -0.665  31.536  0.00  0.00     0.066 H 
ATOM     73  H37 VG8 d   1       4.407  -1.680  30.214  0.00  0.00     0.066 H 
ENDBRANCH  69  70
ENDBRANCH  67  69
ENDBRANCH  57  59
ENDBRANCH  51  57
ENDBRANCH  47  49
ENDBRANCH  10  47
BRANCH   6  74
ATOM     74  CAT VG8 d   1      11.775   3.348  21.451  0.00  0.00    -0.015 C 
ATOM     75  H25 VG8 d   1      11.058   4.107  21.105  0.00  0.00     0.056 H 
ATOM     76  H26 VG8 d   1      11.638   2.424  20.871  0.00  0.00     0.056 H 
ATOM     77  H27 VG8 d   1      12.800   3.721  21.311  0.00  0.00     0.056 H 
ENDBRANCH   6  74
TORSDOF 9
