REMARK WARNING: 32 MAX_TORS EXCEEDED!!!
REMARK  51 active torsions:
REMARK  status: ('A' for Active; 'I' for Inactive)
REMARK    1  A    between atoms: N_1  and  CA_2 
REMARK    2  A    between atoms: CA_2  and  C_3 
REMARK    3  A    between atoms: CA_2  and  CB_5 
REMARK       I    between atoms: C_3  and  N_9 
REMARK    4  A    between atoms: CB_5  and  CG_6 
REMARK    5  A    between atoms: CG_6  and  SD_7 
REMARK    6  A    between atoms: SD_7  and  CE_8 
REMARK    7  A    between atoms: N_9  and  CA_10 
REMARK    8  A    between atoms: CA_10  and  CB_11 
REMARK    9  A    between atoms: CA_10  and  C_13 
REMARK   10  A    between atoms: CB_11  and  OG_12 
REMARK       I    between atoms: C_13  and  N_15 
REMARK   11  A    between atoms: N_15  and  CA_16 
REMARK   12  A    between atoms: CA_16  and  C_17 
REMARK   13  A    between atoms: CA_16  and  CB_19 
REMARK       I    between atoms: C_17  and  N_24 
REMARK   14  A    between atoms: CB_19  and  CG_20 
REMARK   15  A    between atoms: CG_20  and  CD_21 
REMARK       I    between atoms: CD_21  and  NE2_23 
REMARK   16  A    between atoms: N_24  and  CA_25 
REMARK   17  A    between atoms: CA_25  and  C_26 
REMARK   18  A    between atoms: CA_25  and  CB_28 
REMARK       I    between atoms: C_26  and  N_32 
REMARK   19  A    between atoms: CB_28  and  CG1_29 
REMARK   20  A    between atoms: CB_28  and  CG2_30 
REMARK   21  A    between atoms: CG1_29  and  CD1_31 
REMARK   22  A    between atoms: N_32  and  CA_33 
REMARK   23  A    between atoms: CA_33  and  C_34 
REMARK   24  A    between atoms: CA_33  and  CB_36 
REMARK       I    between atoms: C_34  and  N_41 
REMARK   25  A    between atoms: CB_36  and  CG_37 
REMARK   26  A    between atoms: CG_37  and  CD_38 
REMARK   27  A    between atoms: CD_38  and  CE_39 
REMARK   28  A    between atoms: CE_39  and  NZ_40 
REMARK   29  A    between atoms: N_41  and  CA_42 
REMARK   30  A    between atoms: CA_42  and  C_43 
REMARK   31  A    between atoms: CA_42  and  CB_45 
REMARK       I    between atoms: C_43  and  N_52 
REMARK   32  A    between atoms: CB_45  and  CG_46 
REMARK   33  A    between atoms: CG_46  and  CD_47 
REMARK   34  A    between atoms: CD_47  and  NE_48 
REMARK       I    between atoms: NE_48  and  CZ_49 
REMARK       I    between atoms: CZ_49  and  NH1_50 
REMARK   35  A    between atoms: N_52  and  CA_53 
REMARK   36  A    between atoms: CA_53  and  C_54 
REMARK   37  A    between atoms: CA_53  and  CB_56 
REMARK       I    between atoms: C_54  and  N_60 
REMARK   38  A    between atoms: CB_56  and  CG_57 
REMARK   39  A    between atoms: CG_57  and  CD1_58 
REMARK   40  A    between atoms: CG_57  and  CD2_59 
REMARK   41  A    between atoms: N_60  and  CA_61 
REMARK   42  A    between atoms: CA_61  and  C_62 
REMARK   43  A    between atoms: CA_61  and  CB_64 
REMARK       I    between atoms: C_62  and  N_68 
REMARK   44  A    between atoms: CB_64  and  CG_65 
REMARK   45  A    between atoms: CG_65  and  CD1_66 
REMARK   46  A    between atoms: CG_65  and  CD2_67 
REMARK   47  A    between atoms: N_68  and  CA_69 
REMARK   48  A    between atoms: CA_69  and  C_70 
REMARK   49  A    between atoms: CA_69  and  CB_72 
REMARK   50  A    between atoms: C_70  and  O_159 
REMARK   51  A    between atoms: CB_72  and  OG_73 
ROOT
ATOM      1  CA  LYS d   1      57.373 -34.456-101.210  0.00  0.00     0.089 C 
ATOM      2  H37 LYS d   1      57.236 -35.414-101.732  0.00  0.00     0.087 H 
ENDROOT
BRANCH   1   3
ATOM      3  N   LYS d   1      58.737 -34.399-100.681  0.00  0.00    -0.346 N 
ATOM      4  C   ILE d   1      59.799 -34.520-101.482  0.00  0.00     0.241 C 
ATOM      5  O   ILE d   1      59.711 -34.725-102.702  0.00  0.00    -0.271 OA
ATOM      6  H36 LYS d   1      58.876 -34.267 -99.700  0.00  0.00     0.163 HD
BRANCH   4   7
ATOM      7  CA  ILE d   1      61.169 -34.386-100.818  0.00  0.00     0.092 C 
ATOM      8  H26 ILE d   1      61.693 -33.560-101.322  0.00  0.00     0.088 H 
BRANCH   7   9
ATOM      9  N   ILE d   1      61.055 -34.016 -99.409  0.00  0.00    -0.346 N 
ATOM     10  C   GLN d   1      61.361 -32.788 -99.003  0.00  0.00     0.241 C 
ATOM     11  O   GLN d   1      61.725 -31.912 -99.782  0.00  0.00    -0.271 OA
ATOM     12  H25 ILE d   1      60.743 -34.694 -98.743  0.00  0.00     0.163 HD
BRANCH  10  13
ATOM     13  CA  GLN d   1      61.241 -32.503 -97.499  0.00  0.00     0.090 C 
ATOM     14  H18 GLN d   1      60.282 -31.991 -97.332  0.00  0.00     0.087 H 
BRANCH  13  15
ATOM     15  N   GLN d   1      61.254 -33.718 -96.716  0.00  0.00    -0.346 N 
ATOM     16  C   SEP d   1      60.174 -34.450 -96.498  0.00  0.00     0.243 C 
ATOM     17  O   SEP d   1      59.078 -34.252 -97.052  0.00  0.00    -0.271 OA
ATOM     18  H17 GLN d   1      62.121 -34.020 -96.320  0.00  0.00     0.163 HD
BRANCH  16  19
ATOM     19  CA  SEP d   1      60.409 -35.595 -95.512  0.00  0.00     0.109 C 
ATOM     20  H13 SEP d   1      61.472 -35.862 -95.609  0.00  0.00     0.090 H 
BRANCH  19  21
ATOM     21  N   SEP d   1      60.216 -35.242 -94.098  0.00  0.00    -0.344 N 
ATOM     22  C   MET d   1      59.591 -34.138 -93.679  0.00  0.00     0.249 C 
ATOM     23  O   MET d   1      58.980 -33.366 -94.431  0.00  0.00    -0.271 OA
ATOM     24  H12 SEP d   1      60.575 -35.868 -93.406  0.00  0.00     0.163 HD
BRANCH  22  25
ATOM     25  CA  MET d   1      59.662 -33.877 -92.167  0.00  0.00     0.176 C 
ATOM     26  H4  MET d   1      59.893 -34.832 -91.672  0.00  0.00     0.099 H 
BRANCH  25  27
ATOM     27  N   MET d   1      60.725 -32.929 -91.825  0.00  0.00    -0.066 N 
ATOM     28  H1  MET d   1      60.739 -32.785 -90.827  0.00  0.00     0.275 HD
ATOM     29  H2  MET d   1      60.554 -32.051 -92.289  0.00  0.00     0.275 HD
ATOM     30  H3  MET d   1      61.614 -33.299 -92.123  0.00  0.00     0.275 HD
ENDBRANCH  25  27
BRANCH  25  31
ATOM     31  CB  MET d   1      58.312 -33.387 -91.643  0.00  0.00    -0.022 C 
ATOM     32  H5  MET d   1      58.380 -33.304 -90.548  0.00  0.00     0.037 H 
ATOM     33  H6  MET d   1      57.550 -34.135 -91.908  0.00  0.00     0.037 H 
BRANCH  31  34
ATOM     34  CG  MET d   1      57.860 -32.031 -92.196  0.00  0.00    -0.021 C 
ATOM     35  H7  MET d   1      57.021 -31.669 -91.583  0.00  0.00     0.049 H 
ATOM     36  H8  MET d   1      57.521 -32.175 -93.233  0.00  0.00     0.049 H 
BRANCH  34  37
ATOM     37  SD  MET d   1      59.156 -30.768 -92.191  0.00  0.00    -0.173 SA
BRANCH  37  38
ATOM     38  CE  MET d   1      58.233 -29.276 -92.578  0.00  0.00    -0.035 C 
ATOM     39  H9  MET d   1      58.920 -28.417 -92.606  0.00  0.00     0.041 H 
ATOM     40  H10 MET d   1      57.467 -29.108 -91.807  0.00  0.00     0.041 H 
ATOM     41  H11 MET d   1      57.748 -29.389 -93.558  0.00  0.00     0.041 H 
ENDBRANCH  37  38
ENDBRANCH  34  37
ENDBRANCH  31  34
ENDBRANCH  25  31
ENDBRANCH  22  25
ENDBRANCH  19  21
BRANCH  19  42
ATOM     42  CB  SEP d   1      59.617 -36.834 -95.909  0.00  0.00     0.044 C 
ATOM     43  H14 SEP d   1      58.672 -36.530 -96.384  0.00  0.00     0.077 H 
ATOM     44  H15 SEP d   1      59.401 -37.434 -95.013  0.00  0.00     0.077 H 
BRANCH  42  45
ATOM     45  OG  SEP d   1      60.379 -37.604 -96.822  0.00  0.00    -0.398 OA
ATOM     46  H16 SEP d   1      59.886 -38.377 -97.071  0.00  0.00     0.209 HD
ENDBRANCH  42  45
ENDBRANCH  19  42
ENDBRANCH  16  19
ENDBRANCH  13  15
BRANCH  13  47
ATOM     47  CB  GLN d   1      62.370 -31.597 -96.989  0.00  0.00    -0.030 C 
ATOM     48  H19 GLN d   1      62.243 -30.595 -97.425  0.00  0.00     0.037 H 
ATOM     49  H20 GLN d   1      63.334 -32.018 -97.312  0.00  0.00     0.037 H 
BRANCH  47  50
ATOM     50  CG  GLN d   1      62.374 -31.472 -95.456  0.00  0.00     0.011 C 
ATOM     51  H21 GLN d   1      62.381 -32.484 -95.024  0.00  0.00     0.047 H 
ATOM     52  H22 GLN d   1      61.458 -30.948 -95.147  0.00  0.00     0.047 H 
BRANCH  50  53
ATOM     53  CD  GLN d   1      63.570 -30.710 -94.913  0.00  0.00     0.215 C 
ATOM     54  OE1 GLN d   1      63.549 -30.226 -93.781  0.00  0.00    -0.274 OA
ATOM     55  NE2 GLN d   1      64.623 -30.605 -95.716  0.00  0.00    -0.370 N 
ATOM     56  H23 GLN d   1      65.438 -30.114 -95.410  0.00  0.00     0.159 HD
ATOM     57  H24 GLN d   1      64.600 -31.017 -96.627  0.00  0.00     0.159 HD
ENDBRANCH  50  53
ENDBRANCH  47  50
ENDBRANCH  13  47
ENDBRANCH  10  13
ENDBRANCH   7   9
BRANCH   7  58
ATOM     58  CB  ILE d   1      62.036 -35.677-101.037  0.00  0.00    -0.030 C 
ATOM     59  H27 ILE d   1      63.070 -35.437-100.750  0.00  0.00     0.043 H 
BRANCH  58  60
ATOM     60  CG1 ILE d   1      62.039 -36.111-102.510  0.00  0.00    -0.063 C 
ATOM     61  H28 ILE d   1      60.996 -36.279-102.817  0.00  0.00     0.033 H 
ATOM     62  H29 ILE d   1      62.600 -37.054-102.585  0.00  0.00     0.033 H 
BRANCH  60  63
ATOM     63  CD1 ILE d   1      62.658 -35.120-103.475  0.00  0.00    -0.076 C 
ATOM     64  H33 ILE d   1      62.610 -35.524-104.497  0.00  0.00     0.027 H 
ATOM     65  H34 ILE d   1      63.708 -34.946-103.198  0.00  0.00     0.027 H 
ATOM     66  H35 ILE d   1      62.105 -34.170-103.430  0.00  0.00     0.027 H 
ENDBRANCH  60  63
ENDBRANCH  58  60
BRANCH  58  67
ATOM     67  CG2 ILE d   1      61.558 -36.841-100.160  0.00  0.00    -0.071 C 
ATOM     68  H30 ILE d   1      61.556 -36.529 -99.105  0.00  0.00     0.028 H 
ATOM     69  H31 ILE d   1      62.235 -37.698-100.287  0.00  0.00     0.028 H 
ATOM     70  H32 ILE d   1      60.540 -37.131-100.458  0.00  0.00     0.028 H 
ENDBRANCH  58  67
ENDBRANCH   7  58
ENDBRANCH   4   7
ENDBRANCH   1   3
BRANCH   1  71
ATOM     71  C   LYS d   1      57.174 -33.322-102.208  0.00  0.00     0.241 C 
ATOM     72  O   LYS d   1      57.568 -32.179-101.941  0.00  0.00    -0.271 OA
ATOM     73  N   ARG d   1      56.585 -33.635-103.361  0.00  0.00    -0.346 N 
ATOM     74  H49 ARG d   1      56.316 -34.583-103.534  0.00  0.00     0.163 HD
BRANCH  73  75
ATOM     75  CA  ARG d   1      56.324 -32.617-104.379  0.00  0.00     0.089 C 
ATOM     76  H50 ARG d   1      57.285 -32.185-104.695  0.00  0.00     0.087 H 
BRANCH  75  77
ATOM     77  C   ARG d   1      55.443 -31.507-103.824  0.00  0.00     0.241 C 
ATOM     78  O   ARG d   1      54.570 -31.754-102.995  0.00  0.00    -0.271 OA
ATOM     79  N   LEU d   1      55.664 -30.283-104.285  0.00  0.00    -0.346 N 
ATOM     80  H62 LEU d   1      56.398 -30.132-104.948  0.00  0.00     0.163 HD
BRANCH  79  81
ATOM     81  CA  LEU d   1      54.854 -29.153-103.841  0.00  0.00     0.089 C 
ATOM     82  H63 LEU d   1      54.615 -29.302-102.778  0.00  0.00     0.087 H 
BRANCH  81  83
ATOM     83  C   LEU d   1      53.555 -29.065-104.615  0.00  0.00     0.241 C 
ATOM     84  O   LEU d   1      52.634 -28.388-104.177  0.00  0.00    -0.271 OA
ATOM     85  N   LEU d   1      53.490 -29.751-105.757  0.00  0.00    -0.346 N 
ATOM     86  H73 LEU d   1      54.277 -30.302-106.036  0.00  0.00     0.163 HD
BRANCH  85  87
ATOM     87  CA  LEU d   1      52.307 -29.724-106.614  0.00  0.00     0.089 C 
ATOM     88  H74 LEU d   1      51.518 -29.184-106.070  0.00  0.00     0.087 H 
BRANCH  87  89
ATOM     89  C   LEU d   1      51.780 -31.112-106.955  0.00  0.00     0.241 C 
ATOM     90  O   LEU d   1      51.686 -31.988-106.092  0.00  0.00    -0.271 OA
ATOM     91  N   SER d   1      51.419 -31.271-108.229  0.00  0.00    -0.343 N 
ATOM     92  H84 SER d   1      51.572 -30.509-108.858  0.00  0.00     0.163 HD
BRANCH  91  93
ATOM     93  CA  SER d   1      50.813 -32.489-108.766  0.00  0.00     0.113 C 
ATOM     94  H85 SER d   1      50.452 -32.256-109.779  0.00  0.00     0.092 H 
BRANCH  93  95
ATOM     95  C   SER d   1      49.607 -32.933-107.948  0.00  0.00     0.165 C 
ATOM     96  O   SER d   1      48.668 -32.157-107.760  0.00  0.00    -0.648 OA
BRANCH  95  97
ATOM     97  O   SER d   1      49.567 -34.160-107.436  0.00  0.00    -0.775 OA
ATOM     98  H89 SER d   1      50.361 -34.626-107.671  0.00  0.00     0.167 HD
ENDBRANCH  95  97
ENDBRANCH  93  95
BRANCH  93  99
ATOM     99  CB  SER d   1      51.847 -33.611-108.896  0.00  0.00     0.045 C 
ATOM    100  H86 SER d   1      51.340 -34.533-109.217  0.00  0.00     0.077 H 
ATOM    101  H87 SER d   1      52.324 -33.776-107.919  0.00  0.00     0.077 H 
BRANCH  99 102
ATOM    102  OG  SER d   1      52.844 -33.271-109.850  0.00  0.00    -0.398 OA
ATOM    103  H88 SER d   1      53.474 -33.979-109.915  0.00  0.00     0.209 HD
ENDBRANCH  99 102
ENDBRANCH  93  99
ENDBRANCH  91  93
ENDBRANCH  87  89
BRANCH  87 104
ATOM    104  CB  LEU d   1      52.588 -28.980-107.924  0.00  0.00    -0.035 C 
ATOM    105  H75 LEU d   1      51.761 -29.221-108.608  0.00  0.00     0.037 H 
ATOM    106  H76 LEU d   1      53.527 -29.390-108.325  0.00  0.00     0.037 H 
BRANCH 104 107
ATOM    107  CG  LEU d   1      52.734 -27.466-107.933  0.00  0.00    -0.059 C 
ATOM    108  H77 LEU d   1      53.766 -27.210-107.651  0.00  0.00     0.038 H 
BRANCH 107 109
ATOM    109  CD1 LEU d   1      52.467 -26.951-109.333  0.00  0.00    -0.073 C 
ATOM    110  H78 LEU d   1      52.571 -25.856-109.347  0.00  0.00     0.028 H 
ATOM    111  H79 LEU d   1      51.446 -27.226-109.636  0.00  0.00     0.028 H 
ATOM    112  H80 LEU d   1      53.190 -27.397-110.032  0.00  0.00     0.028 H 
ENDBRANCH 107 109
BRANCH 107 113
ATOM    113  CD2 LEU d   1      51.788 -26.813-106.938  0.00  0.00    -0.073 C 
ATOM    114  H81 LEU d   1      51.995 -27.198-105.928  0.00  0.00     0.028 H 
ATOM    115  H82 LEU d   1      50.749 -27.046-107.213  0.00  0.00     0.028 H 
ATOM    116  H83 LEU d   1      51.936 -25.723-106.953  0.00  0.00     0.028 H 
ENDBRANCH 107 113
ENDBRANCH 104 107
ENDBRANCH  87 104
ENDBRANCH  85  87
ENDBRANCH  81  83
BRANCH  81 117
ATOM    117  CB  LEU d   1      55.617 -27.841-103.986  0.00  0.00    -0.035 C 
ATOM    118  H64 LEU d   1      54.974 -27.035-103.602  0.00  0.00     0.037 H 
ATOM    119  H65 LEU d   1      55.806 -27.680-105.058  0.00  0.00     0.037 H 
BRANCH 117 120
ATOM    120  CG  LEU d   1      56.953 -27.754-103.261  0.00  0.00    -0.059 C 
ATOM    121  H66 LEU d   1      57.743 -28.183-103.895  0.00  0.00     0.038 H 
BRANCH 120 122
ATOM    122  CD1 LEU d   1      57.263 -26.310-102.976  0.00  0.00    -0.073 C 
ATOM    123  H67 LEU d   1      58.227 -26.239-102.452  0.00  0.00     0.028 H 
ATOM    124  H68 LEU d   1      56.470 -25.882-102.345  0.00  0.00     0.028 H 
ATOM    125  H69 LEU d   1      57.318 -25.753-103.923  0.00  0.00     0.028 H 
ENDBRANCH 120 122
BRANCH 120 126
ATOM    126  CD2 LEU d   1      56.882 -28.516-101.967  0.00  0.00    -0.073 C 
ATOM    127  H70 LEU d   1      56.655 -29.572-102.175  0.00  0.00     0.028 H 
ATOM    128  H71 LEU d   1      56.091 -28.089-101.333  0.00  0.00     0.028 H 
ATOM    129  H72 LEU d   1      57.848 -28.444-101.446  0.00  0.00     0.028 H 
ENDBRANCH 120 126
ENDBRANCH 117 120
ENDBRANCH  81 117
ENDBRANCH  79  81
ENDBRANCH  75  77
BRANCH  75 130
ATOM    130  CB  ARG d   1      55.636 -33.228-105.591  0.00  0.00    -0.036 C 
ATOM    131  H51 ARG d   1      55.316 -32.407-106.249  0.00  0.00     0.036 H 
ATOM    132  H52 ARG d   1      54.753 -33.781-105.238  0.00  0.00     0.036 H 
BRANCH 130 133
ATOM    133  CG  ARG d   1      56.480 -34.172-106.403  0.00  0.00    -0.048 C 
ATOM    134  H53 ARG d   1      56.980 -34.889-105.735  0.00  0.00     0.035 H 
ATOM    135  H54 ARG d   1      57.237 -33.603-106.963  0.00  0.00     0.035 H 
BRANCH 133 136
ATOM    136  CD  ARG d   1      55.589 -34.913-107.366  0.00  0.00     0.009 C 
ATOM    137  H55 ARG d   1      54.996 -34.180-107.933  0.00  0.00     0.064 H 
ATOM    138  H56 ARG d   1      54.915 -35.565-106.792  0.00  0.00     0.064 H 
BRANCH 136 139
ATOM    139  NE  ARG d   1      56.341 -35.732-108.307  0.00  0.00    -0.227 N 
ATOM    140  CZ  ARG d   1      55.783 -36.635-109.108  0.00  0.00     0.665 C 
ATOM    141  NH1 ARG d   1      54.473 -36.831-109.081  0.00  0.00    -0.235 N 
ATOM    142  NH2 ARG d   1      56.531 -37.344-109.935  0.00  0.00    -0.235 N 
ATOM    143  H58 ARG d   1      54.044 -37.531-109.703  0.00  0.00     0.174 HD
ATOM    144  H59 ARG d   1      53.883 -36.283-108.438  0.00  0.00     0.174 HD
ATOM    145  H60 ARG d   1      57.550 -37.197-109.962  0.00  0.00     0.174 HD
ATOM    146  H61 ARG d   1      56.095 -38.043-110.553  0.00  0.00     0.174 HD
ATOM    147  H57 ARG d   1      57.362 -35.605-108.355  0.00  0.00     0.177 HD
ENDBRANCH 136 139
ENDBRANCH 133 136
ENDBRANCH 130 133
ENDBRANCH  75 130
ENDBRANCH  73  75
ENDBRANCH   1  71
BRANCH   1 148
ATOM    148  CB  LYS d   1      56.345 -34.372-100.072  0.00  0.00    -0.038 C 
ATOM    149  H38 LYS d   1      56.449 -33.386 -99.594  0.00  0.00     0.036 H 
ATOM    150  H39 LYS d   1      56.583 -35.160 -99.342  0.00  0.00     0.036 H 
BRANCH 148 151
ATOM    151  CG  LYS d   1      54.870 -34.543-100.490  0.00  0.00    -0.061 C 
ATOM    152  H40 LYS d   1      54.807 -35.286-101.299  0.00  0.00     0.033 H 
ATOM    153  H41 LYS d   1      54.482 -33.578-100.848  0.00  0.00     0.033 H 
BRANCH 151 154
ATOM    154  CD  LYS d   1      54.025 -35.017 -99.305  0.00  0.00    -0.043 C 
ATOM    155  H42 LYS d   1      53.022 -35.289 -99.664  0.00  0.00     0.035 H 
ATOM    156  H43 LYS d   1      53.943 -34.201 -98.571  0.00  0.00     0.035 H 
BRANCH 154 157
ATOM    157  CE  LYS d   1      54.671 -36.246 -98.626  0.00  0.00     0.080 C 
ATOM    158  H44 LYS d   1      55.647 -35.945 -98.218  0.00  0.00     0.075 H 
ATOM    159  H45 LYS d   1      54.817 -37.027 -99.387  0.00  0.00     0.075 H 
BRANCH 157 160
ATOM    160  NZ  LYS d   1      53.853 -36.814 -97.519  0.00  0.00    -0.079 N 
ATOM    161  H46 LYS d   1      54.330 -37.608 -97.122  0.00  0.00     0.274 HD
ATOM    162  H47 LYS d   1      52.957 -37.105 -97.878  0.00  0.00     0.274 HD
ATOM    163  H48 LYS d   1      53.718 -36.113 -96.807  0.00  0.00     0.274 HD
ENDBRANCH 157 160
ENDBRANCH 154 157
ENDBRANCH 151 154
ENDBRANCH 148 151
ENDBRANCH   1 148
TORSDOF 51
