REMARK WARNING: 32 MAX_TORS EXCEEDED!!!
REMARK  51 active torsions:
REMARK  status: ('A' for Active; 'I' for Inactive)
REMARK    1  A    between atoms: N_1  and  CA_2 
REMARK    2  A    between atoms: CA_2  and  C_3 
REMARK    3  A    between atoms: CA_2  and  CB_5 
REMARK       I    between atoms: C_3  and  N_9 
REMARK    4  A    between atoms: CB_5  and  CG_6 
REMARK    5  A    between atoms: CG_6  and  SD_7 
REMARK    6  A    between atoms: SD_7  and  CE_8 
REMARK    7  A    between atoms: N_9  and  CA_10 
REMARK    8  A    between atoms: CA_10  and  CB_11 
REMARK    9  A    between atoms: CA_10  and  C_13 
REMARK   10  A    between atoms: CB_11  and  OG_12 
REMARK       I    between atoms: C_13  and  N_15 
REMARK   11  A    between atoms: N_15  and  CA_16 
REMARK   12  A    between atoms: CA_16  and  C_17 
REMARK   13  A    between atoms: CA_16  and  CB_19 
REMARK       I    between atoms: C_17  and  N_24 
REMARK   14  A    between atoms: CB_19  and  CG_20 
REMARK   15  A    between atoms: CG_20  and  CD_21 
REMARK   16  A    between atoms: N_24  and  CA_25 
REMARK   17  A    between atoms: CA_25  and  C_26 
REMARK   18  A    between atoms: CA_25  and  CB_28 
REMARK       I    between atoms: C_26  and  N_32 
REMARK   19  A    between atoms: CB_28  and  CG1_29 
REMARK   20  A    between atoms: CB_28  and  CG2_30 
REMARK   21  A    between atoms: CG1_29  and  CD1_31 
REMARK   22  A    between atoms: N_32  and  CA_33 
REMARK   23  A    between atoms: CA_33  and  C_34 
REMARK   24  A    between atoms: CA_33  and  CB_36 
REMARK       I    between atoms: C_34  and  N_41 
REMARK   25  A    between atoms: CB_36  and  CG_37 
REMARK   26  A    between atoms: CG_37  and  CD_38 
REMARK   27  A    between atoms: CD_38  and  CE_39 
REMARK   28  A    between atoms: CE_39  and  NZ_40 
REMARK   29  A    between atoms: N_41  and  CA_42 
REMARK   30  A    between atoms: CA_42  and  C_43 
REMARK   31  A    between atoms: CA_42  and  CB_45 
REMARK       I    between atoms: C_43  and  N_52 
REMARK   32  A    between atoms: CB_45  and  CG_46 
REMARK   33  A    between atoms: CG_46  and  CD_47 
REMARK   34  A    between atoms: CD_47  and  NE_48 
REMARK       I    between atoms: NE_48  and  CZ_49 
REMARK       I    between atoms: CZ_49  and  NH1_50 
REMARK   35  A    between atoms: N_52  and  CA_53 
REMARK   36  A    between atoms: CA_53  and  C_54 
REMARK   37  A    between atoms: CA_53  and  CB_56 
REMARK       I    between atoms: C_54  and  N_60 
REMARK   38  A    between atoms: CB_56  and  CG_57 
REMARK   39  A    between atoms: CG_57  and  CD1_58 
REMARK   40  A    between atoms: CG_57  and  CD2_59 
REMARK   41  A    between atoms: N_60  and  CA_61 
REMARK   42  A    between atoms: CA_61  and  C_62 
REMARK   43  A    between atoms: CA_61  and  CB_64 
REMARK       I    between atoms: C_62  and  N_68 
REMARK   44  A    between atoms: CB_64  and  CG_65 
REMARK   45  A    between atoms: CG_65  and  CD1_66 
REMARK   46  A    between atoms: CG_65  and  CD2_67 
REMARK   47  A    between atoms: N_68  and  CA_69 
REMARK   48  A    between atoms: CA_69  and  C_70 
REMARK   49  A    between atoms: CA_69  and  CB_72 
REMARK   50  A    between atoms: C_70  and  O_157 
REMARK   51  A    between atoms: CB_72  and  OG_73 
ROOT
ATOM      1  CA  LYS d   1      57.790 -34.650-102.059  0.00  0.00     0.089 C 
ATOM      2  H35 LYS d   1      57.740 -35.596-102.618  0.00  0.00     0.087 H 
ENDROOT
BRANCH   1   3
ATOM      3  N   LYS d   1      59.123 -34.517-101.478  0.00  0.00    -0.346 N 
ATOM      4  C   ILE d   1      60.204 -34.623-102.243  0.00  0.00     0.241 C 
ATOM      5  O   ILE d   1      60.133 -34.854-103.453  0.00  0.00    -0.271 OA
ATOM      6  H34 LYS d   1      59.223 -34.345-100.498  0.00  0.00     0.163 HD
BRANCH   4   7
ATOM      7  CA  ILE d   1      61.560 -34.400-101.551  0.00  0.00     0.092 C 
ATOM      8  H24 ILE d   1      62.019 -33.531-102.045  0.00  0.00     0.088 H 
BRANCH   7   9
ATOM      9  N   ILE d   1      61.419 -34.055-100.142  0.00  0.00    -0.346 N 
ATOM     10  C   GLU d   1      61.630 -32.811 -99.741  0.00  0.00     0.241 C 
ATOM     11  O   GLU d   1      61.893 -31.907-100.533  0.00  0.00    -0.271 OA
ATOM     12  H23 ILE d   1      61.163 -34.758 -99.478  0.00  0.00     0.163 HD
BRANCH  10  13
ATOM     13  CA  GLU d   1      61.522 -32.543 -98.238  0.00  0.00     0.090 C 
ATOM     14  H18 GLU d   1      60.561 -32.037 -98.067  0.00  0.00     0.087 H 
BRANCH  13  15
ATOM     15  N   GLU d   1      61.528 -33.758 -97.451  0.00  0.00    -0.346 N 
ATOM     16  C   SEP d   1      60.466 -34.544 -97.375  0.00  0.00     0.243 C 
ATOM     17  O   SEP d   1      59.475 -34.406 -98.095  0.00  0.00    -0.271 OA
ATOM     18  H17 GLU d   1      62.357 -34.010 -96.951  0.00  0.00     0.163 HD
BRANCH  16  19
ATOM     19  CA  SEP d   1      60.575 -35.681 -96.353  0.00  0.00     0.109 C 
ATOM     20  H13 SEP d   1      61.632 -35.984 -96.354  0.00  0.00     0.090 H 
BRANCH  19  21
ATOM     21  N   SEP d   1      60.270 -35.306 -94.957  0.00  0.00    -0.344 N 
ATOM     22  C   MET d   1      59.641 -34.186 -94.587  0.00  0.00     0.249 C 
ATOM     23  O   MET d   1      59.118 -33.399 -95.383  0.00  0.00    -0.271 OA
ATOM     24  H12 SEP d   1      60.555 -35.937 -94.235  0.00  0.00     0.163 HD
BRANCH  22  25
ATOM     25  CA  MET d   1      59.596 -33.929 -93.072  0.00  0.00     0.176 C 
ATOM     26  H4  MET d   1      59.695 -34.903 -92.570  0.00  0.00     0.099 H 
BRANCH  25  27
ATOM     27  N   MET d   1      60.711 -33.092 -92.635  0.00  0.00    -0.066 N 
ATOM     28  H1  MET d   1      60.650 -32.944 -91.640  0.00  0.00     0.275 HD
ATOM     29  H2  MET d   1      60.670 -32.204 -93.110  0.00  0.00     0.275 HD
ATOM     30  H3  MET d   1      61.581 -33.551 -92.854  0.00  0.00     0.275 HD
ENDBRANCH  25  27
BRANCH  25  31
ATOM     31  CB  MET d   1      58.255 -33.320 -92.640  0.00  0.00    -0.022 C 
ATOM     32  H5  MET d   1      58.276 -33.193 -91.548  0.00  0.00     0.037 H 
ATOM     33  H6  MET d   1      57.458 -34.028 -92.911  0.00  0.00     0.037 H 
BRANCH  31  34
ATOM     34  CG  MET d   1      57.917 -31.968 -93.265  0.00  0.00    -0.021 C 
ATOM     35  H7  MET d   1      56.939 -31.645 -92.878  0.00  0.00     0.049 H 
ATOM     36  H8  MET d   1      57.855 -32.100 -94.355  0.00  0.00     0.049 H 
BRANCH  34  37
ATOM     37  SD  MET d   1      59.116 -30.664 -92.923  0.00  0.00    -0.173 SA
BRANCH  37  38
ATOM     38  CE  MET d   1      58.274 -29.244 -93.613  0.00  0.00    -0.035 C 
ATOM     39  H9  MET d   1      58.897 -28.347 -93.478  0.00  0.00     0.041 H 
ATOM     40  H10 MET d   1      57.312 -29.103 -93.099  0.00  0.00     0.041 H 
ATOM     41  H11 MET d   1      58.096 -29.409 -94.686  0.00  0.00     0.041 H 
ENDBRANCH  37  38
ENDBRANCH  34  37
ENDBRANCH  31  34
ENDBRANCH  25  31
ENDBRANCH  22  25
ENDBRANCH  19  21
BRANCH  19  42
ATOM     42  CB  SEP d   1      59.771 -36.907 -96.804  0.00  0.00     0.044 C 
ATOM     43  H14 SEP d   1      58.832 -36.573 -97.270  0.00  0.00     0.077 H 
ATOM     44  H15 SEP d   1      59.543 -37.533 -95.929  0.00  0.00     0.077 H 
BRANCH  42  45
ATOM     45  OG  SEP d   1      60.516 -37.671 -97.745  0.00  0.00    -0.398 OA
ATOM     46  H16 SEP d   1      60.005 -38.425 -98.014  0.00  0.00     0.209 HD
ENDBRANCH  42  45
ENDBRANCH  19  42
ENDBRANCH  16  19
ENDBRANCH  13  15
BRANCH  13  47
ATOM     47  CB  GLU d   1      62.636 -31.620 -97.737  0.00  0.00    -0.029 C 
ATOM     48  H19 GLU d   1      62.622 -30.695 -98.332  0.00  0.00     0.037 H 
ATOM     49  H20 GLU d   1      63.602 -32.128 -97.871  0.00  0.00     0.037 H 
BRANCH  47  50
ATOM     50  CG  GLU d   1      62.474 -31.255 -96.259  0.00  0.00     0.018 C 
ATOM     51  H21 GLU d   1      62.587 -32.170 -95.660  0.00  0.00     0.049 H 
ATOM     52  H22 GLU d   1      61.465 -30.842 -96.111  0.00  0.00     0.049 H 
BRANCH  50  53
ATOM     53  CD  GLU d   1      63.489 -30.232 -95.772  0.00  0.00     0.172 C 
ATOM     54  OE1 GLU d   1      64.363 -29.827 -96.565  0.00  0.00    -0.648 OA
ATOM     55  OE2 GLU d   1      63.417 -29.837 -94.588  0.00  0.00    -0.648 OA
ENDBRANCH  50  53
ENDBRANCH  47  50
ENDBRANCH  13  47
ENDBRANCH  10  13
ENDBRANCH   7   9
BRANCH   7  56
ATOM     56  CB  ILE d   1      62.542 -35.582-101.734  0.00  0.00    -0.030 C 
ATOM     57  H25 ILE d   1      63.565 -35.188-101.644  0.00  0.00     0.043 H 
BRANCH  56  58
ATOM     58  CG1 ILE d   1      62.406 -36.217-103.118  0.00  0.00    -0.063 C 
ATOM     59  H26 ILE d   1      61.364 -36.545-103.245  0.00  0.00     0.033 H 
ATOM     60  H27 ILE d   1      63.074 -37.090-103.163  0.00  0.00     0.033 H 
BRANCH  58  61
ATOM     61  CD1 ILE d   1      62.757 -35.288-104.273  0.00  0.00    -0.076 C 
ATOM     62  H31 ILE d   1      62.632 -35.824-105.225  0.00  0.00     0.027 H 
ATOM     63  H32 ILE d   1      63.801 -34.957-104.173  0.00  0.00     0.027 H 
ATOM     64  H33 ILE d   1      62.091 -34.413-104.255  0.00  0.00     0.027 H 
ENDBRANCH  58  61
ENDBRANCH  56  58
BRANCH  56  65
ATOM     65  CG2 ILE d   1      62.339 -36.614-100.638  0.00  0.00    -0.071 C 
ATOM     66  H28 ILE d   1      62.442 -36.130 -99.655  0.00  0.00     0.028 H 
ATOM     67  H29 ILE d   1      63.094 -37.408-100.737  0.00  0.00     0.028 H 
ATOM     68  H30 ILE d   1      61.334 -37.051-100.728  0.00  0.00     0.028 H 
ENDBRANCH  56  65
ENDBRANCH   7  56
ENDBRANCH   4   7
ENDBRANCH   1   3
BRANCH   1  69
ATOM     69  C   LYS d   1      57.557 -33.497-103.023  0.00  0.00     0.241 C 
ATOM     70  O   LYS d   1      57.892 -32.346-102.720  0.00  0.00    -0.271 OA
ATOM     71  N   ARG d   1      57.001 -33.811-104.189  0.00  0.00    -0.346 N 
ATOM     72  H47 ARG d   1      56.783 -34.767-104.387  0.00  0.00     0.163 HD
BRANCH  71  73
ATOM     73  CA  ARG d   1      56.704 -32.791-105.181  0.00  0.00     0.089 C 
ATOM     74  H48 ARG d   1      57.652 -32.375-105.553  0.00  0.00     0.087 H 
BRANCH  73  75
ATOM     75  C   ARG d   1      55.869 -31.670-104.581  0.00  0.00     0.241 C 
ATOM     76  O   ARG d   1      55.068 -31.901-103.671  0.00  0.00    -0.271 OA
ATOM     77  N   LEU d   1      56.047 -30.459-105.105  0.00  0.00    -0.346 N 
ATOM     78  H60 LEU d   1      56.770 -30.319-105.781  0.00  0.00     0.163 HD
BRANCH  77  79
ATOM     79  CA  LEU d   1      55.209 -29.336-104.713  0.00  0.00     0.089 C 
ATOM     80  H61 LEU d   1      55.005 -29.425-103.636  0.00  0.00     0.087 H 
BRANCH  79  81
ATOM     81  C   LEU d   1      53.867 -29.342-105.449  0.00  0.00     0.241 C 
ATOM     82  O   LEU d   1      52.907 -28.704-105.003  0.00  0.00    -0.271 OA
ATOM     83  N   LEU d   1      53.796 -30.087-106.554  0.00  0.00    -0.346 N 
ATOM     84  H71 LEU d   1      54.573 -30.666-106.802  0.00  0.00     0.163 HD
BRANCH  83  85
ATOM     85  CA  LEU d   1      52.612 -30.078-107.410  0.00  0.00     0.089 C 
ATOM     86  H72 LEU d   1      51.820 -29.553-106.856  0.00  0.00     0.087 H 
BRANCH  85  87
ATOM     87  C   LEU d   1      52.069 -31.459-107.775  0.00  0.00     0.241 C 
ATOM     88  O   LEU d   1      52.085 -32.393-106.967  0.00  0.00    -0.271 OA
ATOM     89  N   SER d   1      51.558 -31.551-109.001  0.00  0.00    -0.343 N 
ATOM     90  H82 SER d   1      51.574 -30.741-109.587  0.00  0.00     0.163 HD
BRANCH  89  91
ATOM     91  CA  SER d   1      50.977 -32.777-109.528  0.00  0.00     0.113 C 
ATOM     92  H83 SER d   1      50.343 -32.508-110.386  0.00  0.00     0.092 H 
BRANCH  91  93
ATOM     93  C   SER d   1      50.089 -33.467-108.490  0.00  0.00     0.165 C 
ATOM     94  O   SER d   1      48.998 -32.986-108.169  0.00  0.00    -0.648 OA
BRANCH  93  95
ATOM     95  O   SER d   1      50.498 -34.600-107.926  0.00  0.00    -0.775 OA
ATOM     96  H87 SER d   1      50.563 -34.479-106.986  0.00  0.00     0.167 HD
ENDBRANCH  93  95
ENDBRANCH  91  93
BRANCH  91  97
ATOM     97  CB  SER d   1      52.075 -33.725-110.032  0.00  0.00     0.045 C 
ATOM     98  H84 SER d   1      51.612 -34.673-110.343  0.00  0.00     0.077 H 
ATOM     99  H85 SER d   1      52.785 -33.915-109.213  0.00  0.00     0.077 H 
BRANCH  97 100
ATOM    100  OG  SER d   1      52.784 -33.175-111.138  0.00  0.00    -0.398 OA
ATOM    101  H86 SER d   1      53.452 -33.788-111.421  0.00  0.00     0.209 HD
ENDBRANCH  97 100
ENDBRANCH  91  97
ENDBRANCH  89  91
ENDBRANCH  85  87
BRANCH  85 102
ATOM    102  CB  LEU d   1      52.891 -29.299-108.694  0.00  0.00    -0.035 C 
ATOM    103  H73 LEU d   1      52.077 -29.535-109.396  0.00  0.00     0.037 H 
ATOM    104  H74 LEU d   1      53.843 -29.675-109.097  0.00  0.00     0.037 H 
BRANCH 102 105
ATOM    105  CG  LEU d   1      53.002 -27.775-108.637  0.00  0.00    -0.059 C 
ATOM    106  H75 LEU d   1      53.929 -27.527-108.100  0.00  0.00     0.038 H 
BRANCH 105 107
ATOM    107  CD1 LEU d   1      53.109 -27.194-110.061  0.00  0.00    -0.073 C 
ATOM    108  H76 LEU d   1      53.188 -26.098-110.005  0.00  0.00     0.028 H 
ATOM    109  H77 LEU d   1      52.213 -27.468-110.637  0.00  0.00     0.028 H 
ATOM    110  H78 LEU d   1      54.002 -27.601-110.557  0.00  0.00     0.028 H 
ENDBRANCH 105 107
BRANCH 105 111
ATOM    111  CD2 LEU d   1      51.835 -27.137-107.867  0.00  0.00    -0.073 C 
ATOM    112  H79 LEU d   1      51.782 -27.569-106.857  0.00  0.00     0.028 H 
ATOM    113  H80 LEU d   1      50.893 -27.334-108.400  0.00  0.00     0.028 H 
ATOM    114  H81 LEU d   1      51.994 -26.051-107.793  0.00  0.00     0.028 H 
ENDBRANCH 105 111
ENDBRANCH 102 105
ENDBRANCH  85 102
ENDBRANCH  83  85
ENDBRANCH  79  81
BRANCH  79 115
ATOM    115  CB  LEU d   1      55.940 -28.019-104.954  0.00  0.00    -0.035 C 
ATOM    116  H62 LEU d   1      55.253 -27.200-104.697  0.00  0.00     0.037 H 
ATOM    117  H63 LEU d   1      56.192 -27.964-106.023  0.00  0.00     0.037 H 
BRANCH 115 118
ATOM    118  CG  LEU d   1      57.229 -27.818-104.157  0.00  0.00    -0.059 C 
ATOM    119  H64 LEU d   1      58.076 -28.190-104.753  0.00  0.00     0.038 H 
BRANCH 118 120
ATOM    120  CD1 LEU d   1      57.447 -26.339-103.859  0.00  0.00    -0.073 C 
ATOM    121  H65 LEU d   1      58.377 -26.214-103.286  0.00  0.00     0.028 H 
ATOM    122  H66 LEU d   1      56.600 -25.955-103.272  0.00  0.00     0.028 H 
ATOM    123  H67 LEU d   1      57.521 -25.782-104.804  0.00  0.00     0.028 H 
ENDBRANCH 118 120
BRANCH 118 124
ATOM    124  CD2 LEU d   1      57.162 -28.590-102.867  0.00  0.00    -0.073 C 
ATOM    125  H68 LEU d   1      57.005 -29.657-103.086  0.00  0.00     0.028 H 
ATOM    126  H69 LEU d   1      56.327 -28.214-102.257  0.00  0.00     0.028 H 
ATOM    127  H70 LEU d   1      58.105 -28.464-102.315  0.00  0.00     0.028 H 
ENDBRANCH 118 124
ENDBRANCH 115 118
ENDBRANCH  79 115
ENDBRANCH  77  79
ENDBRANCH  73  75
BRANCH  73 128
ATOM    128  CB  ARG d   1      55.930 -33.392-106.342  0.00  0.00    -0.036 C 
ATOM    129  H49 ARG d   1      55.507 -32.568-106.936  0.00  0.00     0.036 H 
ATOM    130  H50 ARG d   1      55.114 -34.004-105.930  0.00  0.00     0.036 H 
BRANCH 128 131
ATOM    131  CG  ARG d   1      56.739 -34.248-107.248  0.00  0.00    -0.048 C 
ATOM    132  H51 ARG d   1      57.312 -34.978-106.658  0.00  0.00     0.035 H 
ATOM    133  H52 ARG d   1      57.431 -33.623-107.831  0.00  0.00     0.035 H 
BRANCH 131 134
ATOM    134  CD  ARG d   1      55.807 -34.961-108.166  0.00  0.00     0.009 C 
ATOM    135  H53 ARG d   1      55.231 -34.216-108.734  0.00  0.00     0.064 H 
ATOM    136  H54 ARG d   1      55.120 -35.575-107.565  0.00  0.00     0.064 H 
BRANCH 134 137
ATOM    137  NE  ARG d   1      56.507 -35.823-109.103  0.00  0.00    -0.227 N 
ATOM    138  CZ  ARG d   1      55.894 -36.726-109.859  0.00  0.00     0.665 C 
ATOM    139  NH1 ARG d   1      54.576 -36.877-109.772  0.00  0.00    -0.235 N 
ATOM    140  NH2 ARG d   1      56.588 -37.479-110.696  0.00  0.00    -0.235 N 
ATOM    141  H56 ARG d   1      54.098 -37.577-110.357  0.00  0.00     0.174 HD
ATOM    142  H57 ARG d   1      54.033 -36.294-109.119  0.00  0.00     0.174 HD
ATOM    143  H58 ARG d   1      57.609 -37.365-110.766  0.00  0.00     0.174 HD
ATOM    144  H59 ARG d   1      56.107 -38.180-111.278  0.00  0.00     0.174 HD
ATOM    145  H55 ARG d   1      57.529 -35.729-109.185  0.00  0.00     0.177 HD
ENDBRANCH 134 137
ENDBRANCH 131 134
ENDBRANCH 128 131
ENDBRANCH  73 128
ENDBRANCH  71  73
ENDBRANCH   1  69
BRANCH   1 146
ATOM    146  CB  LYS d   1      56.713 -34.675-100.968  0.00  0.00    -0.038 C 
ATOM    147  H36 LYS d   1      56.603 -33.655-100.572  0.00  0.00     0.036 H 
ATOM    148  H37 LYS d   1      57.054 -35.345-100.165  0.00  0.00     0.036 H 
BRANCH 146 149
ATOM    149  CG  LYS d   1      55.341 -35.154-101.436  0.00  0.00    -0.061 C 
ATOM    150  H38 LYS d   1      55.465 -36.059-102.049  0.00  0.00     0.033 H 
ATOM    151  H39 LYS d   1      54.870 -34.364-102.040  0.00  0.00     0.033 H 
BRANCH 149 152
ATOM    152  CD  LYS d   1      54.444 -35.475-100.250  0.00  0.00    -0.043 C 
ATOM    153  H40 LYS d   1      53.531 -35.971-100.611  0.00  0.00     0.035 H 
ATOM    154  H41 LYS d   1      54.175 -34.540 -99.737  0.00  0.00     0.035 H 
BRANCH 152 155
ATOM    155  CE  LYS d   1      55.160 -36.397 -99.268  0.00  0.00     0.080 C 
ATOM    156  H42 LYS d   1      55.983 -35.837 -98.799  0.00  0.00     0.075 H 
ATOM    157  H43 LYS d   1      55.569 -37.252 -99.826  0.00  0.00     0.075 H 
BRANCH 155 158
ATOM    158  NZ  LYS d   1      54.268 -36.916 -98.193  0.00  0.00    -0.079 N 
ATOM    159  H44 LYS d   1      54.796 -37.516 -97.579  0.00  0.00     0.274 HD
ATOM    160  H45 LYS d   1      53.513 -37.440 -98.607  0.00  0.00     0.274 HD
ATOM    161  H46 LYS d   1      53.892 -36.143 -97.666  0.00  0.00     0.274 HD
ENDBRANCH 155 158
ENDBRANCH 152 155
ENDBRANCH 149 152
ENDBRANCH 146 149
ENDBRANCH   1 146
TORSDOF 51
