REMARK  6 active torsions:
REMARK  status: ('A' for Active; 'I' for Inactive)
REMARK    1  A    between atoms: C26_1  and  O2_22 
REMARK    2  A    between atoms: C14_28  and  C3_32 
REMARK    3  A    between atoms: C17_31  and  C16_30 
REMARK       I    between atoms: C3_32  and  N4_36 
REMARK    4  A    between atoms: C6_34  and  C10_33 
REMARK    5  A    between atoms: C6_34  and  C7_35 
REMARK    6  A    between atoms: N4_36  and  C6_34 
ROOT
ATOM      1  C26 AG1 d   1      42.032  82.419  36.209  0.00  0.00     0.066 A 
ATOM      2  C25 AG1 d   1      42.356  83.106  34.999  0.00  0.00    -0.049 A 
ATOM      3  C24 AG1 d   1      43.164  82.491  33.992  0.00  0.00    -0.052 A 
ATOM      4  C23 AG1 d   1      43.633  81.182  34.183  0.00  0.00     0.069 A 
ATOM      5  C28 AG1 d   1      43.272  80.522  35.371  0.00  0.00     0.009 A 
ATOM      6  C27 AG1 d   1      42.497  81.108  36.379  0.00  0.00    -0.038 A 
ATOM      7  C22 AG1 d   1      44.497  79.290  34.060  0.00  0.00     0.099 A 
ATOM      8  C29 AG1 d   1      43.869  79.217  35.278  0.00  0.00     0.025 A 
ATOM      9  C40 AG1 d   1      45.225  78.278  33.524  0.00  0.00     0.097 A 
ATOM     10  C34 AG1 d   1      45.372  77.076  34.243  0.00  0.00     0.015 A 
ATOM     11  C33 AG1 d   1      44.716  76.975  35.497  0.00  0.00     0.061 A 
ATOM     12  C30 AG1 d   1      43.972  78.045  36.025  0.00  0.00     0.062 A 
ATOM     13  C31 AG1 d   1      43.496  77.659  37.290  0.00  0.00     0.260 A 
ATOM     14  C38 AG1 d   1      46.504  77.601  31.718  0.00  0.00     0.040 A 
ATOM     15  C37 AG1 d   1      46.690  76.359  32.386  0.00  0.00     0.134 A 
ATOM     16  C36 AG1 d   1      46.142  76.074  33.636  0.00  0.00    -0.031 A 
ATOM     17  C32 AG1 d   1      44.682  75.975  36.488  0.00  0.00     0.260 A 
ATOM     18  F5  AG1 d   1      47.423  75.382  31.790  0.00  0.00    -0.205 F 
ATOM     19  N21 AG1 d   1      45.736  78.552  32.283  0.00  0.00    -0.255 N 
ATOM     20  N19 AG1 d   1      44.318  80.385  33.437  0.00  0.00    -0.245 N 
ATOM     21  N20 AG1 d   1      43.941  76.397  37.573  0.00  0.00    -0.289 N 
ATOM     22  O1  AG1 d   1      45.207  74.884  36.466  0.00  0.00    -0.267 OA
ATOM     23  O41 AG1 d   1      42.774  78.264  38.056  0.00  0.00    -0.267 OA
ATOM     24  C12 AG1 d   1      43.711  79.889  30.520  0.00  0.00     0.279 C 
ATOM     25  O13 AG1 d   1      42.842  79.567  29.952  0.00  0.00    -0.279 OA
ATOM     26  C18 AG1 d   1      46.628  82.146  31.855  0.00  0.00     0.021 A 
ATOM     27  C14 AG1 d   1      45.787  82.358  30.760  0.00  0.00     0.011 C 
ATOM     28  C15 AG1 d   1      46.079  81.383  29.792  0.00  0.00     0.026 A 
ATOM     29  C16 AG1 d   1      47.092  80.573  30.280  0.00  0.00    -0.001 A 
ATOM     30  C17 AG1 d   1      47.427  81.046  31.551  0.00  0.00    -0.025 A 
ATOM     31 RU   AG1 d   1      45.278  80.437  31.610  0.00  0.00     0.000 Ru
ATOM     32  H   AG1 d   1      41.981  84.117  34.840  0.00  0.00     0.087 H 
ATOM     33  H   AG1 d   1      43.414  83.036  33.081  0.00  0.00     0.087 H 
ATOM     34  H   AG1 d   1      42.258  80.551  37.285  0.00  0.00     0.089 H 
ATOM     35  H   AG1 d   1      46.980  77.782  30.754  0.00  0.00     0.119 H 
ATOM     36  H   AG1 d   1      46.306  75.112  34.121  0.00  0.00     0.089 H 
ATOM     37  H   AG1 d   1      43.759  75.867  38.426  0.00  0.00     0.172 HD
ATOM     38  H   AG1 d   1      48.443  80.944  31.932  0.00  0.00     0.043 H 
ENDROOT
BRANCH  27  39
ATOM     39  C3  AG1 d   1      44.780  83.426  30.602  0.00  0.00     0.246 C 
ATOM     40  N4  AG1 d   1      44.037  83.364  29.412  0.00  0.00    -0.343 N 
ATOM     41  H   AG1 d   1      44.239  82.543  28.841  0.00  0.00     0.163 HD
ATOM     42  O9  AG1 d   1      44.645  84.204  31.542  0.00  0.00    -0.268 OA
BRANCH  40  43
ATOM     43  C6  AG1 d   1      43.013  84.267  28.826  0.00  0.00     0.093 C 
ATOM     44  H   AG1 d   1      43.432  84.533  27.856  0.00  0.00     0.089 H 
BRANCH  43  45
ATOM     45  C10 AG1 d   1      41.685  83.764  28.226  0.00  0.00    -0.048 C 
ATOM     46  H   AG1 d   1      41.035  83.414  29.028  0.00  0.00     0.030 H 
ATOM     47  H   AG1 d   1      41.198  84.579  27.691  0.00  0.00     0.030 H 
ATOM     48  H   AG1 d   1      41.887  82.944  27.536  0.00  0.00     0.030 H 
ENDBRANCH  43  45
BRANCH  43  49
ATOM     49  C7  AG1 d   1      42.845  85.431  29.820  0.00  0.00     0.196 C 
ATOM     50  O8  AG1 d   1      42.100  85.155  30.927  0.00  0.00    -0.646 OA
ATOM     51  O11 AG1 d   1      43.387  86.506  29.634  0.00  0.00    -0.646 OA
ENDBRANCH  43  49
ENDBRANCH  40  43
ENDBRANCH  27  39
BRANCH   1  52
ATOM     52  O2  AG1 d   1      41.278  83.001  37.188  0.00  0.00    -0.361 OA
ATOM     53  H   AG1 d   1      41.784  83.034  38.003  0.00  0.00     0.217 HD
ENDBRANCH   1  52
TORSDOF 6
