REMARK  3 active torsions:
REMARK  status: ('A' for Active; 'I' for Inactive)
REMARK    1  A    between atoms: C2_2  and  O5_5 
REMARK    2  A    between atoms: C4_4  and  C10_10 
REMARK    3  A    between atoms: O5_5  and  C11_11 
ROOT
ATOM      1  C11 I15 d   1      -9.703 -12.549  19.113  0.00  0.00     0.079 A 
ATOM      2  C13 I15 d   1     -10.126 -13.871  19.203  0.00  0.00    -0.030 A 
ATOM      3  C14 I15 d   1      -9.444 -11.801  20.292  0.00  0.00    -0.030 A 
ATOM      4  C15 I15 d   1     -10.285 -14.490  20.385  0.00  0.00     0.048 A 
ATOM      5  C16 I15 d   1      -9.622 -12.496  21.487  0.00  0.00     0.048 A 
ATOM      6  C17 I15 d   1      -9.990 -13.829  21.566  0.00  0.00    -0.043 A 
ATOM      7  C18 I15 d   1     -10.634 -15.857  20.348  0.00  0.00     0.099 C 
ATOM      8  C19 I15 d   1      -9.436 -11.798  22.685  0.00  0.00     0.099 C 
ATOM      9  N23 I15 d   1      -9.284 -11.230  23.661  0.00  0.00    -0.191 NA
ATOM     10  N1  I15 d   1     -10.908 -16.937  20.320  0.00  0.00    -0.191 NA
ATOM     11  H7  I15 d   1     -10.334 -14.419  18.291  0.00  0.00     0.090 H 
ATOM     12  H8  I15 d   1      -9.130 -10.764  20.265  0.00  0.00     0.090 H 
ATOM     13  H9  I15 d   1     -10.045 -14.338  22.521  0.00  0.00     0.088 H 
ENDROOT
BRANCH   1  14
ATOM     14  O5  I15 d   1      -9.608 -11.970  17.843  0.00  0.00    -0.307 OA
BRANCH  14  15
ATOM     15  C2  I15 d   1      -8.676 -12.383  16.904  0.00  0.00     0.129 A 
ATOM     16  C1  I15 d   1      -9.151 -12.918  15.694  0.00  0.00     0.055 A 
ATOM     17  C3  I15 d   1      -8.253 -13.366  14.704  0.00  0.00     0.092 A 
ATOM     18  C4  I15 d   1     -10.514 -13.158  15.192  0.00  0.00     0.039 A 
ATOM     19  N7  I15 d   1      -9.112 -13.854  13.678  0.00  0.00    -0.174 NA
ATOM     20  C8  I15 d   1      -6.917 -13.241  14.947  0.00  0.00    -0.050 A 
ATOM     21  N9  I15 d   1     -10.460 -13.718  13.946  0.00  0.00    -0.281 N 
ATOM     22  H2  I15 d   1     -11.251 -13.981  13.340  0.00  0.00     0.189 HD
ATOM     23  C12 I15 d   1      -6.398 -12.691  16.163  0.00  0.00    -0.041 A 
ATOM     24  H1  I15 d   1      -6.218 -13.572  14.187  0.00  0.00     0.087 H 
ATOM     25  C6  I15 d   1      -7.295 -12.234  17.194  0.00  0.00     0.151 A 
ATOM     26  H6  I15 d   1      -5.326 -12.618  16.308  0.00  0.00     0.088 H 
ATOM     27  F1  I15 d   1      -6.870 -11.662  18.439  0.00  0.00    -0.203 F 
BRANCH  18  28
ATOM     28  C10 I15 d   1     -11.713 -12.866  15.962  0.00  0.00    -0.035 C 
ATOM     29  H3  I15 d   1     -11.430 -12.418  16.926  0.00  0.00     0.035 H 
ATOM     30  H4  I15 d   1     -12.270 -13.797  16.140  0.00  0.00     0.035 H 
ATOM     31  H5  I15 d   1     -12.346 -12.162  15.402  0.00  0.00     0.035 H 
ENDBRANCH  18  28
ENDBRANCH  14  15
ENDBRANCH   1  14
TORSDOF 3
