REMARK WARNING: 32 MAX_TORS EXCEEDED!!!
REMARK  50 active torsions:
REMARK  status: ('A' for Active; 'I' for Inactive)
REMARK    1  A    between atoms: N_1  and  CA_2 
REMARK    2  A    between atoms: CA_2  and  C_3 
REMARK    3  A    between atoms: CA_2  and  CB_5 
REMARK       I    between atoms: C_3  and  N_6 
REMARK    4  A    between atoms: N_6  and  CA_7 
REMARK    5  A    between atoms: CA_7  and  C_8 
REMARK    6  A    between atoms: CA_7  and  CB_10 
REMARK       I    between atoms: C_8  and  N_17 
REMARK    7  A    between atoms: CB_10  and  CG_11 
REMARK    8  A    between atoms: CG_11  and  CD_12 
REMARK    9  A    between atoms: CD_12  and  NE_13 
REMARK       I    between atoms: NE_13  and  CZ_14 
REMARK       I    between atoms: CZ_14  and  NH1_15 
REMARK       I    between atoms: CZ_14  and  NH2_16 
REMARK   10  A    between atoms: N_17  and  CA_18 
REMARK   11  A    between atoms: CA_18  and  C_19 
REMARK   12  A    between atoms: CA_18  and  CB_21 
REMARK       I    between atoms: C_19  and  N_24 
REMARK   13  A    between atoms: CB_21  and  OG1_22 
REMARK   14  A    between atoms: CB_21  and  CG2_23 
REMARK   15  A    between atoms: N_24  and  CA_25 
REMARK   16  A    between atoms: CA_25  and  CB_26 
REMARK   17  A    between atoms: CA_25  and  C_31 
REMARK   18  A    between atoms: CB_26  and  CG_27 
REMARK   19  A    between atoms: CG_27  and  CD_28 
REMARK   20  A    between atoms: CD_28  and  CE_29 
REMARK   21  A    between atoms: CE_29  and  NZ_30 
REMARK   22  A    between atoms: NZ_30  and  CM1_33 
REMARK   23  A    between atoms: NZ_30  and  CM2_34 
REMARK   24  A    between atoms: NZ_30  and  CM3_35 
REMARK       I    between atoms: C_31  and  N_36 
REMARK   25  A    between atoms: N_36  and  CA_37 
REMARK   26  A    between atoms: CA_37  and  C_38 
REMARK   27  A    between atoms: CA_37  and  CB_40 
REMARK       I    between atoms: C_38  and  N_45 
REMARK   28  A    between atoms: CB_40  and  CG_41 
REMARK   29  A    between atoms: CG_41  and  CD_42 
REMARK       I    between atoms: CD_42  and  NE2_44 
REMARK   30  A    between atoms: N_45  and  CA_46 
REMARK   31  A    between atoms: CA_46  and  C_47 
REMARK   32  A    between atoms: CA_46  and  CB_49 
REMARK       I    between atoms: C_47  and  N_52 
REMARK   33  A    between atoms: CB_49  and  OG1_50 
REMARK   34  A    between atoms: CB_49  and  CG2_51 
REMARK   35  A    between atoms: N_52  and  CA_53 
REMARK   36  A    between atoms: CA_53  and  C_54 
REMARK   37  A    between atoms: CA_53  and  CB_56 
REMARK       I    between atoms: C_54  and  N_57 
REMARK   38  A    between atoms: N_57  and  CA_58 
REMARK   39  A    between atoms: CA_58  and  C_59 
REMARK   40  A    between atoms: CA_58  and  CB_61 
REMARK       I    between atoms: C_59  and  N_68 
REMARK   41  A    between atoms: CB_61  and  CG_62 
REMARK   42  A    between atoms: CG_62  and  CD_63 
REMARK   43  A    between atoms: CD_63  and  NE_64 
REMARK       I    between atoms: NE_64  and  CZ_65 
REMARK       I    between atoms: CZ_65  and  NH1_66 
REMARK   44  A    between atoms: N_68  and  CA_69 
REMARK   45  A    between atoms: CA_69  and  C_70 
REMARK   46  A    between atoms: CA_69  and  CB_72 
REMARK   47  A    between atoms: CB_72  and  CG_73 
REMARK   48  A    between atoms: CG_73  and  CD_74 
REMARK   49  A    between atoms: CD_74  and  CE_75 
REMARK   50  A    between atoms: CE_75  and  NZ_76 
ROOT
ATOM      1  CA  GLN d   1      -9.233   3.876   5.660  0.00  0.00     0.090 C 
ATOM      2  H48 GLN d   1      -8.823   3.980   4.645  0.00  0.00     0.087 H 
ENDROOT
BRANCH   1   3
ATOM      3  N   GLN d   1      -8.169   4.181   6.611  0.00  0.00    -0.346 N 
ATOM      4  C   M3L d   1      -6.940   4.443   6.177  0.00  0.00     0.241 C 
ATOM      5  O   M3L d   1      -6.641   4.430   4.983  0.00  0.00    -0.271 OA
ATOM      6  H47 GLN d   1      -8.365   4.193   7.592  0.00  0.00     0.163 HD
BRANCH   4   7
ATOM      7  CA  M3L d   1      -5.871   4.684   7.239  0.00  0.00     0.089 C 
ATOM      8  H29 M3L d   1      -6.345   4.721   8.231  0.00  0.00     0.087 H 
BRANCH   7   9
ATOM      9  N   M3L d   1      -4.966   3.547   7.172  0.00  0.00    -0.346 N 
ATOM     10  C   THR d   1      -4.489   2.934   8.247  0.00  0.00     0.243 C 
ATOM     11  O   THR d   1      -4.757   3.256   9.406  0.00  0.00    -0.271 OA
ATOM     12  H28 M3L d   1      -4.690   3.211   6.271  0.00  0.00     0.163 HD
BRANCH  10  13
ATOM     13  CA  THR d   1      -3.616   1.727   7.929  0.00  0.00     0.113 C 
ATOM     14  H22 THR d   1      -3.054   1.941   7.008  0.00  0.00     0.091 H 
BRANCH  13  15
ATOM     15  N   THR d   1      -2.653   1.415   8.980  0.00  0.00    -0.344 N 
ATOM     16  C   ARG d   1      -1.354   1.319   8.693  0.00  0.00     0.241 C 
ATOM     17  O   ARG d   1      -0.911   1.485   7.556  0.00  0.00    -0.271 OA
ATOM     18  H21 THR d   1      -2.968   1.273   9.918  0.00  0.00     0.163 HD
BRANCH  16  19
ATOM     19  CA  ARG d   1      -0.417   0.942   9.834  0.00  0.00     0.089 C 
ATOM     20  H9  ARG d   1      -0.997   0.829  10.761  0.00  0.00     0.087 H 
BRANCH  19  21
ATOM     21  N   ARG d   1       0.226  -0.334   9.511  0.00  0.00    -0.346 N 
ATOM     22  C   ALA d   1      -0.495  -1.444   9.335  0.00  0.00     0.248 C 
ATOM     23  O   ALA d   1      -1.722  -1.468   9.432  0.00  0.00    -0.271 OA
ATOM     24  H8  ARG d   1       1.221  -0.374   9.421  0.00  0.00     0.163 HD
BRANCH  22  25
ATOM     25  CA  ALA d   1       0.281  -2.709   8.980  0.00  0.00     0.172 C 
ATOM     26  H4  ALA d   1       1.320  -2.608   9.326  0.00  0.00     0.098 H 
BRANCH  25  27
ATOM     27  N   ALA d   1      -0.350  -3.886   9.644  0.00  0.00    -0.067 N 
ATOM     28  H1  ALA d   1       0.164  -4.720   9.408  0.00  0.00     0.275 HD
ATOM     29  H2  ALA d   1      -1.303  -3.978   9.329  0.00  0.00     0.275 HD
ATOM     30  H3  ALA d   1      -0.337  -3.755  10.643  0.00  0.00     0.275 HD
ENDBRANCH  25  27
BRANCH  25  31
ATOM     31  CB  ALA d   1       0.268  -2.917   7.462  0.00  0.00    -0.042 C 
ATOM     32  H5  ALA d   1       0.733  -2.050   6.969  0.00  0.00     0.030 H 
ATOM     33  H6  ALA d   1      -0.770  -3.022   7.115  0.00  0.00     0.030 H 
ATOM     34  H7  ALA d   1       0.832  -3.827   7.212  0.00  0.00     0.030 H 
ENDBRANCH  25  31
ENDBRANCH  22  25
ENDBRANCH  19  21
BRANCH  19  35
ATOM     35  CB  ARG d   1       0.630   2.054  10.032  0.00  0.00    -0.036 C 
ATOM     36  H10 ARG d   1       0.330   2.685  10.881  0.00  0.00     0.036 H 
ATOM     37  H11 ARG d   1       0.682   2.667   9.120  0.00  0.00     0.036 H 
BRANCH  35  38
ATOM     38  CG  ARG d   1       2.017   1.453  10.316  0.00  0.00    -0.048 C 
ATOM     39  H12 ARG d   1       1.899   0.476  10.807  0.00  0.00     0.035 H 
ATOM     40  H13 ARG d   1       2.581   2.129  10.976  0.00  0.00     0.035 H 
BRANCH  38  41
ATOM     41  CD  ARG d   1       2.781   1.272   8.998  0.00  0.00     0.009 C 
ATOM     42  H14 ARG d   1       2.800   2.229   8.456  0.00  0.00     0.064 H 
ATOM     43  H15 ARG d   1       2.271   0.514   8.385  0.00  0.00     0.064 H 
BRANCH  41  44
ATOM     44  NE  ARG d   1       4.154   0.838   9.256  0.00  0.00    -0.227 N 
ATOM     45  CZ  ARG d   1       5.182   1.687   9.199  0.00  0.00     0.665 C 
ATOM     46  NH1 ARG d   1       4.985   2.952   8.941  0.00  0.00    -0.235 N 
ATOM     47  NH2 ARG d   1       6.393   1.250   9.409  0.00  0.00    -0.235 N 
ATOM     48  H17 ARG d   1       5.785   3.600   8.899  0.00  0.00     0.174 HD
ATOM     49  H18 ARG d   1       4.030   3.302   8.779  0.00  0.00     0.174 HD
ATOM     50  H19 ARG d   1       6.553   0.253   9.613  0.00  0.00     0.174 HD
ATOM     51  H20 ARG d   1       7.190   1.902   9.371  0.00  0.00     0.174 HD
ATOM     52  H16 ARG d   1       4.332  -0.150   9.488  0.00  0.00     0.177 HD
ENDBRANCH  41  44
ENDBRANCH  38  41
ENDBRANCH  35  38
ENDBRANCH  19  35
ENDBRANCH  16  19
ENDBRANCH  13  15
BRANCH  13  53
ATOM     53  CB  THR d   1      -4.534   0.523   7.684  0.00  0.00     0.060 C 
ATOM     54  H23 THR d   1      -5.130   0.700   6.777  0.00  0.00     0.086 H 
BRANCH  53  55
ATOM     55  OG1 THR d   1      -5.403   0.365   8.797  0.00  0.00    -0.393 OA
ATOM     56  H24 THR d   1      -5.927   1.150   8.902  0.00  0.00     0.210 HD
ENDBRANCH  53  55
BRANCH  53  57
ATOM     57  CG2 THR d   1      -3.704  -0.750   7.500  0.00  0.00    -0.050 C 
ATOM     58  H25 THR d   1      -4.376  -1.603   7.325  0.00  0.00     0.031 H 
ATOM     59  H26 THR d   1      -3.107  -0.932   8.406  0.00  0.00     0.031 H 
ATOM     60  H27 THR d   1      -3.033  -0.629   6.637  0.00  0.00     0.031 H 
ENDBRANCH  53  57
ENDBRANCH  13  53
ENDBRANCH  10  13
ENDBRANCH   7   9
BRANCH   7  61
ATOM     61  CB  M3L d   1      -5.105   6.013   7.010  0.00  0.00    -0.038 C 
ATOM     62  H30 M3L d   1      -4.024   5.816   7.059  0.00  0.00     0.036 H 
ATOM     63  H31 M3L d   1      -5.383   6.727   7.799  0.00  0.00     0.036 H 
BRANCH  61  64
ATOM     64  CG  M3L d   1      -5.440   6.628   5.638  0.00  0.00    -0.061 C 
ATOM     65  H32 M3L d   1      -6.515   6.503   5.441  0.00  0.00     0.033 H 
ATOM     66  H33 M3L d   1      -4.862   6.108   4.860  0.00  0.00     0.033 H 
BRANCH  64  67
ATOM     67  CD  M3L d   1      -5.093   8.126   5.606  0.00  0.00    -0.042 C 
ATOM     68  H34 M3L d   1      -5.761   8.663   6.295  0.00  0.00     0.035 H 
ATOM     69  H35 M3L d   1      -5.238   8.506   4.584  0.00  0.00     0.035 H 
BRANCH  67  70
ATOM     70  CE  M3L d   1      -3.631   8.372   6.030  0.00  0.00     0.084 C 
ATOM     71  H36 M3L d   1      -3.284   7.524   6.639  0.00  0.00     0.076 H 
ATOM     72  H37 M3L d   1      -3.578   9.296   6.625  0.00  0.00     0.076 H 
BRANCH  70  73
ATOM     73  NZ  M3L d   1      -2.743   8.510   4.826  0.00  0.00    -0.079 N 
BRANCH  73  74
ATOM     74  CM1 M3L d   1      -3.189   9.659   3.971  0.00  0.00     0.067 C 
ATOM     75  H38 M3L d   1      -2.527   9.743   3.096  0.00  0.00     0.068 H 
ATOM     76  H39 M3L d   1      -3.145  10.590   4.555  0.00  0.00     0.068 H 
ATOM     77  H40 M3L d   1      -4.222   9.486   3.634  0.00  0.00     0.068 H 
ENDBRANCH  73  74
BRANCH  73  78
ATOM     78  CM2 M3L d   1      -2.784   7.248   4.029  0.00  0.00     0.067 C 
ATOM     79  H41 M3L d   1      -2.457   6.407   4.657  0.00  0.00     0.068 H 
ATOM     80  H42 M3L d   1      -2.114   7.340   3.162  0.00  0.00     0.068 H 
ATOM     81  H43 M3L d   1      -3.812   7.067   3.681  0.00  0.00     0.068 H 
ENDBRANCH  73  78
BRANCH  73  82
ATOM     82  CM3 M3L d   1      -1.342   8.756   5.282  0.00  0.00     0.067 C 
ATOM     83  H44 M3L d   1      -1.306   9.685   5.870  0.00  0.00     0.068 H 
ATOM     84  H45 M3L d   1      -0.683   8.850   4.407  0.00  0.00     0.068 H 
ATOM     85  H46 M3L d   1      -1.006   7.914   5.905  0.00  0.00     0.068 H 
ENDBRANCH  73  82
ENDBRANCH  70  73
ENDBRANCH  67  70
ENDBRANCH  64  67
ENDBRANCH  61  64
ENDBRANCH   7  61
ENDBRANCH   4   7
ENDBRANCH   1   3
BRANCH   1  86
ATOM     86  C   GLN d   1     -10.423   4.823   5.788  0.00  0.00     0.241 C 
ATOM     87  O   GLN d   1     -10.558   5.551   6.772  0.00  0.00    -0.271 OA
ATOM     88  N   THR d   1     -11.286   4.788   4.771  0.00  0.00    -0.344 N 
ATOM     89  H55 THR d   1     -11.108   4.168   4.007  0.00  0.00     0.163 HD
BRANCH  88  90
ATOM     90  CA  THR d   1     -12.482   5.626   4.738  0.00  0.00     0.113 C 
ATOM     91  H56 THR d   1     -12.913   5.673   5.749  0.00  0.00     0.091 H 
BRANCH  90  92
ATOM     92  C   THR d   1     -13.514   5.026   3.781  0.00  0.00     0.243 C 
ATOM     93  O   THR d   1     -14.265   5.752   3.128  0.00  0.00    -0.271 OA
ATOM     94  N   ALA d   1     -13.538   3.694   3.703  0.00  0.00    -0.346 N 
ATOM     95  H62 ALA d   1     -12.901   3.160   4.260  0.00  0.00     0.163 HD
BRANCH  94  96
ATOM     96  CA  ALA d   1     -14.476   2.995   2.820  0.00  0.00     0.086 C 
ATOM     97  H63 ALA d   1     -14.351   1.912   2.965  0.00  0.00     0.086 H 
BRANCH  96  98
ATOM     98  C   ALA d   1     -14.196   3.328   1.354  0.00  0.00     0.240 C 
ATOM     99  O   ALA d   1     -13.357   4.174   1.051  0.00  0.00    -0.271 OA
ATOM    100  N   ARG d   1     -14.905   2.651   0.448  0.00  0.00    -0.346 N 
ATOM    101  H67 ARG d   1     -15.574   1.975   0.756  0.00  0.00     0.163 HD
BRANCH 100 102
ATOM    102  CA  ARG d   1     -14.724   2.877  -0.987  0.00  0.00     0.089 C 
ATOM    103  H68 ARG d   1     -14.011   3.703  -1.129  0.00  0.00     0.087 H 
BRANCH 102 104
ATOM    104  C   ARG d   1     -16.049   3.247  -1.652  0.00  0.00     0.241 C 
ATOM    105  O   ARG d   1     -17.110   2.758  -1.261  0.00  0.00    -0.271 OA
ATOM    106  N   LYS d   1     -15.974   4.110  -2.666  0.00  0.00    -0.345 N 
ATOM    107  H80 LYS d   1     -15.081   4.471  -2.936  0.00  0.00     0.163 HD
BRANCH 106 108
ATOM    108  CA  LYS d   1     -17.167   4.540  -3.392  0.00  0.00     0.096 C 
ATOM    109  H81 LYS d   1     -17.988   4.671  -2.672  0.00  0.00     0.089 H 
BRANCH 108 110
ATOM    110  C   LYS d   1     -17.582   3.490  -4.425  0.00  0.00     0.196 C 
ATOM    111  O   LYS d   1     -18.709   3.555  -4.886  0.00  0.00    -0.646 OA
ATOM    112  O1  LYS d   1     -16.783   2.586  -4.788  0.00  0.00    -0.646 OA
ENDBRANCH 108 110
BRANCH 108 113
ATOM    113  CB  LYS d   1     -16.903   5.879  -4.094  0.00  0.00    -0.037 C 
ATOM    114  H83 LYS d   1     -16.616   6.633  -3.346  0.00  0.00     0.036 H 
ATOM    115  H84 LYS d   1     -17.817   6.206  -4.612  0.00  0.00     0.036 H 
BRANCH 113 116
ATOM    116  CG  LYS d   1     -15.768   5.717  -5.115  0.00  0.00    -0.061 C 
ATOM    117  H85 LYS d   1     -16.051   4.957  -5.858  0.00  0.00     0.033 H 
ATOM    118  H86 LYS d   1     -14.852   5.399  -4.596  0.00  0.00     0.033 H 
BRANCH 116 119
ATOM    119  CD  LYS d   1     -15.513   7.053  -5.825  0.00  0.00    -0.043 C 
ATOM    120  H87 LYS d   1     -16.446   7.401  -6.292  0.00  0.00     0.035 H 
ATOM    121  H88 LYS d   1     -14.745   6.912  -6.600  0.00  0.00     0.035 H 
BRANCH 119 122
ATOM    122  CE  LYS d   1     -15.029   8.102  -4.816  0.00  0.00     0.080 C 
ATOM    123  H89 LYS d   1     -15.879   8.442  -4.206  0.00  0.00     0.075 H 
ATOM    124  H90 LYS d   1     -14.600   8.959  -5.357  0.00  0.00     0.075 H 
BRANCH 122 125
ATOM    125  NZ  LYS d   1     -13.990   7.505  -3.929  0.00  0.00    -0.079 N 
ATOM    126  H91 LYS d   1     -13.675   8.197  -3.268  0.00  0.00     0.274 HD
ATOM    127  H92 LYS d   1     -13.210   7.194  -4.487  0.00  0.00     0.274 HD
ATOM    128  H93 LYS d   1     -14.382   6.720  -3.433  0.00  0.00     0.274 HD
ENDBRANCH 122 125
ENDBRANCH 119 122
ENDBRANCH 116 119
ENDBRANCH 113 116
ENDBRANCH 108 113
ENDBRANCH 106 108
ENDBRANCH 102 104
BRANCH 102 129
ATOM    129  CB  ARG d   1     -14.164   1.612  -1.642  0.00  0.00    -0.036 C 
ATOM    130  H69 ARG d   1     -14.991   0.928  -1.882  0.00  0.00     0.036 H 
ATOM    131  H70 ARG d   1     -13.469   1.117  -0.948  0.00  0.00     0.036 H 
BRANCH 129 132
ATOM    132  CG  ARG d   1     -13.420   1.984  -2.929  0.00  0.00    -0.048 C 
ATOM    133  H71 ARG d   1     -12.423   2.374  -2.675  0.00  0.00     0.035 H 
ATOM    134  H72 ARG d   1     -13.989   2.755  -3.469  0.00  0.00     0.035 H 
BRANCH 132 135
ATOM    135  CD  ARG d   1     -13.269   0.747  -3.820  0.00  0.00     0.009 C 
ATOM    136  H73 ARG d   1     -12.488   0.935  -4.571  0.00  0.00     0.064 H 
ATOM    137  H74 ARG d   1     -14.225   0.547  -4.327  0.00  0.00     0.064 H 
BRANCH 135 138
ATOM    138  NE  ARG d   1     -12.896  -0.419  -3.019  0.00  0.00    -0.227 N 
ATOM    139  CZ  ARG d   1     -13.788  -1.347  -2.674  0.00  0.00     0.665 C 
ATOM    140  NH1 ARG d   1     -15.038  -1.236  -3.040  0.00  0.00    -0.235 N 
ATOM    141  NH2 ARG d   1     -13.413  -2.373  -1.963  0.00  0.00    -0.235 N 
ATOM    142  H76 ARG d   1     -15.720  -1.958  -2.768  0.00  0.00     0.174 HD
ATOM    143  H77 ARG d   1     -15.341  -0.426  -3.600  0.00  0.00     0.174 HD
ATOM    144  H78 ARG d   1     -12.429  -2.466  -1.672  0.00  0.00     0.174 HD
ATOM    145  H79 ARG d   1     -14.100  -3.091  -1.692  0.00  0.00     0.174 HD
ATOM    146  H75 ARG d   1     -11.918  -0.525  -2.714  0.00  0.00     0.177 HD
ENDBRANCH 135 138
ENDBRANCH 132 135
ENDBRANCH 129 132
ENDBRANCH 102 129
ENDBRANCH 100 102
ENDBRANCH  96  98
BRANCH  96 147
ATOM    147  CB  ALA d   1     -15.916   3.376   3.170  0.00  0.00    -0.049 C 
ATOM    148  H64 ALA d   1     -16.609   2.845   2.501  0.00  0.00     0.030 H 
ATOM    149  H65 ALA d   1     -16.048   4.461   3.048  0.00  0.00     0.030 H 
ATOM    150  H66 ALA d   1     -16.126   3.096   4.213  0.00  0.00     0.030 H 
ENDBRANCH  96 147
ENDBRANCH  94  96
ENDBRANCH  90  92
BRANCH  90 151
ATOM    151  CB  THR d   1     -12.127   7.047   4.279  0.00  0.00     0.060 C 
ATOM    152  H57 THR d   1     -12.120   7.081   3.180  0.00  0.00     0.086 H 
BRANCH 151 153
ATOM    153  OG1 THR d   1     -10.840   7.404   4.767  0.00  0.00    -0.393 OA
ATOM    154  H58 THR d   1     -10.842   7.372   5.716  0.00  0.00     0.210 HD
ENDBRANCH 151 153
BRANCH 151 155
ATOM    155  CG2 THR d   1     -13.168   8.038   4.808  0.00  0.00    -0.050 C 
ATOM    156  H59 THR d   1     -12.909   9.054   4.476  0.00  0.00     0.031 H 
ATOM    157  H60 THR d   1     -13.182   8.004   5.907  0.00  0.00     0.031 H 
ATOM    158  H61 THR d   1     -14.161   7.768   4.420  0.00  0.00     0.031 H 
ENDBRANCH 151 155
ENDBRANCH  90 151
ENDBRANCH  88  90
ENDBRANCH   1  86
BRANCH   1 159
ATOM    159  CB  GLN d   1      -9.699   2.427   5.853  0.00  0.00    -0.030 C 
ATOM    160  H49 GLN d   1      -8.822   1.764   5.892  0.00  0.00     0.037 H 
ATOM    161  H50 GLN d   1     -10.341   2.136   5.009  0.00  0.00     0.037 H 
BRANCH 159 162
ATOM    162  CG  GLN d   1     -10.490   2.299   7.161  0.00  0.00     0.011 C 
ATOM    163  H51 GLN d   1     -10.210   3.120   7.838  0.00  0.00     0.047 H 
ATOM    164  H52 GLN d   1     -10.254   1.335   7.636  0.00  0.00     0.047 H 
BRANCH 162 165
ATOM    165  CD  GLN d   1     -11.988   2.368   6.875  0.00  0.00     0.215 C 
ATOM    166  OE1 GLN d   1     -12.571   1.403   6.382  0.00  0.00    -0.274 OA
ATOM    167  NE2 GLN d   1     -12.647   3.458   7.155  0.00  0.00    -0.370 N 
ATOM    168  H53 GLN d   1     -13.628   3.510   6.970  0.00  0.00     0.159 HD
ATOM    169  H54 GLN d   1     -12.171   4.242   7.554  0.00  0.00     0.159 HD
ENDBRANCH 162 165
ENDBRANCH 159 162
ENDBRANCH   1 159
TORSDOF 50
