REMARK  10 active torsions:
REMARK  status: ('A' for Active; 'I' for Inactive)
REMARK    1  A    between atoms: C3_3  and  O1_7 
REMARK    2  A    between atoms: C6_6  and  S1_9 
REMARK    3  A    between atoms: O1_7  and  C7_8 
REMARK    4  A    between atoms: S1_9  and  N_12 
REMARK    5  A    between atoms: N_12  and  C9_13 
REMARK    6  A    between atoms: N_12  and  C10_14 
REMARK    7  A    between atoms: C9_13  and  C12_19 
REMARK    8  A    between atoms: C10_14  and  C11_15 
REMARK       I    between atoms: C11_15  and  N1_16 
REMARK    9  A    between atoms: C12_19  and  C13_20 
REMARK   10  A    between atoms: C12_19  and  C14_21 
ROOT
ATOM      1  N   NGH d   1       4.501   0.158   6.089  0.00  0.00    -0.297 N 
ENDROOT
BRANCH   1   2
ATOM      2  S1  NGH d   1       4.603   1.713   5.561  0.00  0.00     0.261 S 
ATOM      3  O2  NGH d   1       3.277   2.292   5.739  0.00  0.00    -0.200 OA
ATOM      4  O3  NGH d   1       5.647   2.339   6.357  0.00  0.00    -0.200 OA
BRANCH   2   5
ATOM      5  C6  NGH d   1       5.000   1.717   3.811  0.00  0.00     0.079 A 
ATOM      6  C1  NGH d   1       6.315   1.517   3.391  0.00  0.00    -0.058 A 
ATOM      7  C2  NGH d   1       6.638   1.556   2.036  0.00  0.00    -0.049 A 
ATOM      8  H1  NGH d   1       7.091   1.330   4.124  0.00  0.00     0.086 H 
ATOM      9  C3  NGH d   1       5.660   1.860   1.093  0.00  0.00     0.068 A 
ATOM     10  H2  NGH d   1       7.653   1.349   1.716  0.00  0.00     0.087 H 
ATOM     11  C4  NGH d   1       4.350   2.065   1.510  0.00  0.00    -0.049 A 
ATOM     12  C5  NGH d   1       4.013   1.984   2.862  0.00  0.00    -0.058 A 
ATOM     13  H3  NGH d   1       3.583   2.290   0.778  0.00  0.00     0.087 H 
ATOM     14  H4  NGH d   1       2.985   2.128   3.174  0.00  0.00     0.086 H 
BRANCH   9  15
ATOM     15  O1  NGH d   1       5.948   1.942  -0.251  0.00  0.00    -0.356 OA
BRANCH  15  16
ATOM     16  C7  NGH d   1       7.138   1.327  -0.815  0.00  0.00     0.010 C 
ATOM     17  H5  NGH d   1       7.170   1.515  -1.898  0.00  0.00     0.066 H 
ATOM     18  H6  NGH d   1       7.112   0.243  -0.632  0.00  0.00     0.066 H 
ATOM     19  H7  NGH d   1       8.033   1.758  -0.342  0.00  0.00     0.066 H 
ENDBRANCH  15  16
ENDBRANCH   9  15
ENDBRANCH   2   5
ENDBRANCH   1   2
BRANCH   1  20
ATOM     20  C9  NGH d   1       5.719  -0.669   6.313  0.00  0.00     0.009 C 
ATOM     21  H8  NGH d   1       6.391  -0.525   5.454  0.00  0.00     0.066 H 
ATOM     22  H9  NGH d   1       5.410  -1.723   6.364  0.00  0.00     0.066 H 
BRANCH  20  23
ATOM     23  C12 NGH d   1       6.515  -0.339   7.607  0.00  0.00    -0.045 C 
ATOM     24  H12 NGH d   1       6.929   0.675   7.505  0.00  0.00     0.041 H 
BRANCH  23  25
ATOM     25  C13 NGH d   1       7.680  -1.339   7.752  0.00  0.00    -0.072 C 
ATOM     26  H13 NGH d   1       8.248  -1.111   8.666  0.00  0.00     0.028 H 
ATOM     27  H14 NGH d   1       8.344  -1.258   6.879  0.00  0.00     0.028 H 
ATOM     28  H15 NGH d   1       7.280  -2.362   7.815  0.00  0.00     0.028 H 
ENDBRANCH  23  25
BRANCH  23  29
ATOM     29  C14 NGH d   1       5.638  -0.371   8.879  0.00  0.00    -0.072 C 
ATOM     30  H16 NGH d   1       4.809   0.344   8.771  0.00  0.00     0.028 H 
ATOM     31  H17 NGH d   1       6.248  -0.095   9.752  0.00  0.00     0.028 H 
ATOM     32  H18 NGH d   1       5.233  -1.384   9.020  0.00  0.00     0.028 H 
ENDBRANCH  23  29
ENDBRANCH  20  23
ENDBRANCH   1  20
BRANCH   1  33
ATOM     33  C10 NGH d   1       3.213  -0.445   6.525  0.00  0.00     0.083 C 
ATOM     34  H10 NGH d   1       2.487   0.368   6.672  0.00  0.00     0.080 H 
ATOM     35  H11 NGH d   1       3.383  -0.962   7.481  0.00  0.00     0.080 H 
BRANCH  33  36
ATOM     36  C11 NGH d   1       2.617  -1.438   5.552  0.00  0.00     0.287 C 
ATOM     37  N1  NGH d   1       1.800  -0.933   4.605  0.00  0.00    -0.057 NA
ATOM     38  O4  NGH d   1       1.136  -1.665   3.802  0.00  0.00    -0.058 OA
ATOM     39  O5  NGH d   1       2.876  -2.628   5.600  0.00  0.00    -0.267 OA
ENDBRANCH  33  36
ENDBRANCH   1  33
TORSDOF 10
