REMARK WARNING: 32 MAX_TORS EXCEEDED!!!
REMARK  51 active torsions:
REMARK  status: ('A' for Active; 'I' for Inactive)
REMARK    1  A    between atoms: CA_2  and  N_1 
REMARK    2  A    between atoms: CA_2  and  CB_5 
REMARK    3  A    between atoms: C_3  and  CA_2 
REMARK       I    between atoms: N_25  and  C_3 
REMARK    4  A    between atoms: CB_5  and  CG_6 
REMARK    5  A    between atoms: CG_6  and  CD_7 
REMARK    6  A    between atoms: CD_7  and  CE_8 
REMARK    7  A    between atoms: CE_8  and  NZ_9 
REMARK    8  A    between atoms: CA_26  and  N_25 
REMARK    9  A    between atoms: CA_26  and  CB_29 
REMARK   10  A    between atoms: C_27  and  CA_26 
REMARK       I    between atoms: N_44  and  C_27 
REMARK   11  A    between atoms: CB_29  and  CG2_31 
REMARK   12  A    between atoms: CB_29  and  CG1_30 
REMARK   13  A    between atoms: CG1_30  and  CD1_32 
REMARK   14  A    between atoms: CA_45  and  N_44 
REMARK   15  A    between atoms: CA_45  and  CB_48 
REMARK   16  A    between atoms: C_46  and  CA_45 
REMARK       I    between atoms: N_63  and  C_46 
REMARK   17  A    between atoms: CB_48  and  CG2_50 
REMARK   18  A    between atoms: CB_48  and  CG1_49 
REMARK   19  A    between atoms: CG1_49  and  CD1_51 
REMARK   20  A    between atoms: CA_64  and  N_63 
REMARK   21  A    between atoms: CA_64  and  CB_67 
REMARK   22  A    between atoms: C_65  and  CA_64 
REMARK       I    between atoms: N_75  and  C_65 
REMARK   23  A    between atoms: CB_67  and  CG_68 
REMARK   24  A    between atoms: CA_76  and  N_75 
REMARK   25  A    between atoms: CA_76  and  CB_79 
REMARK   26  A    between atoms: C_77  and  CA_76 
REMARK       I    between atoms: N_89  and  C_77 
REMARK   27  A    between atoms: CB_79  and  CG2_81 
REMARK   28  A    between atoms: CB_79  and  OG1_80 
REMARK   29  A    between atoms: CA_90  and  N_89 
REMARK   30  A    between atoms: C_91  and  CA_90 
REMARK       I    between atoms: N_96  and  C_91 
REMARK   31  A    between atoms: CA_97  and  N_96 
REMARK   32  A    between atoms: C_98  and  CA_97 
REMARK       I    between atoms: N_103  and  C_98 
REMARK   33  A    between atoms: CA_104  and  N_103 
REMARK   34  A    between atoms: C_105  and  CA_104 
REMARK       I    between atoms: N_110  and  C_105 
REMARK   35  A    between atoms: CA_111  and  N_110 
REMARK   36  A    between atoms: CA_111  and  CB_114 
REMARK   37  A    between atoms: C_112  and  CA_111 
REMARK       I    between atoms: N_130  and  C_112 
REMARK   38  A    between atoms: CB_114  and  CG_115 
REMARK   39  A    between atoms: CA_131  and  N_130 
REMARK   40  A    between atoms: CA_131  and  CB_134 
REMARK   41  A    between atoms: C_132  and  CA_131 
REMARK       I    between atoms: C_132  and  N_149 
REMARK   42  A    between atoms: CB_134  and  CG2_136 
REMARK   43  A    between atoms: CB_134  and  CG1_135 
REMARK   44  A    between atoms: CG1_135  and  CD1_137 
REMARK   45  A    between atoms: N_149  and  CA_150 
REMARK   46  A    between atoms: CA_150  and  CB_153 
REMARK   47  A    between atoms: CA_150  and  C_151 
REMARK   48  A    between atoms: C_151  and  O1_168 
REMARK   49  A    between atoms: CB_153  and  CG_154 
REMARK   50  A    between atoms: CG_154  and  CD1_155 
REMARK   51  A    between atoms: CG_154  and  CD2_156 
ROOT
ATOM      1  CA  THR d   1     -11.170  11.241  -8.540  0.00  0.00     0.113 C 
ATOM      2  H43 THR d   1     -12.049  11.598  -7.983  0.00  0.00     0.091 H 
ENDROOT
BRANCH   1   3
ATOM      3  N   THR d   1     -11.554  10.542  -9.777  0.00  0.00    -0.344 N 
ATOM      4  H42 THR d   1     -11.051   9.725 -10.061  0.00  0.00     0.163 HD
ATOM      5  C   ASP d   1     -12.534  10.973 -10.500  0.00  0.00     0.241 C 
ATOM      6  O   ASP d   1     -13.184  11.960 -10.195  0.00  0.00    -0.271 OA
BRANCH   5   7
ATOM      7  CA  ASP d   1     -12.815  10.158 -11.759  0.00  0.00     0.098 C 
ATOM      8  H39 ASP d   1     -11.955   9.500 -11.951  0.00  0.00     0.088 H 
BRANCH   7   9
ATOM      9  N   ASP d   1     -14.040   9.340 -11.611  0.00  0.00    -0.345 N 
ATOM     10  H38 ASP d   1     -14.594   9.113 -12.412  0.00  0.00     0.163 HD
ATOM     11  C   ILE d   1     -14.387   8.922 -10.438  0.00  0.00     0.241 C 
ATOM     12  O   ILE d   1     -13.744   9.182  -9.440  0.00  0.00    -0.271 OA
BRANCH  11  13
ATOM     13  CA  ILE d   1     -15.626   8.078 -10.362  0.00  0.00     0.092 C 
ATOM     14  H28 ILE d   1     -16.514   8.725 -10.316  0.00  0.00     0.088 H 
BRANCH  13  15
ATOM     15  N   ILE d   1     -15.710   7.158 -11.539  0.00  0.00    -0.346 N 
ATOM     16  H27 ILE d   1     -15.072   6.393 -11.618  0.00  0.00     0.163 HD
ATOM     17  C   ILE d   1     -16.617   7.350 -12.468  0.00  0.00     0.241 C 
ATOM     18  O   ILE d   1     -17.411   8.272 -12.402  0.00  0.00    -0.271 OA
BRANCH  17  19
ATOM     19  CA  ILE d   1     -16.669   6.327 -13.616  0.00  0.00     0.092 C 
ATOM     20  H17 ILE d   1     -15.720   6.343 -14.172  0.00  0.00     0.088 H 
BRANCH  19  21
ATOM     21  N   ILE d   1     -16.934   4.967 -13.032  0.00  0.00    -0.346 N 
ATOM     22  H16 ILE d   1     -17.724   4.839 -12.432  0.00  0.00     0.163 HD
ATOM     23  C   LYS d   1     -16.145   3.932 -13.293  0.00  0.00     0.249 C 
ATOM     24  O   LYS d   1     -15.160   4.036 -14.034  0.00  0.00    -0.271 OA
BRANCH  23  25
ATOM     25  CA  LYS d   1     -16.525   2.577 -12.620  0.00  0.00     0.176 C 
ATOM     26  H4  LYS d   1     -17.318   2.091 -13.207  0.00  0.00     0.099 H 
BRANCH  25  27
ATOM     27  N   LYS d   1     -15.323   1.677 -12.519  0.00  0.00    -0.067 N 
ATOM     28  H1  LYS d   1     -15.589   0.808 -12.082  0.00  0.00     0.275 HD
ATOM     29  H2  LYS d   1     -14.612   2.127 -11.965  0.00  0.00     0.275 HD
ATOM     30  H3  LYS d   1     -14.963   1.492 -13.442  0.00  0.00     0.275 HD
ENDBRANCH  25  27
BRANCH  25  31
ATOM     31  CB  LYS d   1     -16.996   2.798 -11.159  0.00  0.00    -0.030 C 
ATOM     32  H5  LYS d   1     -16.611   3.762 -10.796  0.00  0.00     0.036 H 
ATOM     33  H6  LYS d   1     -16.607   1.986 -10.526  0.00  0.00     0.036 H 
BRANCH  31  34
ATOM     34  CG  LYS d   1     -18.532   2.806 -11.085  0.00  0.00    -0.061 C 
ATOM     35  H7  LYS d   1     -18.874   1.926 -10.521  0.00  0.00     0.033 H 
ATOM     36  H8  LYS d   1     -18.946   2.772 -12.104  0.00  0.00     0.033 H 
BRANCH  34  37
ATOM     37  CD  LYS d   1     -19.019   4.082 -10.380  0.00  0.00    -0.043 C 
ATOM     38  H9  LYS d   1     -18.157   4.728 -10.157  0.00  0.00     0.035 H 
ATOM     39  H10 LYS d   1     -19.526   3.811  -9.442  0.00  0.00     0.035 H 
BRANCH  37  40
ATOM     40  CE  LYS d   1     -20.001   4.837 -11.291  0.00  0.00     0.080 C 
ATOM     41  H11 LYS d   1     -21.019   4.437 -11.173  0.00  0.00     0.075 H 
ATOM     42  H12 LYS d   1     -19.693   4.750 -12.343  0.00  0.00     0.075 H 
BRANCH  40  43
ATOM     43  NZ  LYS d   1     -19.946   6.259 -10.848  0.00  0.00    -0.079 N 
ATOM     44  H13 LYS d   1     -20.573   6.811 -11.412  0.00  0.00     0.274 HD
ATOM     45  H14 LYS d   1     -19.006   6.607 -10.953  0.00  0.00     0.274 HD
ATOM     46  H15 LYS d   1     -20.221   6.320  -9.880  0.00  0.00     0.274 HD
ENDBRANCH  40  43
ENDBRANCH  37  40
ENDBRANCH  34  37
ENDBRANCH  31  34
ENDBRANCH  25  31
ENDBRANCH  23  25
ENDBRANCH  19  21
BRANCH  19  47
ATOM     47  CB  ILE d   1     -17.858   6.591 -14.567  0.00  0.00    -0.030 C 
ATOM     48  H18 ILE d   1     -18.041   5.691 -15.172  0.00  0.00     0.043 H 
BRANCH  47  49
ATOM     49  CG2 ILE d   1     -19.130   6.919 -13.766  0.00  0.00    -0.071 C 
ATOM     50  H21 ILE d   1     -19.374   6.075 -13.104  0.00  0.00     0.028 H 
ATOM     51  H22 ILE d   1     -19.965   7.094 -14.460  0.00  0.00     0.028 H 
ATOM     52  H23 ILE d   1     -18.960   7.822 -13.161  0.00  0.00     0.028 H 
ENDBRANCH  47  49
BRANCH  47  53
ATOM     53  CG1 ILE d   1     -17.502   7.761 -15.498  0.00  0.00    -0.063 C 
ATOM     54  H19 ILE d   1     -16.572   7.527 -16.036  0.00  0.00     0.033 H 
ATOM     55  H20 ILE d   1     -17.360   8.672 -14.899  0.00  0.00     0.033 H 
BRANCH  53  56
ATOM     56  CD1 ILE d   1     -18.630   7.991 -16.511  0.00  0.00    -0.076 C 
ATOM     57  H24 ILE d   1     -18.364   8.830 -17.171  0.00  0.00     0.027 H 
ATOM     58  H25 ILE d   1     -19.561   8.227 -15.975  0.00  0.00     0.027 H 
ATOM     59  H26 ILE d   1     -18.773   7.082 -17.113  0.00  0.00     0.027 H 
ENDBRANCH  53  56
ENDBRANCH  47  53
ENDBRANCH  19  47
ENDBRANCH  17  19
ENDBRANCH  13  15
BRANCH  13  60
ATOM     60  CB  ILE d   1     -15.552   7.180  -9.140  0.00  0.00    -0.030 C 
ATOM     61  H29 ILE d   1     -14.587   6.652  -9.132  0.00  0.00     0.043 H 
BRANCH  60  62
ATOM     62  CG2 ILE d   1     -15.676   8.038  -7.868  0.00  0.00    -0.071 C 
ATOM     63  H32 ILE d   1     -14.857   8.772  -7.840  0.00  0.00     0.028 H 
ATOM     64  H33 ILE d   1     -15.618   7.390  -6.981  0.00  0.00     0.028 H 
ATOM     65  H34 ILE d   1     -16.641   8.566  -7.874  0.00  0.00     0.028 H 
ENDBRANCH  60  62
BRANCH  60  66
ATOM     66  CG1 ILE d   1     -16.694   6.151  -9.187  0.00  0.00    -0.063 C 
ATOM     67  H30 ILE d   1     -16.964   5.960 -10.236  0.00  0.00     0.033 H 
ATOM     68  H31 ILE d   1     -17.566   6.555  -8.652  0.00  0.00     0.033 H 
BRANCH  66  69
ATOM     69  CD1 ILE d   1     -16.264   4.829  -8.527  0.00  0.00    -0.076 C 
ATOM     70  H35 ILE d   1     -17.095   4.109  -8.572  0.00  0.00     0.027 H 
ATOM     71  H36 ILE d   1     -15.996   5.014  -7.476  0.00  0.00     0.027 H 
ATOM     72  H37 ILE d   1     -15.394   4.419  -9.061  0.00  0.00     0.027 H 
ENDBRANCH  66  69
ENDBRANCH  60  66
ENDBRANCH  13  60
ENDBRANCH  11  13
ENDBRANCH   7   9
BRANCH   7  73
ATOM     73  CB  ASP d   1     -13.038  11.061 -12.953  0.00  0.00     0.043 C 
ATOM     74  H40 ASP d   1     -13.466  12.019 -12.624  0.00  0.00     0.052 H 
ATOM     75  H41 ASP d   1     -13.723  10.579 -13.665  0.00  0.00     0.052 H 
BRANCH  73  76
ATOM     76  CG  ASP d   1     -11.679  11.296 -13.614  0.00  0.00     0.175 C 
ATOM     77  OD1 ASP d   1     -10.784  11.767 -12.919  0.00  0.00    -0.648 OA
ATOM     78  OD2 ASP d   1     -11.546  10.974 -14.791  0.00  0.00    -0.648 OA
ENDBRANCH  73  76
ENDBRANCH   7  73
ENDBRANCH   5   7
ENDBRANCH   1   3
BRANCH   1  79
ATOM     79  CB  THR d   1     -10.379  10.212  -7.724  0.00  0.00     0.060 C 
ATOM     80  H44 THR d   1     -10.359  10.525  -6.670  0.00  0.00     0.086 H 
BRANCH  79  81
ATOM     81  CG2 THR d   1     -11.005   8.808  -7.818  0.00  0.00    -0.050 C 
ATOM     82  H46 THR d   1     -10.410   8.101  -7.221  0.00  0.00     0.031 H 
ATOM     83  H47 THR d   1     -11.017   8.482  -8.868  0.00  0.00     0.031 H 
ATOM     84  H48 THR d   1     -12.034   8.839  -7.432  0.00  0.00     0.031 H 
ENDBRANCH  79  81
BRANCH  79  85
ATOM     85  OG1 THR d   1      -9.054  10.169  -8.237  0.00  0.00    -0.393 OA
ATOM     86  H45 THR d   1      -8.665  11.034  -8.180  0.00  0.00     0.210 HD
ENDBRANCH  79  85
ENDBRANCH   1  79
BRANCH   1  87
ATOM     87  C   THR d   1     -10.272  12.409  -8.940  0.00  0.00     0.243 C 
ATOM     88  O   THR d   1     -10.584  13.139  -9.869  0.00  0.00    -0.271 OA
ATOM     89  N   GLY d   1      -9.150  12.574  -8.267  0.00  0.00    -0.350 N 
ATOM     90  H49 GLY d   1      -8.928  11.952  -7.516  0.00  0.00     0.163 HD
BRANCH  89  91
ATOM     91  CA  GLY d   1      -8.205  13.681  -8.613  0.00  0.00     0.069 C 
ATOM     92  H50 GLY d   1      -8.207  14.432  -7.810  0.00  0.00     0.078 H 
ATOM     93  H51 GLY d   1      -8.518  14.152  -9.556  0.00  0.00     0.078 H 
BRANCH  91  94
ATOM     94  C   GLY d   1      -6.797  13.104  -8.771  0.00  0.00     0.235 C 
ATOM     95  O   GLY d   1      -6.357  12.310  -7.958  0.00  0.00    -0.272 OA
ATOM     96  N   GLY d   1      -6.089  13.492  -9.818  0.00  0.00    -0.351 N 
ATOM     97  H52 GLY d   1      -6.478  14.143 -10.469  0.00  0.00     0.163 HD
BRANCH  96  98
ATOM     98  CA  GLY d   1      -4.704  12.958 -10.032  0.00  0.00     0.069 C 
ATOM     99  H53 GLY d   1      -4.655  11.929  -9.645  0.00  0.00     0.078 H 
ATOM    100  H54 GLY d   1      -3.990  13.590  -9.484  0.00  0.00     0.078 H 
BRANCH  98 101
ATOM    101  C   GLY d   1      -4.320  12.949 -11.528  0.00  0.00     0.235 C 
ATOM    102  O   GLY d   1      -3.493  12.171 -11.940  0.00  0.00    -0.272 OA
ATOM    103  N   GLY d   1      -4.901  13.797 -12.344  0.00  0.00    -0.351 N 
ATOM    104  H55 GLY d   1      -5.582  14.441 -11.995  0.00  0.00     0.163 HD
BRANCH 103 105
ATOM    105  CA  GLY d   1      -4.541  13.798 -13.804  0.00  0.00     0.069 C 
ATOM    106  H56 GLY d   1      -3.501  14.136 -13.924  0.00  0.00     0.078 H 
ATOM    107  H57 GLY d   1      -5.213  14.480 -14.346  0.00  0.00     0.078 H 
BRANCH 105 108
ATOM    108  C   GLY d   1      -4.682  12.421 -14.355  0.00  0.00     0.236 C 
ATOM    109  O   GLY d   1      -3.742  11.875 -14.882  0.00  0.00    -0.272 OA
ATOM    110  N   PHE d   1      -5.829  11.844 -14.270  0.00  0.00    -0.346 N 
ATOM    111  H58 PHE d   1      -6.605  12.303 -13.838  0.00  0.00     0.163 HD
BRANCH 110 112
ATOM    112  CA  PHE d   1      -5.966  10.492 -14.826  0.00  0.00     0.093 C 
ATOM    113  H59 PHE d   1      -5.621  10.470 -15.870  0.00  0.00     0.088 H 
BRANCH 112 114
ATOM    114  CB  PHE d   1      -5.012   9.668 -13.964  0.00  0.00    -0.014 C 
ATOM    115  H60 PHE d   1      -4.243  10.335 -13.548  0.00  0.00     0.043 H 
ATOM    116  H61 PHE d   1      -4.533   8.905 -14.595  0.00  0.00     0.043 H 
BRANCH 114 117
ATOM    117  CG  PHE d   1      -5.729   8.981 -12.826  0.00  0.00    -0.056 A 
ATOM    118  CD1 PHE d   1      -6.241   9.723 -11.752  0.00  0.00    -0.077 A 
ATOM    119  CE1 PHE d   1      -6.944   9.067 -10.727  0.00  0.00    -0.082 A 
ATOM    120  H62 PHE d   1      -6.095  10.796 -11.713  0.00  0.00     0.084 H 
ATOM    121  CZ  PHE d   1      -7.122   7.668 -10.776  0.00  0.00    -0.083 A 
ATOM    122  H64 PHE d   1      -7.350   9.636  -9.898  0.00  0.00     0.083 H 
ATOM    123  CE2 PHE d   1      -6.596   6.942 -11.843  0.00  0.00    -0.082 A 
ATOM    124  H66 PHE d   1      -7.665   7.160  -9.987  0.00  0.00     0.083 H 
ATOM    125  CD2 PHE d   1      -5.907   7.596 -12.867  0.00  0.00    -0.077 A 
ATOM    126  H65 PHE d   1      -6.722   5.866 -11.878  0.00  0.00     0.083 H 
ATOM    127  H63 PHE d   1      -5.508   7.026 -13.698  0.00  0.00     0.084 H 
ENDBRANCH 114 117
ENDBRANCH 112 114
BRANCH 112 128
ATOM    128  C   PHE d   1      -7.424  10.056 -14.809  0.00  0.00     0.241 C 
ATOM    129  O   PHE d   1      -8.126  10.234 -13.845  0.00  0.00    -0.271 OA
ATOM    130  N   ILE d   1      -7.892   9.558 -15.914  0.00  0.00    -0.346 N 
ATOM    131  H67 ILE d   1      -7.281   9.429 -16.695  0.00  0.00     0.163 HD
BRANCH 130 132
ATOM    132  CA  ILE d   1      -9.332   9.176 -16.034  0.00  0.00     0.092 C 
ATOM    133  H68 ILE d   1      -9.972  10.008 -15.705  0.00  0.00     0.088 H 
BRANCH 132 134
ATOM    134  CB  ILE d   1      -9.512   8.916 -17.507  0.00  0.00    -0.030 C 
ATOM    135  H69 ILE d   1      -8.778   8.163 -17.830  0.00  0.00     0.043 H 
BRANCH 134 136
ATOM    136  CG2 ILE d   1     -10.915   8.389 -17.775  0.00  0.00    -0.071 C 
ATOM    137  H72 ILE d   1     -11.073   7.461 -17.205  0.00  0.00     0.028 H 
ATOM    138  H73 ILE d   1     -11.031   8.184 -18.849  0.00  0.00     0.028 H 
ATOM    139  H74 ILE d   1     -11.655   9.141 -17.464  0.00  0.00     0.028 H 
ENDBRANCH 134 136
BRANCH 134 140
ATOM    140  CG1 ILE d   1      -9.281  10.213 -18.299  0.00  0.00    -0.063 C 
ATOM    141  H70 ILE d   1      -9.111   9.963 -19.357  0.00  0.00     0.033 H 
ATOM    142  H71 ILE d   1      -8.395  10.726 -17.897  0.00  0.00     0.033 H 
BRANCH 140 143
ATOM    143  CD1 ILE d   1     -10.500  11.154 -18.194  0.00  0.00    -0.076 C 
ATOM    144  H75 ILE d   1     -10.306  12.071 -18.769  0.00  0.00     0.027 H 
ATOM    145  H76 ILE d   1     -10.674  11.413 -17.139  0.00  0.00     0.027 H 
ATOM    146  H77 ILE d   1     -11.389  10.649 -18.599  0.00  0.00     0.027 H 
ENDBRANCH 140 143
ENDBRANCH 134 140
ENDBRANCH 132 134
BRANCH 132 147
ATOM    147  C   ILE d   1      -9.694   7.930 -15.232  0.00  0.00     0.241 C 
ATOM    148  O   ILE d   1      -9.055   6.914 -15.326  0.00  0.00    -0.271 OA
ATOM    149  N   LEU d   1     -10.742   8.007 -14.458  0.00  0.00    -0.345 N 
ATOM    150  H78 LEU d   1     -11.263   8.859 -14.412  0.00  0.00     0.163 HD
BRANCH 149 151
ATOM    151  CA  LEU d   1     -11.168   6.832 -13.641  0.00  0.00     0.093 C 
ATOM    152  H79 LEU d   1     -10.577   5.941 -13.900  0.00  0.00     0.089 H 
BRANCH 151 153
ATOM    153  CB  LEU d   1     -10.877   7.280 -12.210  0.00  0.00    -0.034 C 
ATOM    154  H80 LEU d   1     -11.758   7.801 -11.806  0.00  0.00     0.037 H 
ATOM    155  H81 LEU d   1     -10.016   7.964 -12.212  0.00  0.00     0.037 H 
BRANCH 153 156
ATOM    156  CG  LEU d   1     -10.561   6.082 -11.337  0.00  0.00    -0.059 C 
ATOM    157  H82 LEU d   1     -11.421   5.396 -11.325  0.00  0.00     0.038 H 
BRANCH 156 158
ATOM    158  CD1 LEU d   1      -9.335   5.347 -11.880  0.00  0.00    -0.073 C 
ATOM    159  H83 LEU d   1      -9.114   4.480 -11.240  0.00  0.00     0.028 H 
ATOM    160  H84 LEU d   1      -8.472   6.028 -11.885  0.00  0.00     0.028 H 
ATOM    161  H85 LEU d   1      -9.537   5.004 -12.905  0.00  0.00     0.028 H 
ENDBRANCH 156 158
BRANCH 156 162
ATOM    162  CD2 LEU d   1     -10.284   6.584  -9.924  0.00  0.00    -0.073 C 
ATOM    163  H86 LEU d   1     -11.171   7.111  -9.542  0.00  0.00     0.028 H 
ATOM    164  H87 LEU d   1      -9.427   7.273  -9.941  0.00  0.00     0.028 H 
ATOM    165  H88 LEU d   1     -10.055   5.730  -9.270  0.00  0.00     0.028 H 
ENDBRANCH 156 162
ENDBRANCH 153 156
ENDBRANCH 151 153
BRANCH 151 166
ATOM    166  C   LEU d   1     -12.667   6.521 -13.835  0.00  0.00     0.163 C 
ATOM    167  O   LEU d   1     -13.491   7.360 -13.473  0.00  0.00    -0.648 OA
BRANCH 166 168
ATOM    168  O1  LEU d   1     -13.059   5.373 -14.381  0.00  0.00    -0.775 OA
ATOM    169  H89 LEU d   1     -13.603   4.900 -13.762  0.00  0.00     0.167 HD
ENDBRANCH 166 168
ENDBRANCH 151 166
ENDBRANCH 149 151
ENDBRANCH 132 147
ENDBRANCH 130 132
ENDBRANCH 112 128
ENDBRANCH 110 112
ENDBRANCH 105 108
ENDBRANCH 103 105
ENDBRANCH  98 101
ENDBRANCH  96  98
ENDBRANCH  91  94
ENDBRANCH  89  91
ENDBRANCH   1  87
TORSDOF 51
