REMARK  28 active torsions:
REMARK  status: ('A' for Active; 'I' for Inactive)
REMARK    1  A    between atoms: N_1  and  CA_2 
REMARK    2  A    between atoms: CA_2  and  C_3 
REMARK    3  A    between atoms: CA_2  and  CB_5 
REMARK       I    between atoms: C_3  and  N_10 
REMARK    4  A    between atoms: CB_5  and  CG_6 
REMARK    5  A    between atoms: CG_6  and  CD_7 
REMARK    6  A    between atoms: N_10  and  CA_11 
REMARK    7  A    between atoms: CA_11  and  C_12 
REMARK    8  A    between atoms: CA_11  and  CB_14 
REMARK       I    between atoms: C_12  and  N_19 
REMARK    9  A    between atoms: CB_14  and  CG_15 
REMARK   10  A    between atoms: CG_15  and  CD_16 
REMARK   11  A    between atoms: CA_20  and  C_21 
REMARK       I    between atoms: C_21  and  N_26 
REMARK   12  A    between atoms: CA_27  and  C_28 
REMARK       I    between atoms: C_28  and  N_33 
REMARK   13  A    between atoms: CA_34  and  C_35 
REMARK       I    between atoms: C_35  and  N_40 
REMARK   14  A    between atoms: CA_41  and  C_42 
REMARK       I    between atoms: C_42  and  N_47 
REMARK   15  A    between atoms: N_47  and  CA_48 
REMARK   16  A    between atoms: CA_48  and  C_49 
REMARK   17  A    between atoms: CA_48  and  CB_51 
REMARK       I    between atoms: C_49  and  N_59 
REMARK   18  A    between atoms: CB_51  and  CG_52 
REMARK   19  A    between atoms: CZ_57  and  OH_58 
REMARK   20  A    between atoms: N_59  and  CA_60 
REMARK   21  A    between atoms: CA_60  and  C_61 
REMARK   22  A    between atoms: CA_60  and  CB_63 
REMARK       I    between atoms: C_61  and  N_68 
REMARK   23  A    between atoms: CB_63  and  CG_64 
REMARK   24  A    between atoms: CG_64  and  CD_65 
REMARK   25  A    between atoms: N_68  and  CA_69 
REMARK   26  A    between atoms: CA_69  and  C_70 
REMARK   27  A    between atoms: CA_69  and  CB_72 
REMARK   28  A    between atoms: CB_72  and  CG_73 
ROOT
ATOM      1  C   PRO d   1       3.835   6.927   6.156  0.00  0.00     0.243 C 
ATOM      2  O   PRO d   1       3.828   7.976   6.808  0.00  0.00    -0.271 OA
ATOM      3  N   PRO d   1       3.640   6.930   4.837  0.00  0.00    -0.337 N 
ATOM      4  CA  PRO d   1       3.177   8.120   4.146  0.00  0.00     0.092 C 
ATOM      5  CB  PRO d   1       3.501   7.835   2.681  0.00  0.00    -0.036 C 
ATOM      6  CG  PRO d   1       3.487   6.347   2.566  0.00  0.00    -0.048 C 
ATOM      7  CD  PRO d   1       3.863   5.798   3.923  0.00  0.00    -0.001 C 
ATOM      8  H29 PRO d   1       3.706   9.018   4.498  0.00  0.00     0.087 H 
ATOM      9  H30 PRO d   1       4.492   8.234   2.419  0.00  0.00     0.036 H 
ATOM     10  H31 PRO d   1       2.741   8.281   2.023  0.00  0.00     0.036 H 
ATOM     11  H32 PRO d   1       4.216   6.019   1.810  0.00  0.00     0.035 H 
ATOM     12  H33 PRO d   1       2.483   5.999   2.282  0.00  0.00     0.035 H 
ATOM     13  H34 PRO d   1       3.222   4.946   4.192  0.00  0.00     0.064 H 
ATOM     14  H35 PRO d   1       4.917   5.483   3.939  0.00  0.00     0.064 H 
ENDROOT
BRANCH   4  15
ATOM     15  C   PRO d   1       1.680   8.288   4.361  0.00  0.00     0.243 C 
ATOM     16  O   PRO d   1       0.962   7.298   4.498  0.00  0.00    -0.271 OA
ATOM     17  N   PRO d   1       1.175   9.522   4.392  0.00  0.00    -0.337 N 
ATOM     18  CA  PRO d   1      -0.232   9.761   4.673  0.00  0.00     0.091 C 
ATOM     19  CD  PRO d   1       1.910  10.768   4.187  0.00  0.00    -0.001 C 
ATOM     20  CB  PRO d   1      -0.287  11.257   5.031  0.00  0.00    -0.036 C 
ATOM     21  H36 PRO d   1      -0.573   9.142   5.516  0.00  0.00     0.087 H 
ATOM     22  CG  PRO d   1       1.134  11.735   5.033  0.00  0.00    -0.048 C 
ATOM     23  H37 PRO d   1      -0.738  11.396   6.025  0.00  0.00     0.036 H 
ATOM     24  H38 PRO d   1      -0.874  11.808   4.282  0.00  0.00     0.036 H 
ATOM     25  H39 PRO d   1       1.530  11.745   6.059  0.00  0.00     0.035 H 
ATOM     26  H40 PRO d   1       1.195  12.747   4.606  0.00  0.00     0.035 H 
ATOM     27  H41 PRO d   1       1.901  11.067   3.128  0.00  0.00     0.064 H 
ATOM     28  H42 PRO d   1       2.950  10.680   4.534  0.00  0.00     0.064 H 
BRANCH  18  29
ATOM     29  C   PRO d   1      -1.091   9.474   3.453  0.00  0.00     0.241 C 
ATOM     30  O   PRO d   1      -0.644   9.635   2.312  0.00  0.00    -0.271 OA
ATOM     31  N   TYR d   1      -2.320   9.035   3.688  0.00  0.00    -0.346 N 
ATOM     32  H43 TYR d   1      -2.627   8.907   4.631  0.00  0.00     0.163 HD
BRANCH  31  33
ATOM     33  CA  TYR d   1      -3.220   8.740   2.597  0.00  0.00     0.093 C 
ATOM     34  H44 TYR d   1      -2.639   8.250   1.802  0.00  0.00     0.088 H 
BRANCH  33  35
ATOM     35  C   TYR d   1      -3.800  10.028   2.035  0.00  0.00     0.241 C 
ATOM     36  O   TYR d   1      -4.725  10.616   2.595  0.00  0.00    -0.271 OA
ATOM     37  N   GLU d   1      -3.200  10.468   0.951  0.00  0.00    -0.346 N 
ATOM     38  H52 GLU d   1      -2.389   9.983   0.624  0.00  0.00     0.163 HD
BRANCH  37  39
ATOM     39  CA  GLU d   1      -3.660  11.621   0.212  0.00  0.00     0.090 C 
ATOM     40  H53 GLU d   1      -4.753  11.573   0.101  0.00  0.00     0.087 H 
BRANCH  39  41
ATOM     41  C   GLU d   1      -3.007  11.583  -1.159  0.00  0.00     0.241 C 
ATOM     42  O   GLU d   1      -1.789  11.740  -1.273  0.00  0.00    -0.271 OA
ATOM     43  N   ASP d   1      -3.803  11.327  -2.184  0.00  0.00    -0.344 N 
ATOM     44  H58 ASP d   1      -4.788  11.248  -2.032  0.00  0.00     0.163 HD
BRANCH  43  45
ATOM     45  CA  ASP d   1      -3.273  11.157  -3.531  0.00  0.00     0.105 C 
ATOM     46  H59 ASP d   1      -2.434  10.448  -3.481  0.00  0.00     0.090 H 
BRANCH  45  47
ATOM     47  C   ASP d   1      -2.751  12.477  -4.076  0.00  0.00     0.197 C 
ATOM     48  O   ASP d   1      -1.542  12.558  -4.377  0.00  0.00    -0.646 OA
ATOM     49  OXT ASP d   1      -3.541  13.437  -4.165  0.00  0.00    -0.646 OA
ENDBRANCH  45  47
BRANCH  45  50
ATOM     50  CB  ASP d   1      -4.332  10.580  -4.472  0.00  0.00     0.044 C 
ATOM     51  H60 ASP d   1      -5.158  11.301  -4.563  0.00  0.00     0.053 H 
ATOM     52  H61 ASP d   1      -4.712   9.639  -4.046  0.00  0.00     0.053 H 
BRANCH  50  53
ATOM     53  CG  ASP d   1      -3.772  10.302  -5.850  0.00  0.00     0.175 C 
ATOM     54  OD1 ASP d   1      -2.916   9.396  -5.979  0.00  0.00    -0.648 OA
ATOM     55  OD2 ASP d   1      -4.172  10.988  -6.814  0.00  0.00    -0.648 OA
ENDBRANCH  50  53
ENDBRANCH  45  50
ENDBRANCH  43  45
ENDBRANCH  39  41
BRANCH  39  56
ATOM     56  CB  GLU d   1      -3.291  12.914   0.938  0.00  0.00    -0.029 C 
ATOM     57  H54 GLU d   1      -2.238  13.148   0.721  0.00  0.00     0.037 H 
ATOM     58  H55 GLU d   1      -3.416  12.755   2.019  0.00  0.00     0.037 H 
BRANCH  56  59
ATOM     59  CG  GLU d   1      -4.142  14.097   0.524  0.00  0.00     0.018 C 
ATOM     60  H56 GLU d   1      -4.239  14.095  -0.572  0.00  0.00     0.049 H 
ATOM     61  H57 GLU d   1      -3.640  15.021   0.846  0.00  0.00     0.049 H 
BRANCH  59  62
ATOM     62  CD  GLU d   1      -5.528  14.061   1.133  0.00  0.00     0.172 C 
ATOM     63  OE1 GLU d   1      -5.674  14.437   2.318  0.00  0.00    -0.648 OA
ATOM     64  OE2 GLU d   1      -6.483  13.669   0.433  0.00  0.00    -0.648 OA
ENDBRANCH  59  62
ENDBRANCH  56  59
ENDBRANCH  39  56
ENDBRANCH  37  39
ENDBRANCH  33  35
BRANCH  33  65
ATOM     65  CB  TYR d   1      -4.338   7.779   3.020  0.00  0.00    -0.014 C 
ATOM     66  H45 TYR d   1      -4.863   8.208   3.886  0.00  0.00     0.043 H 
ATOM     67  H46 TYR d   1      -3.887   6.817   3.304  0.00  0.00     0.043 H 
BRANCH  65  68
ATOM     68  CG  TYR d   1      -5.343   7.536   1.916  0.00  0.00    -0.056 A 
ATOM     69  CD1 TYR d   1      -5.089   6.608   0.919  0.00  0.00    -0.074 A 
ATOM     70  CE1 TYR d   1      -5.989   6.398  -0.106  0.00  0.00    -0.051 A 
ATOM     71  H47 TYR d   1      -4.168   6.037   0.945  0.00  0.00     0.084 H 
ATOM     72  CZ  TYR d   1      -7.158   7.123  -0.146  0.00  0.00     0.065 A 
ATOM     73  H49 TYR d   1      -5.776   5.665  -0.876  0.00  0.00     0.087 H 
ATOM     74  CE2 TYR d   1      -7.433   8.057   0.832  0.00  0.00    -0.051 A 
ATOM     75  CD2 TYR d   1      -6.529   8.258   1.855  0.00  0.00    -0.074 A 
ATOM     76  H50 TYR d   1      -8.353   8.629   0.797  0.00  0.00     0.087 H 
ATOM     77  H48 TYR d   1      -6.747   8.991   2.623  0.00  0.00     0.084 H 
BRANCH  72  78
ATOM     78  OH  TYR d   1      -8.054   6.913  -1.166  0.00  0.00    -0.361 OA
ATOM     79  H51 TYR d   1      -7.717   6.244  -1.750  0.00  0.00     0.217 HD
ENDBRANCH  72  78
ENDBRANCH  65  68
ENDBRANCH  33  65
ENDBRANCH  31  33
ENDBRANCH  18  29
ENDBRANCH   4  15
BRANCH   1  80
ATOM     80  CA  PRO d   1       4.099   5.592   6.849  0.00  0.00     0.092 C 
ATOM     81  N   PRO d   1       4.966   5.782   8.005  0.00  0.00    -0.337 N 
ATOM     82  C   PRO d   1       6.284   5.945   7.894  0.00  0.00     0.243 C 
ATOM     83  CD  PRO d   1       4.214   5.704   9.259  0.00  0.00    -0.001 C 
ATOM     84  O   PRO d   1       6.896   5.625   6.870  0.00  0.00    -0.271 OA
ATOM     85  CG  PRO d   1       3.076   4.795   8.897  0.00  0.00    -0.048 C 
ATOM     86  H27 PRO d   1       3.849   6.695   9.566  0.00  0.00     0.064 H 
ATOM     87  H28 PRO d   1       4.827   5.273  10.064  0.00  0.00     0.064 H 
ATOM     88  CB  PRO d   1       2.796   5.026   7.445  0.00  0.00    -0.036 C 
ATOM     89  H25 PRO d   1       3.358   3.746   9.068  0.00  0.00     0.035 H 
ATOM     90  H26 PRO d   1       2.188   5.039   9.499  0.00  0.00     0.035 H 
ATOM     91  H23 PRO d   1       2.529   4.080   6.952  0.00  0.00     0.036 H 
ATOM     92  H24 PRO d   1       1.975   5.747   7.324  0.00  0.00     0.036 H 
ATOM     93  H22 PRO d   1       4.545   4.885   6.134  0.00  0.00     0.087 H 
BRANCH  82  94
ATOM     94  CA  PRO d   1       7.031   6.524   9.088  0.00  0.00     0.092 C 
ATOM     95  N   PRO d   1       8.387   6.005   9.171  0.00  0.00    -0.337 N 
ATOM     96  C   GLU d   1       8.645   4.788   9.654  0.00  0.00     0.243 C 
ATOM     97  CD  PRO d   1       9.385   6.969   8.669  0.00  0.00    -0.001 C 
ATOM     98  O   GLU d   1       7.773   4.116  10.209  0.00  0.00    -0.271 OA
ATOM     99  CG  PRO d   1       8.556   8.147   8.225  0.00  0.00    -0.048 C 
ATOM    100  H20 PRO d   1       9.948   6.546   7.824  0.00  0.00     0.064 H 
ATOM    101  H21 PRO d   1      10.084   7.260   9.467  0.00  0.00     0.064 H 
ATOM    102  CB  PRO d   1       7.246   8.027   8.927  0.00  0.00    -0.036 C 
ATOM    103  H18 PRO d   1       9.052   9.088   8.504  0.00  0.00     0.035 H 
ATOM    104  H19 PRO d   1       8.408   8.119   7.135  0.00  0.00     0.035 H 
ATOM    105  H16 PRO d   1       7.285   8.521   9.909  0.00  0.00     0.036 H 
ATOM    106  H17 PRO d   1       6.441   8.472   8.325  0.00  0.00     0.036 H 
ATOM    107  H15 PRO d   1       6.470   6.304  10.008  0.00  0.00     0.087 H 
BRANCH  96 108
ATOM    108  CA  GLU d   1      10.052   4.236   9.517  0.00  0.00     0.090 C 
ATOM    109  H10 GLU d   1      10.775   5.065   9.502  0.00  0.00     0.087 H 
BRANCH 108 110
ATOM    110  N   GLU d   1      10.335   3.366  10.646  0.00  0.00    -0.346 N 
ATOM    111  C   GLU d   1      11.421   3.543  11.383  0.00  0.00     0.249 C 
ATOM    112  O   GLU d   1      12.307   4.340  11.073  0.00  0.00    -0.271 OA
ATOM    113  H9  GLU d   1       9.702   2.625  10.869  0.00  0.00     0.163 HD
BRANCH 111 114
ATOM    114  CA  GLU d   1      11.552   2.683  12.633  0.00  0.00     0.176 C 
ATOM    115  H4  GLU d   1      10.566   2.612  13.116  0.00  0.00     0.099 H 
BRANCH 114 116
ATOM    116  N   GLU d   1      11.995   1.315  12.289  0.00  0.00    -0.066 N 
ATOM    117  H1  GLU d   1      12.074   0.766  13.131  0.00  0.00     0.275 HD
ATOM    118  H2  GLU d   1      12.891   1.357  11.830  0.00  0.00     0.275 HD
ATOM    119  H3  GLU d   1      11.321   0.889  11.672  0.00  0.00     0.275 HD
ENDBRANCH 114 116
BRANCH 114 120
ATOM    120  CB  GLU d   1      12.523   3.361  13.607  0.00  0.00    -0.021 C 
ATOM    121  H5  GLU d   1      12.159   4.380  13.802  0.00  0.00     0.037 H 
ATOM    122  H6  GLU d   1      13.512   3.410  13.128  0.00  0.00     0.037 H 
BRANCH 120 123
ATOM    123  CG  GLU d   1      12.677   2.648  14.943  0.00  0.00     0.018 C 
ATOM    124  H7  GLU d   1      11.677   2.458  15.359  0.00  0.00     0.049 H 
ATOM    125  H8  GLU d   1      13.241   3.299  15.627  0.00  0.00     0.049 H 
BRANCH 123 126
ATOM    126  CD  GLU d   1      13.407   1.330  14.814  0.00  0.00     0.172 C 
ATOM    127  OE1 GLU d   1      14.648   1.339  14.787  0.00  0.00    -0.648 OA
ATOM    128  OE2 GLU d   1      12.735   0.284  14.703  0.00  0.00    -0.648 OA
ENDBRANCH 123 126
ENDBRANCH 120 123
ENDBRANCH 114 120
ENDBRANCH 111 114
ENDBRANCH 108 110
BRANCH 108 129
ATOM    129  CB  GLU d   1      10.153   3.445   8.206  0.00  0.00    -0.029 C 
ATOM    130  H11 GLU d   1      10.072   4.154   7.369  0.00  0.00     0.037 H 
ATOM    131  H12 GLU d   1       9.314   2.734   8.167  0.00  0.00     0.037 H 
BRANCH 129 132
ATOM    132  CG  GLU d   1      11.448   2.662   8.042  0.00  0.00     0.018 C 
ATOM    133  H13 GLU d   1      11.611   2.055   8.944  0.00  0.00     0.049 H 
ATOM    134  H14 GLU d   1      12.279   3.373   7.923  0.00  0.00     0.049 H 
BRANCH 132 135
ATOM    135  CD  GLU d   1      11.414   1.747   6.839  0.00  0.00     0.172 C 
ATOM    136  OE1 GLU d   1      10.964   0.586   6.974  0.00  0.00    -0.648 OA
ATOM    137  OE2 GLU d   1      11.836   2.175   5.747  0.00  0.00    -0.648 OA
ENDBRANCH 132 135
ENDBRANCH 129 132
ENDBRANCH 108 129
ENDBRANCH  96 108
ENDBRANCH  82  94
ENDBRANCH   1  80
TORSDOF 28
