REMARK WARNING: 32 MAX_TORS EXCEEDED!!!
REMARK  33 active torsions:
REMARK  status: ('A' for Active; 'I' for Inactive)
REMARK    1  A    between atoms: N_1  and  CA_2 
REMARK    2  A    between atoms: CA_2  and  C_3 
REMARK    3  A    between atoms: CA_2  and  CB_5 
REMARK       I    between atoms: C_3  and  N_9 
REMARK    4  A    between atoms: CB_5  and  CG_6 
REMARK    5  A    between atoms: N_9  and  CA_10 
REMARK    6  A    between atoms: CA_10  and  C_11 
REMARK    7  A    between atoms: CA_10  and  CB_13 
REMARK       I    between atoms: C_11  and  N_15 
REMARK    8  A    between atoms: CB_13  and  OG_14 
REMARK    9  A    between atoms: N_15  and  CA_16 
REMARK   10  A    between atoms: CA_16  and  C_17 
REMARK   11  A    between atoms: CA_16  and  CB_19 
REMARK       I    between atoms: C_17  and  N_26 
REMARK   12  A    between atoms: CB_19  and  CG_20 
REMARK   13  A    between atoms: CG_20  and  CD_21 
REMARK   14  A    between atoms: CD_21  and  NE_22 
REMARK       I    between atoms: NE_22  and  CZ_23 
REMARK       I    between atoms: CZ_23  and  NH1_24 
REMARK   15  A    between atoms: N_26  and  CA_27 
REMARK   16  A    between atoms: CA_27  and  C_28 
REMARK   17  A    between atoms: CA_27  and  CB_30 
REMARK       I    between atoms: C_28  and  N_34 
REMARK   18  A    between atoms: CB_30  and  CG1_31 
REMARK   19  A    between atoms: CB_30  and  CG2_32 
REMARK   20  A    between atoms: CG1_31  and  CD1_33 
REMARK   21  A    between atoms: N_34  and  CA_35 
REMARK   22  A    between atoms: CA_35  and  C_36 
REMARK   23  A    between atoms: CA_35  and  CB_38 
REMARK       I    between atoms: C_36  and  N_48 
REMARK   24  A    between atoms: CB_38  and  CG_39 
REMARK   25  A    between atoms: N_48  and  CA_49 
REMARK   26  A    between atoms: CA_49  and  C_50 
REMARK   27  A    between atoms: CA_49  and  CB_52 
REMARK       I    between atoms: C_50  and  N_62 
REMARK   28  A    between atoms: CB_52  and  CG_53 
REMARK   29  A    between atoms: N_62  and  CA_63 
REMARK   30  A    between atoms: CA_63  and  C_64 
REMARK   31  A    between atoms: CA_63  and  CB_66 
REMARK   32  A    between atoms: CB_66  and  CG1_67 
REMARK   33  A    between atoms: CB_66  and  CG2_68 
ROOT
ATOM      1  C   ILE d   1      -3.644   4.963  -8.184  0.00  0.00     0.241 C 
ATOM      2  O   ILE d   1      -3.268   5.951  -7.555  0.00  0.00    -0.271 OA
ATOM      3  N   TRP d   1      -3.639   4.905  -9.512  0.00  0.00    -0.346 N 
ATOM      4  H36 TRP d   1      -3.957   4.072  -9.965  0.00  0.00     0.163 HD
ENDROOT
BRANCH   1   5
ATOM      5  CA  ILE d   1      -4.150   3.721  -7.460  0.00  0.00     0.092 C 
ATOM      6  H26 ILE d   1      -4.164   2.882  -8.172  0.00  0.00     0.088 H 
BRANCH   5   7
ATOM      7  N   ILE d   1      -3.268   3.361  -6.355  0.00  0.00    -0.346 N 
ATOM      8  C   ARG d   1      -2.183   2.618  -6.545  0.00  0.00     0.241 C 
ATOM      9  O   ARG d   1      -1.850   2.187  -7.650  0.00  0.00    -0.271 OA
ATOM     10  H25 ILE d   1      -3.485   3.681  -5.433  0.00  0.00     0.163 HD
BRANCH   8  11
ATOM     11  CA  ARG d   1      -1.347   2.316  -5.304  0.00  0.00     0.089 C 
ATOM     12  H13 ARG d   1      -1.190   3.254  -4.751  0.00  0.00     0.087 H 
BRANCH  11  13
ATOM     13  N   ARG d   1      -2.038   1.374  -4.430  0.00  0.00    -0.346 N 
ATOM     14  C   SER d   1      -2.368   0.155  -4.843  0.00  0.00     0.243 C 
ATOM     15  O   SER d   1      -2.116  -0.259  -5.975  0.00  0.00    -0.271 OA
ATOM     16  H12 ARG d   1      -2.269   1.653  -3.498  0.00  0.00     0.163 HD
BRANCH  14  17
ATOM     17  CA  SER d   1      -3.087  -0.729  -3.830  0.00  0.00     0.109 C 
ATOM     18  H8  SER d   1      -3.513  -1.593  -4.360  0.00  0.00     0.090 H 
BRANCH  17  19
ATOM     19  N   SER d   1      -2.160  -1.219  -2.817  0.00  0.00    -0.344 N 
ATOM     20  C   ASP d   1      -1.378  -2.272  -3.038  0.00  0.00     0.249 C 
ATOM     21  O   ASP d   1      -1.382  -2.898  -4.098  0.00  0.00    -0.271 OA
ATOM     22  H7  SER d   1      -2.111  -0.752  -1.934  0.00  0.00     0.163 HD
BRANCH  20  23
ATOM     23  CA  ASP d   1      -0.455  -2.677  -1.894  0.00  0.00     0.185 C 
ATOM     24  H4  ASP d   1      -1.034  -2.676  -0.959  0.00  0.00     0.100 H 
BRANCH  23  25
ATOM     25  N   ASP d   1       0.108  -4.034  -2.113  0.00  0.00    -0.066 N 
ATOM     26  H1  ASP d   1       0.713  -4.275  -1.343  0.00  0.00     0.275 HD
ATOM     27  H2  ASP d   1       0.636  -4.044  -2.971  0.00  0.00     0.275 HD
ATOM     28  H3  ASP d   1      -0.643  -4.704  -2.173  0.00  0.00     0.275 HD
ENDBRANCH  23  25
BRANCH  23  29
ATOM     29  CB  ASP d   1       0.704  -1.684  -1.769  0.00  0.00     0.050 C 
ATOM     30  H5  ASP d   1       0.583  -0.902  -2.533  0.00  0.00     0.052 H 
ATOM     31  H6  ASP d   1       1.649  -2.221  -1.940  0.00  0.00     0.052 H 
BRANCH  29  32
ATOM     32  CG  ASP d   1       0.758  -1.026  -0.405  0.00  0.00     0.175 C 
ATOM     33  OD1 ASP d   1      -0.030  -0.086  -0.168  0.00  0.00    -0.648 OA
ATOM     34  OD2 ASP d   1       1.587  -1.450   0.427  0.00  0.00    -0.648 OA
ENDBRANCH  29  32
ENDBRANCH  23  29
ENDBRANCH  20  23
ENDBRANCH  17  19
BRANCH  17  35
ATOM     35  CB  SER d   1      -4.226   0.052  -3.171  0.00  0.00     0.044 C 
ATOM     36  H9  SER d   1      -5.082  -0.622  -3.019  0.00  0.00     0.077 H 
ATOM     37  H10 SER d   1      -4.523   0.880  -3.832  0.00  0.00     0.077 H 
BRANCH  35  38
ATOM     38  OG  SER d   1      -3.825   0.581  -1.918  0.00  0.00    -0.398 OA
ATOM     39  H11 SER d   1      -4.549   1.060  -1.531  0.00  0.00     0.209 HD
ENDBRANCH  35  38
ENDBRANCH  17  35
ENDBRANCH  14  17
ENDBRANCH  11  13
BRANCH  11  40
ATOM     40  CB  ARG d   1       0.016   1.755  -5.714  0.00  0.00    -0.036 C 
ATOM     41  H14 ARG d   1       0.270   2.151  -6.709  0.00  0.00     0.036 H 
ATOM     42  H15 ARG d   1      -0.060   0.659  -5.764  0.00  0.00     0.036 H 
BRANCH  40  43
ATOM     43  CG  ARG d   1       1.138   2.115  -4.754  0.00  0.00    -0.048 C 
ATOM     44  H16 ARG d   1       0.988   1.573  -3.809  0.00  0.00     0.035 H 
ATOM     45  H17 ARG d   1       1.113   3.198  -4.564  0.00  0.00     0.035 H 
BRANCH  43  46
ATOM     46  CD  ARG d   1       2.497   1.745  -5.325  0.00  0.00     0.009 C 
ATOM     47  H18 ARG d   1       2.373   0.900  -6.019  0.00  0.00     0.064 H 
ATOM     48  H19 ARG d   1       3.160   1.447  -4.499  0.00  0.00     0.064 H 
BRANCH  46  49
ATOM     49  NE  ARG d   1       3.112   2.859  -6.044  0.00  0.00    -0.227 N 
ATOM     50  CZ  ARG d   1       3.770   3.853  -5.450  0.00  0.00     0.665 C 
ATOM     51  NH1 ARG d   1       3.895   3.880  -4.129  0.00  0.00    -0.235 N 
ATOM     52  NH2 ARG d   1       4.303   4.823  -6.180  0.00  0.00    -0.235 N 
ATOM     53  H21 ARG d   1       4.405   4.652  -3.676  0.00  0.00     0.174 HD
ATOM     54  H22 ARG d   1       3.482   3.130  -3.557  0.00  0.00     0.174 HD
ATOM     55  H23 ARG d   1       4.209   4.807  -7.206  0.00  0.00     0.174 HD
ATOM     56  H24 ARG d   1       4.811   5.593  -5.721  0.00  0.00     0.174 HD
ATOM     57  H20 ARG d   1       3.032   2.876  -7.071  0.00  0.00     0.177 HD
ENDBRANCH  46  49
ENDBRANCH  43  46
ENDBRANCH  40  43
ENDBRANCH  11  40
ENDBRANCH   8  11
ENDBRANCH   5   7
BRANCH   5  58
ATOM     58  CB  ILE d   1      -5.589   3.974  -6.976  0.00  0.00    -0.030 C 
ATOM     59  H27 ILE d   1      -6.162   4.420  -7.803  0.00  0.00     0.043 H 
BRANCH  58  60
ATOM     60  CG1 ILE d   1      -5.591   4.955  -5.802  0.00  0.00    -0.063 C 
ATOM     61  H28 ILE d   1      -4.804   5.704  -5.973  0.00  0.00     0.033 H 
ATOM     62  H29 ILE d   1      -5.371   4.396  -4.881  0.00  0.00     0.033 H 
BRANCH  60  63
ATOM     63  CD1 ILE d   1      -6.909   5.677  -5.621  0.00  0.00    -0.076 C 
ATOM     64  H33 ILE d   1      -6.837   6.362  -4.763  0.00  0.00     0.027 H 
ATOM     65  H34 ILE d   1      -7.707   4.943  -5.438  0.00  0.00     0.027 H 
ATOM     66  H35 ILE d   1      -7.141   6.251  -6.530  0.00  0.00     0.027 H 
ENDBRANCH  60  63
ENDBRANCH  58  60
BRANCH  58  67
ATOM     67  CG2 ILE d   1      -6.254   2.664  -6.582  0.00  0.00    -0.071 C 
ATOM     68  H30 ILE d   1      -6.242   1.974  -7.439  0.00  0.00     0.028 H 
ATOM     69  H31 ILE d   1      -7.294   2.857  -6.281  0.00  0.00     0.028 H 
ATOM     70  H32 ILE d   1      -5.707   2.213  -5.741  0.00  0.00     0.028 H 
ENDBRANCH  58  67
ENDBRANCH   5  58
ENDBRANCH   1   5
BRANCH   3  71
ATOM     71  CA  TRP d   1      -3.181   6.026 -10.325  0.00  0.00     0.093 C 
ATOM     72  H37 TRP d   1      -2.854   6.833  -9.653  0.00  0.00     0.088 H 
BRANCH  71  73
ATOM     73  C   TRP d   1      -4.307   6.555 -11.206  0.00  0.00     0.241 C 
ATOM     74  O   TRP d   1      -4.502   6.088 -12.329  0.00  0.00    -0.271 OA
ATOM     75  N   TRP d   1      -5.047   7.532 -10.691  0.00  0.00    -0.346 N 
ATOM     76  H46 TRP d   1      -4.838   7.869  -9.773  0.00  0.00     0.163 HD
BRANCH  75  77
ATOM     77  CA  TRP d   1      -6.155   8.124 -11.431  0.00  0.00     0.093 C 
ATOM     78  H47 TRP d   1      -6.777   7.312 -11.836  0.00  0.00     0.088 H 
BRANCH  77  79
ATOM     79  C   TRP d   1      -5.644   8.968 -12.594  0.00  0.00     0.241 C 
ATOM     80  O   TRP d   1      -5.702  10.198 -12.555  0.00  0.00    -0.271 OA
ATOM     81  N   VAL d   1      -5.144   8.302 -13.629  0.00  0.00    -0.344 N 
ATOM     82  H56 VAL d   1      -5.123   7.303 -13.602  0.00  0.00     0.163 HD
BRANCH  81  83
ATOM     83  CA  VAL d   1      -4.625   8.992 -14.802  0.00  0.00     0.099 C 
ATOM     84  H57 VAL d   1      -4.408  10.032 -14.518  0.00  0.00     0.090 H 
BRANCH  83  85
ATOM     85  C   VAL d   1      -5.649   9.001 -15.932  0.00  0.00     0.197 C 
ATOM     86  O   VAL d   1      -5.436   9.740 -16.917  0.00  0.00    -0.646 OA
ATOM     87  OXT VAL d   1      -6.656   8.270 -15.823  0.00  0.00    -0.646 OA
ENDBRANCH  83  85
BRANCH  83  88
ATOM     88  CB  VAL d   1      -3.324   8.343 -15.310  0.00  0.00    -0.032 C 
ATOM     89  H58 VAL d   1      -3.573   7.362 -15.742  0.00  0.00     0.042 H 
BRANCH  88  90
ATOM     90  CG1 VAL d   1      -2.690   9.195 -16.398  0.00  0.00    -0.071 C 
ATOM     91  H59 VAL d   1      -1.764   8.715 -16.747  0.00  0.00     0.028 H 
ATOM     92  H60 VAL d   1      -2.457  10.191 -15.994  0.00  0.00     0.028 H 
ATOM     93  H61 VAL d   1      -3.390   9.295 -17.240  0.00  0.00     0.028 H 
ENDBRANCH  88  90
BRANCH  88  94
ATOM     94  CG2 VAL d   1      -2.352   8.125 -14.159  0.00  0.00    -0.071 C 
ATOM     95  H62 VAL d   1      -2.832   7.507 -13.386  0.00  0.00     0.028 H 
ATOM     96  H63 VAL d   1      -2.069   9.097 -13.729  0.00  0.00     0.028 H 
ATOM     97  H64 VAL d   1      -1.452   7.613 -14.531  0.00  0.00     0.028 H 
ENDBRANCH  88  94
ENDBRANCH  83  88
ENDBRANCH  81  83
ENDBRANCH  77  79
BRANCH  77  98
ATOM     98  CB  TRP d   1      -7.016   8.982 -10.501  0.00  0.00    -0.012 C 
ATOM     99  H48 TRP d   1      -6.564   9.983 -10.433  0.00  0.00     0.044 H 
ATOM    100  H49 TRP d   1      -7.024   8.515  -9.505  0.00  0.00     0.044 H 
BRANCH  98 101
ATOM    101  CG  TRP d   1      -8.434   9.132 -10.966  0.00  0.00    -0.028 A 
ATOM    102  CD1 TRP d   1      -9.015   8.525 -12.042  0.00  0.00    -0.015 A 
ATOM    103  NE1 TRP d   1     -10.330   8.912 -12.149  0.00  0.00    -0.365 N 
ATOM    104  H50 TRP d   1      -8.511   7.835 -12.717  0.00  0.00     0.112 H 
ATOM    105  CE2 TRP d   1     -10.620   9.783 -11.131  0.00  0.00     0.042 A 
ATOM    106  H51 TRP d   1     -10.989   8.599 -12.876  0.00  0.00     0.165 HD
ATOM    107  CD2 TRP d   1      -9.449   9.945 -10.367  0.00  0.00    -0.002 A 
ATOM    108  CZ2 TRP d   1     -11.808  10.438 -10.821  0.00  0.00    -0.056 A 
ATOM    109  CE3 TRP d   1      -9.481  10.795  -9.258  0.00  0.00    -0.070 A 
ATOM    110  CZ3 TRP d   1     -10.661  11.444  -8.950  0.00  0.00    -0.082 A 
ATOM    111  H52 TRP d   1      -8.596  10.942  -8.650  0.00  0.00     0.084 H 
ATOM    112  CH2 TRP d   1     -11.811  11.264  -9.729  0.00  0.00    -0.081 A 
ATOM    113  H54 TRP d   1     -10.697  12.104  -8.091  0.00  0.00     0.083 H 
ATOM    114  H55 TRP d   1     -12.721  11.789  -9.462  0.00  0.00     0.083 H 
ATOM    115  H53 TRP d   1     -12.699  10.299 -11.422  0.00  0.00     0.086 H 
ENDBRANCH  98 101
ENDBRANCH  77  98
ENDBRANCH  75  77
ENDBRANCH  71  73
BRANCH  71 116
ATOM    116  CB  TRP d   1      -1.996   5.601 -11.193  0.00  0.00    -0.012 C 
ATOM    117  H38 TRP d   1      -1.844   6.362 -11.972  0.00  0.00     0.044 H 
ATOM    118  H39 TRP d   1      -2.237   4.637 -11.665  0.00  0.00     0.044 H 
BRANCH 116 119
ATOM    119  CG  TRP d   1      -0.719   5.447 -10.424  0.00  0.00    -0.028 A 
ATOM    120  CD1 TRP d   1      -0.539   4.748  -9.264  0.00  0.00    -0.015 A 
ATOM    121  NE1 TRP d   1       0.771   4.837  -8.858  0.00  0.00    -0.365 N 
ATOM    122  H40 TRP d   1      -1.319   4.200  -8.738  0.00  0.00     0.112 H 
ATOM    123  CE2 TRP d   1       1.463   5.604  -9.758  0.00  0.00     0.042 A 
ATOM    124  H41 TRP d   1       1.168   4.399  -8.015  0.00  0.00     0.165 HD
ATOM    125  CD2 TRP d   1       0.555   6.007 -10.758  0.00  0.00    -0.002 A 
ATOM    126  CZ2 TRP d   1       2.805   5.976  -9.779  0.00  0.00    -0.056 A 
ATOM    127  CE3 TRP d   1       1.020   6.805 -11.806  0.00  0.00    -0.070 A 
ATOM    128  CZ3 TRP d   1       2.351   7.175 -11.824  0.00  0.00    -0.082 A 
ATOM    129  H42 TRP d   1       0.348   7.129 -12.592  0.00  0.00     0.084 H 
ATOM    130  CH2 TRP d   1       3.230   6.759 -10.816  0.00  0.00    -0.081 A 
ATOM    131  H44 TRP d   1       2.721   7.797 -12.631  0.00  0.00     0.083 H 
ATOM    132  H45 TRP d   1       4.269   7.064 -10.859  0.00  0.00     0.083 H 
ATOM    133  H43 TRP d   1       3.488   5.656  -9.001  0.00  0.00     0.086 H 
ENDBRANCH 116 119
ENDBRANCH  71 116
ENDBRANCH   3  71
TORSDOF 33
