REMARK WARNING: 32 MAX_TORS EXCEEDED!!!
REMARK  64 active torsions:
REMARK  status: ('A' for Active; 'I' for Inactive)
REMARK    1  A    between atoms: N_1  and  CA_2 
REMARK    2  A    between atoms: CA_2  and  C_3 
REMARK    3  A    between atoms: CA_2  and  CB_5 
REMARK       I    between atoms: C_3  and  N_10 
REMARK    4  A    between atoms: CB_5  and  CG_6 
REMARK    5  A    between atoms: CG_6  and  CD_7 
REMARK    6  A    between atoms: N_10  and  CA_11 
REMARK    7  A    between atoms: CA_11  and  C_12 
REMARK    8  A    between atoms: CA_11  and  CB_14 
REMARK       I    between atoms: C_12  and  N_18 
REMARK    9  A    between atoms: CB_14  and  CG_15 
REMARK   10  A    between atoms: N_18  and  CA_19 
REMARK   11  A    between atoms: CA_19  and  C_20 
REMARK   12  A    between atoms: CA_19  and  CB_22 
REMARK       I    between atoms: C_20  and  N_27 
REMARK   13  A    between atoms: CB_22  and  CG_23 
REMARK   14  A    between atoms: CG_23  and  CD_24 
REMARK       I    between atoms: CD_24  and  NE2_26 
REMARK   15  A    between atoms: N_27  and  CA_28 
REMARK   16  A    between atoms: CA_28  and  C_29 
REMARK   17  A    between atoms: CA_28  and  CB_31 
REMARK       I    between atoms: C_29  and  N_35 
REMARK   18  A    between atoms: CB_31  and  CG_32 
REMARK   19  A    between atoms: CG_32  and  CD1_33 
REMARK   20  A    between atoms: CG_32  and  CD2_34 
REMARK   21  A    between atoms: N_35  and  CA_36 
REMARK   22  A    between atoms: CA_36  and  C_37 
REMARK   23  A    between atoms: CA_36  and  CB_39 
REMARK       I    between atoms: C_37  and  N_41 
REMARK   24  A    between atoms: CB_39  and  OG_40 
REMARK   25  A    between atoms: N_41  and  CA_42 
REMARK   26  A    between atoms: CA_42  and  C_43 
REMARK   27  A    between atoms: CA_42  and  CB_45 
REMARK       I    between atoms: C_43  and  N_52 
REMARK   28  A    between atoms: CB_45  and  CG_46 
REMARK   29  A    between atoms: CG_46  and  CD_47 
REMARK   30  A    between atoms: CD_47  and  NE_48 
REMARK       I    between atoms: NE_48  and  CZ_49 
REMARK       I    between atoms: CZ_49  and  NH1_50 
REMARK       I    between atoms: CZ_49  and  NH2_51 
REMARK   31  A    between atoms: N_52  and  CA_53 
REMARK   32  A    between atoms: CA_53  and  C_54 
REMARK   33  A    between atoms: CA_53  and  CB_56 
REMARK       I    between atoms: C_54  and  N_63 
REMARK   34  A    between atoms: CB_56  and  CG_57 
REMARK   35  A    between atoms: CG_57  and  CD_58 
REMARK   36  A    between atoms: CD_58  and  NE_59 
REMARK       I    between atoms: NE_59  and  CZ_60 
REMARK       I    between atoms: CZ_60  and  NH1_61 
REMARK       I    between atoms: CZ_60  and  NH2_62 
REMARK   37  A    between atoms: N_63  and  CA_64 
REMARK   38  A    between atoms: CA_64  and  C_65 
REMARK   39  A    between atoms: CA_64  and  CB_67 
REMARK       I    between atoms: C_65  and  N_71 
REMARK   40  A    between atoms: CB_67  and  CG_68 
REMARK   41  A    between atoms: CG_68  and  CD1_69 
REMARK   42  A    between atoms: CG_68  and  CD2_70 
REMARK   43  A    between atoms: N_71  and  CA_72 
REMARK   44  A    between atoms: CA_72  and  C_73 
REMARK   45  A    between atoms: CA_72  and  CB_75 
REMARK       I    between atoms: C_73  and  N_76 
REMARK   46  A    between atoms: N_76  and  CA_77 
REMARK   47  A    between atoms: CA_77  and  C_78 
REMARK   48  A    between atoms: CA_77  and  CB_80 
REMARK       I    between atoms: C_78  and  N_81 
REMARK   49  A    between atoms: N_81  and  CA_82 
REMARK   50  A    between atoms: CA_82  and  C_83 
REMARK   51  A    between atoms: CA_82  and  CB_85 
REMARK       I    between atoms: C_83  and  N_89 
REMARK   52  A    between atoms: CB_85  and  CG_86 
REMARK   53  A    between atoms: CG_86  and  CD1_87 
REMARK   54  A    between atoms: CG_86  and  CD2_88 
REMARK   55  A    between atoms: N_89  and  CA_90 
REMARK   56  A    between atoms: CA_90  and  C_91 
REMARK   57  A    between atoms: CA_90  and  CB_93 
REMARK       I    between atoms: C_91  and  N_100 
REMARK   58  A    between atoms: CB_93  and  CG_94 
REMARK   59  A    between atoms: CG_94  and  CD_95 
REMARK   60  A    between atoms: CD_95  and  NE_96 
REMARK       I    between atoms: NE_96  and  CZ_97 
REMARK       I    between atoms: CZ_97  and  NH1_98 
REMARK   61  A    between atoms: N_100  and  CA_101 
REMARK   62  A    between atoms: CA_101  and  C_102 
REMARK   63  A    between atoms: CA_101  and  CB_104 
REMARK   64  A    between atoms: CB_104  and  CG_105 
REMARK       I    between atoms: CG_105  and  ND2_107 
ROOT
ATOM      1  CA  ARG d   1       7.192   5.316   4.064  0.00  0.00     0.089 C 
ATOM      2  H51 ARG d   1       7.527   6.362   4.115  0.00  0.00     0.087 H 
ENDROOT
BRANCH   1   3
ATOM      3  N   ARG d   1       7.387   4.705   5.373  0.00  0.00    -0.346 N 
ATOM      4  C   ARG d   1       6.810   5.197   6.464  0.00  0.00     0.241 C 
ATOM      5  O   ARG d   1       6.082   6.190   6.448  0.00  0.00    -0.271 OA
ATOM      6  H50 ARG d   1       7.969   3.896   5.452  0.00  0.00     0.163 HD
BRANCH   4   7
ATOM      7  CA  ARG d   1       7.097   4.461   7.769  0.00  0.00     0.089 C 
ATOM      8  H38 ARG d   1       6.419   4.847   8.545  0.00  0.00     0.087 H 
BRANCH   7   9
ATOM      9  N   ARG d   1       6.862   3.029   7.621  0.00  0.00    -0.346 N 
ATOM     10  C   SER d   1       5.633   2.523   7.610  0.00  0.00     0.243 C 
ATOM     11  O   SER d   1       4.622   3.216   7.722  0.00  0.00    -0.271 OA
ATOM     12  H37 ARG d   1       7.644   2.413   7.526  0.00  0.00     0.163 HD
BRANCH  10  13
ATOM     13  CA  SER d   1       5.530   1.010   7.448  0.00  0.00     0.109 C 
ATOM     14  H33 SER d   1       4.555   0.772   6.998  0.00  0.00     0.090 H 
BRANCH  13  15
ATOM     15  N   SER d   1       6.578   0.508   6.568  0.00  0.00    -0.344 N 
ATOM     16  C   LEU d   1       6.629   0.844   5.283  0.00  0.00     0.241 C 
ATOM     17  O   LEU d   1       5.807   1.592   4.753  0.00  0.00    -0.271 OA
ATOM     18  H32 SER d   1       7.276  -0.104   6.940  0.00  0.00     0.163 HD
BRANCH  16  19
ATOM     19  CA  LEU d   1       7.778   0.249   4.474  0.00  0.00     0.089 C 
ATOM     20  H22 LEU d   1       8.058   0.965   3.687  0.00  0.00     0.087 H 
BRANCH  19  21
ATOM     21  N   LEU d   1       8.943   0.013   5.319  0.00  0.00    -0.346 N 
ATOM     22  C   GLN d   1       9.686   1.015   5.776  0.00  0.00     0.241 C 
ATOM     23  O   GLN d   1       9.448   2.196   5.523  0.00  0.00    -0.271 OA
ATOM     24  H21 LEU d   1       9.188  -0.926   5.560  0.00  0.00     0.163 HD
BRANCH  22  25
ATOM     25  CA  GLN d   1      10.876   0.628   6.649  0.00  0.00     0.090 C 
ATOM     26  H14 GLN d   1      11.392   1.547   6.963  0.00  0.00     0.087 H 
BRANCH  25  27
ATOM     27  N   GLN d   1      10.437  -0.086   7.843  0.00  0.00    -0.346 N 
ATOM     28  C   ASP d   1       9.602   0.467   8.717  0.00  0.00     0.241 C 
ATOM     29  O   ASP d   1       9.147   1.603   8.583  0.00  0.00    -0.271 OA
ATOM     30  H13 GLN d   1      10.772  -1.014   8.008  0.00  0.00     0.163 HD
BRANCH  28  31
ATOM     31  CA  ASP d   1       9.224  -0.389   9.922  0.00  0.00     0.098 C 
ATOM     32  H10 ASP d   1       8.206  -0.118  10.237  0.00  0.00     0.088 H 
BRANCH  31  33
ATOM     33  N   ASP d   1       9.240  -1.807   9.580  0.00  0.00    -0.345 N 
ATOM     34  C   GLU d   1       8.324  -2.341   8.779  0.00  0.00     0.249 C 
ATOM     35  O   GLU d   1       7.410  -1.686   8.277  0.00  0.00    -0.271 OA
ATOM     36  H9  ASP d   1       9.958  -2.392   9.958  0.00  0.00     0.163 HD
BRANCH  34  37
ATOM     37  CA  GLU d   1       8.458  -3.835   8.505  0.00  0.00     0.176 C 
ATOM     38  H4  GLU d   1       8.049  -4.045   7.506  0.00  0.00     0.099 H 
BRANCH  37  39
ATOM     39  N   GLU d   1       9.858  -4.244   8.526  0.00  0.00    -0.066 N 
ATOM     40  H1  GLU d   1       9.922  -5.233   8.343  0.00  0.00     0.275 HD
ATOM     41  H2  GLU d   1      10.253  -4.044   9.431  0.00  0.00     0.275 HD
ATOM     42  H3  GLU d   1      10.367  -3.738   7.818  0.00  0.00     0.275 HD
ENDBRANCH  37  39
BRANCH  37  43
ATOM     43  CB  GLU d   1       7.657  -4.629   9.538  0.00  0.00    -0.021 C 
ATOM     44  H5  GLU d   1       7.812  -4.170  10.525  0.00  0.00     0.037 H 
ATOM     45  H6  GLU d   1       8.034  -5.662   9.551  0.00  0.00     0.037 H 
BRANCH  43  46
ATOM     46  CG  GLU d   1       6.165  -4.666   9.254  0.00  0.00     0.018 C 
ATOM     47  H7  GLU d   1       5.931  -5.598   8.719  0.00  0.00     0.049 H 
ATOM     48  H8  GLU d   1       5.905  -3.805   8.621  0.00  0.00     0.049 H 
BRANCH  46  49
ATOM     49  CD  GLU d   1       5.329  -4.609  10.517  0.00  0.00     0.172 C 
ATOM     50  OE1 GLU d   1       5.605  -5.395  11.448  0.00  0.00    -0.648 OA
ATOM     51  OE2 GLU d   1       4.398  -3.778  10.577  0.00  0.00    -0.648 OA
ENDBRANCH  46  49
ENDBRANCH  43  46
ENDBRANCH  37  43
ENDBRANCH  34  37
ENDBRANCH  31  33
BRANCH  31  52
ATOM     52  CB  ASP d   1      10.185  -0.112  11.080  0.00  0.00     0.043 C 
ATOM     53  H11 ASP d   1      11.152   0.211  10.667  0.00  0.00     0.052 H 
ATOM     54  H12 ASP d   1      10.323  -1.040  11.654  0.00  0.00     0.052 H 
BRANCH  52  55
ATOM     55  CG  ASP d   1       9.669   0.966  12.013  0.00  0.00     0.175 C 
ATOM     56  OD1 ASP d   1       8.659   0.719  12.706  0.00  0.00    -0.648 OA
ATOM     57  OD2 ASP d   1      10.275   2.057  12.053  0.00  0.00    -0.648 OA
ENDBRANCH  52  55
ENDBRANCH  31  52
ENDBRANCH  28  31
ENDBRANCH  25  27
BRANCH  25  58
ATOM     58  CB  GLN d   1      11.853  -0.232   5.846  0.00  0.00    -0.030 C 
ATOM     59  H15 GLN d   1      12.227   0.364   5.000  0.00  0.00     0.037 H 
ATOM     60  H16 GLN d   1      11.311  -1.110   5.465  0.00  0.00     0.037 H 
BRANCH  58  61
ATOM     61  CG  GLN d   1      13.045  -0.717   6.656  0.00  0.00     0.011 C 
ATOM     62  H17 GLN d   1      13.326  -1.720   6.303  0.00  0.00     0.047 H 
ATOM     63  H18 GLN d   1      12.754  -0.769   7.715  0.00  0.00     0.047 H 
BRANCH  61  64
ATOM     64  CD  GLN d   1      14.247   0.197   6.527  0.00  0.00     0.215 C 
ATOM     65  OE1 GLN d   1      14.793   0.375   5.438  0.00  0.00    -0.274 OA
ATOM     66  NE2 GLN d   1      14.668   0.783   7.643  0.00  0.00    -0.370 N 
ATOM     67  H19 GLN d   1      15.457   1.397   7.618  0.00  0.00     0.159 HD
ATOM     68  H20 GLN d   1      14.196   0.610   8.507  0.00  0.00     0.159 HD
ENDBRANCH  61  64
ENDBRANCH  58  61
ENDBRANCH  25  58
ENDBRANCH  22  25
ENDBRANCH  19  21
BRANCH  19  69
ATOM     69  CB  LEU d   1       7.329  -1.055   3.811  0.00  0.00    -0.035 C 
ATOM     70  H23 LEU d   1       8.194  -1.484   3.283  0.00  0.00     0.037 H 
ATOM     71  H24 LEU d   1       6.539  -0.813   3.085  0.00  0.00     0.037 H 
BRANCH  69  72
ATOM     72  CG  LEU d   1       6.784  -2.116   4.768  0.00  0.00    -0.059 C 
ATOM     73  H25 LEU d   1       6.356  -1.607   5.644  0.00  0.00     0.038 H 
BRANCH  72  74
ATOM     74  CD1 LEU d   1       5.684  -2.924   4.098  0.00  0.00    -0.073 C 
ATOM     75  H26 LEU d   1       5.305  -3.681   4.801  0.00  0.00     0.028 H 
ATOM     76  H27 LEU d   1       6.088  -3.423   3.205  0.00  0.00     0.028 H 
ATOM     77  H28 LEU d   1       4.863  -2.253   3.804  0.00  0.00     0.028 H 
ENDBRANCH  72  74
BRANCH  72  78
ATOM     78  CD2 LEU d   1       7.904  -3.029   5.244  0.00  0.00    -0.073 C 
ATOM     79  H29 LEU d   1       8.689  -2.427   5.725  0.00  0.00     0.028 H 
ATOM     80  H30 LEU d   1       8.330  -3.566   4.384  0.00  0.00     0.028 H 
ATOM     81  H31 LEU d   1       7.503  -3.754   5.968  0.00  0.00     0.028 H 
ENDBRANCH  72  78
ENDBRANCH  69  72
ENDBRANCH  19  69
ENDBRANCH  16  19
ENDBRANCH  13  15
BRANCH  13  82
ATOM     82  CB  SER d   1       5.616   0.332   8.817  0.00  0.00     0.044 C 
ATOM     83  H34 SER d   1       6.625   0.481   9.229  0.00  0.00     0.077 H 
ATOM     84  H35 SER d   1       5.425  -0.745   8.697  0.00  0.00     0.077 H 
BRANCH  82  85
ATOM     85  OG  SER d   1       4.664   0.874   9.716  0.00  0.00    -0.398 OA
ATOM     86  H36 SER d   1       4.827   1.803   9.826  0.00  0.00     0.209 HD
ENDBRANCH  82  85
ENDBRANCH  13  82
ENDBRANCH  10  13
ENDBRANCH   7   9
BRANCH   7  87
ATOM     87  CB  ARG d   1       8.540   4.719   8.207  0.00  0.00    -0.036 C 
ATOM     88  H39 ARG d   1       9.144   4.925   7.311  0.00  0.00     0.036 H 
ATOM     89  H40 ARG d   1       8.919   3.814   8.705  0.00  0.00     0.036 H 
BRANCH  87  90
ATOM     90  CG  ARG d   1       8.685   5.891   9.164  0.00  0.00    -0.048 C 
ATOM     91  H41 ARG d   1       7.881   6.616   8.966  0.00  0.00     0.035 H 
ATOM     92  H42 ARG d   1       9.661   6.371   8.997  0.00  0.00     0.035 H 
BRANCH  90  93
ATOM     93  CD  ARG d   1       8.598   5.439  10.613  0.00  0.00     0.009 C 
ATOM     94  H43 ARG d   1       8.858   4.372  10.668  0.00  0.00     0.064 H 
ATOM     95  H44 ARG d   1       7.567   5.584  10.969  0.00  0.00     0.064 H 
BRANCH  93  96
ATOM     96  NE  ARG d   1       9.506   6.191  11.476  0.00  0.00    -0.227 N 
ATOM     97  CZ  ARG d   1       9.288   7.444  11.869  0.00  0.00     0.665 C 
ATOM     98  NH1 ARG d   1       8.195   8.089  11.480  0.00  0.00    -0.235 N 
ATOM     99  NH2 ARG d   1      10.165   8.054  12.655  0.00  0.00    -0.235 N 
ATOM    100  H46 ARG d   1       8.032   9.058  11.788  0.00  0.00     0.174 HD
ATOM    101  H47 ARG d   1       7.510   7.620  10.871  0.00  0.00     0.174 HD
ATOM    102  H48 ARG d   1      11.015   7.559  12.960  0.00  0.00     0.174 HD
ATOM    103  H49 ARG d   1       9.996   9.023  12.960  0.00  0.00     0.174 HD
ATOM    104  H45 ARG d   1      10.365   5.724  11.799  0.00  0.00     0.177 HD
ENDBRANCH  93  96
ENDBRANCH  90  93
ENDBRANCH  87  90
ENDBRANCH   7  87
ENDBRANCH   4   7
ENDBRANCH   1   3
BRANCH   1 105
ATOM    105  C   ARG d   1       5.719   5.298   3.668  0.00  0.00     0.241 C 
ATOM    106  O   ARG d   1       5.242   6.196   2.974  0.00  0.00    -0.271 OA
ATOM    107  N   LEU d   1       5.004   4.271   4.114  0.00  0.00    -0.346 N 
ATOM    108  H63 LEU d   1       5.450   3.573   4.675  0.00  0.00     0.163 HD
BRANCH 107 109
ATOM    109  CA  LEU d   1       3.585   4.136   3.806  0.00  0.00     0.089 C 
ATOM    110  H64 LEU d   1       3.450   4.260   2.721  0.00  0.00     0.087 H 
BRANCH 109 111
ATOM    111  C   LEU d   1       2.770   5.208   4.522  0.00  0.00     0.241 C 
ATOM    112  O   LEU d   1       1.892   5.834   3.927  0.00  0.00    -0.271 OA
ATOM    113  N   ALA d   1       3.065   5.415   5.801  0.00  0.00    -0.346 N 
ATOM    114  H74 ALA d   1       3.789   4.873   6.228  0.00  0.00     0.163 HD
BRANCH 113 115
ATOM    115  CA  ALA d   1       2.360   6.411   6.597  0.00  0.00     0.086 C 
ATOM    116  H75 ALA d   1       1.289   6.159   6.596  0.00  0.00     0.086 H 
BRANCH 115 117
ATOM    117  C   ALA d   1       2.523   7.806   6.001  0.00  0.00     0.240 C 
ATOM    118  O   ALA d   1       1.634   8.649   6.118  0.00  0.00    -0.271 OA
ATOM    119  N   ALA d   1       3.664   8.041   5.362  0.00  0.00    -0.346 N 
ATOM    120  H79 ALA d   1       4.348   7.314   5.301  0.00  0.00     0.163 HD
BRANCH 119 121
ATOM    121  CA  ALA d   1       3.944   9.333   4.748  0.00  0.00     0.086 C 
ATOM    122  H80 ALA d   1       3.648  10.122   5.455  0.00  0.00     0.086 H 
BRANCH 121 123
ATOM    123  C   ALA d   1       3.142   9.516   3.465  0.00  0.00     0.240 C 
ATOM    124  O   ALA d   1       2.734  10.627   3.129  0.00  0.00    -0.271 OA
ATOM    125  N   LEU d   1       2.920   8.417   2.750  0.00  0.00    -0.346 N 
ATOM    126  H84 LEU d   1       3.279   7.542   3.076  0.00  0.00     0.163 HD
BRANCH 125 127
ATOM    127  CA  LEU d   1       2.166   8.456   1.503  0.00  0.00     0.089 C 
ATOM    128  H85 LEU d   1       2.671   9.149   0.813  0.00  0.00     0.087 H 
BRANCH 127 129
ATOM    129  C   LEU d   1       0.745   8.958   1.740  0.00  0.00     0.241 C 
ATOM    130  O   LEU d   1       0.301   9.917   1.109  0.00  0.00    -0.271 OA
ATOM    131  N   ARG d   1       0.037   8.304   2.655  0.00  0.00    -0.346 N 
ATOM    132  H95 ARG d   1       0.454   7.532   3.135  0.00  0.00     0.163 HD
BRANCH 131 133
ATOM    133  CA  ARG d   1      -1.333   8.684   2.977  0.00  0.00     0.089 C 
ATOM    134  H96 ARG d   1      -1.935   8.628   2.058  0.00  0.00     0.087 H 
BRANCH 133 135
ATOM    135  C   ARG d   1      -1.392  10.112   3.508  0.00  0.00     0.241 C 
ATOM    136  O   ARG d   1      -2.230  10.908   3.085  0.00  0.00    -0.271 OA
ATOM    137  N   ASN d   1      -0.496  10.430   4.436  0.00  0.00    -0.344 N 
ATOM    138 8H10 ASN d   1       0.160   9.738   4.738  0.00  0.00     0.163 HD
BRANCH 137 139
ATOM    139  CA  ASN d   1      -0.445  11.764   5.025  0.00  0.00     0.104 C 
ATOM    140 9H10 ASN d   1      -1.471  12.154   5.092  0.00  0.00     0.090 H 
BRANCH 139 141
ATOM    141  C   ASN d   1       0.378  12.711   4.158  0.00  0.00     0.197 C 
ATOM    142  O   ASN d   1       1.618  12.719   4.305  0.00  0.00    -0.646 OA
ATOM    143  OXT ASN d   1      -0.225  13.435   3.338  0.00  0.00    -0.646 OA
ENDBRANCH 139 141
BRANCH 139 144
ATOM    144  CB  ASN d   1       0.147  11.700   6.434  0.00  0.00     0.037 C 
ATOM    145 0H11 ASN d   1       1.229  11.889   6.372  0.00  0.00     0.051 H 
ATOM    146 1H11 ASN d   1      -0.027  10.694   6.845  0.00  0.00     0.051 H 
BRANCH 144 147
ATOM    147  CG  ASN d   1      -0.472  12.721   7.368  0.00  0.00     0.217 C 
ATOM    148  OD1 ASN d   1      -0.387  13.927   7.132  0.00  0.00    -0.274 OA
ATOM    149  ND2 ASN d   1      -1.098  12.243   8.437  0.00  0.00    -0.370 N 
ATOM    150 2H11 ASN d   1      -1.525  12.870   9.088  0.00  0.00     0.159 HD
ATOM    151 3H11 ASN d   1      -1.142  11.256   8.591  0.00  0.00     0.159 HD
ENDBRANCH 144 147
ENDBRANCH 139 144
ENDBRANCH 137 139
ENDBRANCH 133 135
BRANCH 133 152
ATOM    152  CB  ARG d   1      -1.923   7.720   4.008  0.00  0.00    -0.036 C 
ATOM    153  H97 ARG d   1      -1.883   6.702   3.594  0.00  0.00     0.036 H 
ATOM    154  H98 ARG d   1      -2.971   8.002   4.188  0.00  0.00     0.036 H 
BRANCH 152 155
ATOM    155  CG  ARG d   1      -1.188   7.727   5.338  0.00  0.00    -0.048 C 
ATOM    156  H99 ARG d   1      -1.341   8.701   5.826  0.00  0.00     0.035 H 
ATOM    157 0H10 ARG d   1      -0.114   7.574   5.154  0.00  0.00     0.035 H 
BRANCH 155 158
ATOM    158  CD  ARG d   1      -1.693   6.628   6.259  0.00  0.00     0.009 C 
ATOM    159 1H10 ARG d   1      -1.062   5.737   6.128  0.00  0.00     0.064 H 
ATOM    160 2H10 ARG d   1      -2.731   6.386   5.987  0.00  0.00     0.064 H 
BRANCH 158 161
ATOM    161  NE  ARG d   1      -1.655   7.031   7.663  0.00  0.00    -0.227 N 
ATOM    162  CZ  ARG d   1      -1.858   6.195   8.679  0.00  0.00     0.665 C 
ATOM    163  NH1 ARG d   1      -2.114   4.913   8.453  0.00  0.00    -0.235 N 
ATOM    164  NH2 ARG d   1      -1.805   6.644   9.926  0.00  0.00    -0.235 N 
ATOM    165 4H10 ARG d   1      -2.270   4.272   9.244  0.00  0.00     0.174 HD
ATOM    166 5H10 ARG d   1      -2.157   4.559   7.487  0.00  0.00     0.174 HD
ATOM    167 6H10 ARG d   1      -1.607   7.638  10.107  0.00  0.00     0.174 HD
ATOM    168 7H10 ARG d   1      -1.962   5.998  10.713  0.00  0.00     0.174 HD
ATOM    169 3H10 ARG d   1      -1.460   8.019   7.879  0.00  0.00     0.177 HD
ENDBRANCH 158 161
ENDBRANCH 155 158
ENDBRANCH 152 155
ENDBRANCH 133 152
ENDBRANCH 131 133
ENDBRANCH 127 129
BRANCH 127 170
ATOM    170  CB  LEU d   1       2.128   7.068   0.861  0.00  0.00    -0.035 C 
ATOM    171  H86 LEU d   1       1.199   6.571   1.178  0.00  0.00     0.037 H 
ATOM    172  H87 LEU d   1       2.993   6.498   1.230  0.00  0.00     0.037 H 
BRANCH 170 173
ATOM    173  CG  LEU d   1       2.172   7.059  -0.668  0.00  0.00    -0.059 C 
ATOM    174  H88 LEU d   1       1.701   7.983  -1.034  0.00  0.00     0.038 H 
BRANCH 173 175
ATOM    175  CD1 LEU d   1       3.610   7.027  -1.161  0.00  0.00    -0.073 C 
ATOM    176  H89 LEU d   1       3.620   7.021  -2.261  0.00  0.00     0.028 H 
ATOM    177  H90 LEU d   1       4.107   6.120  -0.785  0.00  0.00     0.028 H 
ATOM    178  H91 LEU d   1       4.143   7.916  -0.794  0.00  0.00     0.028 H 
ENDBRANCH 173 175
BRANCH 173 179
ATOM    179  CD2 LEU d   1       1.392   5.873  -1.215  0.00  0.00    -0.073 C 
ATOM    180  H92 LEU d   1       0.356   5.915  -0.847  0.00  0.00     0.028 H 
ATOM    181  H93 LEU d   1       1.863   4.938  -0.879  0.00  0.00     0.028 H 
ATOM    182  H94 LEU d   1       1.393   5.909  -2.314  0.00  0.00     0.028 H 
ENDBRANCH 173 179
ENDBRANCH 170 173
ENDBRANCH 127 170
ENDBRANCH 125 127
ENDBRANCH 121 123
BRANCH 121 183
ATOM    183  CB  ALA d   1       5.432   9.472   4.467  0.00  0.00    -0.049 C 
ATOM    184  H81 ALA d   1       5.628  10.451   4.004  0.00  0.00     0.030 H 
ATOM    185  H82 ALA d   1       5.752   8.672   3.783  0.00  0.00     0.030 H 
ATOM    186  H83 ALA d   1       5.992   9.394   5.410  0.00  0.00     0.030 H 
ENDBRANCH 121 183
ENDBRANCH 119 121
ENDBRANCH 115 117
BRANCH 115 187
ATOM    187  CB  ALA d   1       2.858   6.388   8.034  0.00  0.00    -0.049 C 
ATOM    188  H76 ALA d   1       2.317   7.144   8.622  0.00  0.00     0.030 H 
ATOM    189  H77 ALA d   1       3.935   6.611   8.052  0.00  0.00     0.030 H 
ATOM    190  H78 ALA d   1       2.682   5.392   8.467  0.00  0.00     0.030 H 
ENDBRANCH 115 187
ENDBRANCH 113 115
ENDBRANCH 109 111
BRANCH 109 191
ATOM    191  CB  LEU d   1       3.085   2.747   4.206  0.00  0.00    -0.035 C 
ATOM    192  H65 LEU d   1       3.266   2.616   5.283  0.00  0.00     0.037 H 
ATOM    193  H66 LEU d   1       3.665   2.001   3.644  0.00  0.00     0.037 H 
BRANCH 191 194
ATOM    194  CG  LEU d   1       1.600   2.492   3.940  0.00  0.00    -0.059 C 
ATOM    195  H67 LEU d   1       1.287   3.117   3.091  0.00  0.00     0.038 H 
BRANCH 194 196
ATOM    196  CD1 LEU d   1       1.365   1.035   3.575  0.00  0.00    -0.073 C 
ATOM    197  H68 LEU d   1       0.293   0.872   3.388  0.00  0.00     0.028 H 
ATOM    198  H69 LEU d   1       1.694   0.392   4.404  0.00  0.00     0.028 H 
ATOM    199  H70 LEU d   1       1.937   0.787   2.669  0.00  0.00     0.028 H 
ENDBRANCH 194 196
BRANCH 194 200
ATOM    200  CD2 LEU d   1       0.768   2.880   5.154  0.00  0.00    -0.073 C 
ATOM    201  H71 LEU d   1       0.952   3.936   5.402  0.00  0.00     0.028 H 
ATOM    202  H72 LEU d   1       1.050   2.248   6.009  0.00  0.00     0.028 H 
ATOM    203  H73 LEU d   1      -0.299   2.736   4.928  0.00  0.00     0.028 H 
ENDBRANCH 194 200
ENDBRANCH 191 194
ENDBRANCH 109 191
ENDBRANCH 107 109
ENDBRANCH   1 105
BRANCH   1 204
ATOM    204  CB  ARG d   1       8.025   4.586   3.008  0.00  0.00    -0.036 C 
ATOM    205  H52 ARG d   1       7.897   5.103   2.046  0.00  0.00     0.036 H 
ATOM    206  H53 ARG d   1       7.652   3.555   2.923  0.00  0.00     0.036 H 
BRANCH 204 207
ATOM    207  CG  ARG d   1       9.509   4.535   3.332  0.00  0.00    -0.048 C 
ATOM    208  H54 ARG d   1       9.637   4.555   4.424  0.00  0.00     0.035 H 
ATOM    209  H55 ARG d   1      10.002   5.412   2.888  0.00  0.00     0.035 H 
BRANCH 207 210
ATOM    210  CD  ARG d   1      10.156   3.274   2.782  0.00  0.00     0.009 C 
ATOM    211  H56 ARG d   1       9.403   2.473   2.752  0.00  0.00     0.064 H 
ATOM    212  H57 ARG d   1      10.980   2.978   3.448  0.00  0.00     0.064 H 
BRANCH 210 213
ATOM    213  NE  ARG d   1      10.686   3.474   1.435  0.00  0.00    -0.227 N 
ATOM    214  CZ  ARG d   1      11.419   2.572   0.786  0.00  0.00     0.665 C 
ATOM    215  NH1 ARG d   1      11.711   1.409   1.355  0.00  0.00    -0.235 N 
ATOM    216  NH2 ARG d   1      11.861   2.834  -0.437  0.00  0.00    -0.235 N 
ATOM    217  H59 ARG d   1      12.279   0.715   0.847  0.00  0.00     0.174 HD
ATOM    218  H60 ARG d   1      11.370   1.200   2.304  0.00  0.00     0.174 HD
ATOM    219  H61 ARG d   1      11.637   3.735  -0.883  0.00  0.00     0.174 HD
ATOM    220  H62 ARG d   1      12.428   2.136  -0.940  0.00  0.00     0.174 HD
ATOM    221  H58 ARG d   1      10.480   4.365   0.960  0.00  0.00     0.177 HD
ENDBRANCH 210 213
ENDBRANCH 207 210
ENDBRANCH 204 207
ENDBRANCH   1 204
TORSDOF 64
