REMARK WARNING: 32 MAX_TORS EXCEEDED!!!
REMARK  46 active torsions:
REMARK  status: ('A' for Active; 'I' for Inactive)
REMARK    1  A    between atoms: N_1  and  CA_2 
REMARK    2  A    between atoms: CA_2  and  C_3 
REMARK    3  A    between atoms: CA_2  and  CB_5 
REMARK       I    between atoms: C_3  and  N_9 
REMARK    4  A    between atoms: CB_5  and  CG_6 
REMARK       I    between atoms: CG_6  and  ND2_8 
REMARK    5  A    between atoms: N_9  and  CA_10 
REMARK    6  A    between atoms: CA_10  and  C_11 
REMARK    7  A    between atoms: CA_10  and  CB_13 
REMARK       I    between atoms: C_11  and  N_17 
REMARK    8  A    between atoms: CB_13  and  CG1_14 
REMARK    9  A    between atoms: CB_13  and  CG2_15 
REMARK   10  A    between atoms: CG1_14  and  CD1_16 
REMARK   11  A    between atoms: N_17  and  CA_18 
REMARK   12  A    between atoms: CA_18  and  CB_19 
REMARK   13  A    between atoms: CA_18  and  C_26 
REMARK   14  A    between atoms: CB_19  and  CG2_20 
REMARK   15  A    between atoms: CB_19  and  OG1_21 
REMARK   16  A    between atoms: OG1_21  and  P_22 
REMARK       I    between atoms: C_26  and  N_28 
REMARK   17  A    between atoms: N_28  and  CA_29 
REMARK   18  A    between atoms: CA_29  and  C_30 
REMARK   19  A    between atoms: CA_29  and  CB_32 
REMARK       I    between atoms: C_30  and  N_37 
REMARK   20  A    between atoms: CB_32  and  CG_33 
REMARK   21  A    between atoms: CG_33  and  CD_34 
REMARK       I    between atoms: CD_34  and  NE2_36 
REMARK   22  A    between atoms: CA_38  and  C_39 
REMARK       I    between atoms: C_39  and  N_44 
REMARK   23  A    between atoms: N_44  and  CA_45 
REMARK   24  A    between atoms: CA_45  and  C_46 
REMARK   25  A    between atoms: CA_45  and  CB_48 
REMARK       I    between atoms: C_46  and  N_51 
REMARK   26  A    between atoms: CB_48  and  OG1_49 
REMARK   27  A    between atoms: CB_48  and  CG2_50 
REMARK   28  A    between atoms: N_51  and  CA_52 
REMARK   29  A    between atoms: CA_52  and  C_53 
REMARK   30  A    between atoms: CA_52  and  CB_55 
REMARK       I    between atoms: C_53  and  N_60 
REMARK   31  A    between atoms: CB_55  and  CG_56 
REMARK   32  A    between atoms: CG_56  and  CD_57 
REMARK       I    between atoms: CD_57  and  NE2_59 
REMARK   33  A    between atoms: N_60  and  CA_61 
REMARK   34  A    between atoms: CA_61  and  C_62 
REMARK   35  A    between atoms: CA_61  and  CB_64 
REMARK       I    between atoms: C_62  and  N_69 
REMARK   36  A    between atoms: CB_64  and  CG_65 
REMARK   37  A    between atoms: CG_65  and  CD_66 
REMARK       I    between atoms: CD_66  and  NE2_68 
REMARK   38  A    between atoms: N_69  and  CA_70 
REMARK   39  A    between atoms: CA_70  and  C_71 
REMARK   40  A    between atoms: CA_70  and  CB_73 
REMARK       I    between atoms: C_71  and  N_75 
REMARK   41  A    between atoms: CB_73  and  OG_74 
REMARK   42  A    between atoms: N_75  and  CA_76 
REMARK   43  A    between atoms: CA_76  and  C_77 
REMARK   44  A    between atoms: CA_76  and  CB_79 
REMARK   45  A    between atoms: CB_79  and  OG1_80 
REMARK   46  A    between atoms: CB_79  and  CG2_81 
ROOT
ATOM      1  C   GLN d   1      -3.457 -28.246   4.694  0.00  0.00     0.243 C 
ATOM      2  O   GLN d   1      -3.324 -27.456   3.760  0.00  0.00    -0.271 OA
ATOM      3  N   PRO d   1      -2.429 -28.568   5.502  0.00  0.00    -0.337 N 
ATOM      4  CA  PRO d   1      -1.087 -28.004   5.328  0.00  0.00     0.091 C 
ATOM      5  CB  PRO d   1      -0.375 -28.387   6.626  0.00  0.00    -0.036 C 
ATOM      6  CG  PRO d   1      -1.056 -29.633   7.073  0.00  0.00    -0.048 C 
ATOM      7  CD  PRO d   1      -2.492 -29.501   6.644  0.00  0.00    -0.001 C 
ATOM      8  H34 PRO d   1      -1.139 -26.911   5.216  0.00  0.00     0.087 H 
ATOM      9  H35 PRO d   1      -0.485 -27.593   7.379  0.00  0.00     0.036 H 
ATOM     10  H36 PRO d   1       0.694 -28.573   6.443  0.00  0.00     0.036 H 
ATOM     11  H37 PRO d   1      -0.992 -29.732   8.167  0.00  0.00     0.035 H 
ATOM     12  H38 PRO d   1      -0.595 -30.512   6.598  0.00  0.00     0.035 H 
ATOM     13  H39 PRO d   1      -2.900 -30.474   6.334  0.00  0.00     0.064 H 
ATOM     14  H40 PRO d   1      -3.108 -29.087   7.456  0.00  0.00     0.064 H 
ENDROOT
BRANCH   4  15
ATOM     15  C   PRO d   1      -0.358 -28.596   4.126  0.00  0.00     0.241 C 
ATOM     16  O   PRO d   1      -0.223 -29.814   4.008  0.00  0.00    -0.271 OA
ATOM     17  N   THR d   1       0.111 -27.726   3.237  0.00  0.00    -0.344 N 
ATOM     18  H41 THR d   1      -0.030 -26.748   3.390  0.00  0.00     0.163 HD
BRANCH  17  19
ATOM     19  CA  THR d   1       0.827 -28.164   2.044  0.00  0.00     0.113 C 
ATOM     20  H42 THR d   1       0.328 -29.060   1.646  0.00  0.00     0.091 H 
BRANCH  19  21
ATOM     21  C   THR d   1       2.272 -28.522   2.380  0.00  0.00     0.243 C 
ATOM     22  O   THR d   1       2.718 -28.342   3.513  0.00  0.00    -0.271 OA
ATOM     23  N   GLN d   1       2.997 -29.029   1.389  0.00  0.00    -0.346 N 
ATOM     24  H48 GLN d   1       2.577 -29.150   0.490  0.00  0.00     0.163 HD
BRANCH  23  25
ATOM     25  CA  GLN d   1       4.391 -29.413   1.581  0.00  0.00     0.090 C 
ATOM     26  H49 GLN d   1       4.452 -30.079   2.454  0.00  0.00     0.087 H 
BRANCH  25  27
ATOM     27  C   GLN d   1       5.260 -28.187   1.843  0.00  0.00     0.241 C 
ATOM     28  O   GLN d   1       4.793 -27.052   1.758  0.00  0.00    -0.271 OA
ATOM     29  N   GLN d   1       6.529 -28.425   2.163  0.00  0.00    -0.346 N 
ATOM     30  H56 GLN d   1       6.849 -29.371   2.217  0.00  0.00     0.163 HD
BRANCH  29  31
ATOM     31  CA  GLN d   1       7.463 -27.341   2.436  0.00  0.00     0.090 C 
ATOM     32  H57 GLN d   1       7.306 -26.550   1.688  0.00  0.00     0.087 H 
BRANCH  31  33
ATOM     33  C   GLN d   1       8.906 -27.827   2.333  0.00  0.00     0.241 C 
ATOM     34  O   GLN d   1       9.269 -28.853   2.910  0.00  0.00    -0.271 OA
ATOM     35  N   SER d   1       9.723 -27.086   1.593  0.00  0.00    -0.344 N 
ATOM     36  H64 SER d   1       9.367 -26.264   1.148  0.00  0.00     0.163 HD
BRANCH  35  37
ATOM     37  CA  SER d   1      11.125 -27.441   1.414  0.00  0.00     0.109 C 
ATOM     38  H65 SER d   1      11.218 -28.535   1.482  0.00  0.00     0.090 H 
BRANCH  37  39
ATOM     39  C   SER d   1      11.992 -26.813   2.502  0.00  0.00     0.243 C 
ATOM     40  O   SER d   1      12.194 -25.599   2.524  0.00  0.00    -0.271 OA
ATOM     41  N   THR d   1      12.499 -27.649   3.402  0.00  0.00    -0.342 N 
ATOM     42  H69 THR d   1      12.297 -28.626   3.329  0.00  0.00     0.163 HD
BRANCH  41  43
ATOM     43  CA  THR d   1      13.342 -27.176   4.493  0.00  0.00     0.120 C 
ATOM     44  H70 THR d   1      12.943 -26.215   4.851  0.00  0.00     0.093 H 
BRANCH  43  45
ATOM     45  C   THR d   1      14.775 -26.959   4.019  0.00  0.00     0.199 C 
ATOM     46  O   THR d   1      15.248 -27.757   3.183  0.00  0.00    -0.646 OA
ATOM     47  OXT THR d   1      15.412 -25.991   4.485  0.00  0.00    -0.646 OA
ENDBRANCH  43  45
BRANCH  43  48
ATOM     48  CB  THR d   1      13.322 -28.175   5.650  0.00  0.00     0.061 C 
ATOM     49  H71 THR d   1      13.832 -29.089   5.313  0.00  0.00     0.086 H 
BRANCH  48  50
ATOM     50  OG1 THR d   1      11.991 -28.499   6.010  0.00  0.00    -0.393 OA
ATOM     51  H72 THR d   1      12.001 -29.120   6.729  0.00  0.00     0.210 HD
ENDBRANCH  48  50
BRANCH  48  52
ATOM     52  CG2 THR d   1      14.023 -27.668   6.893  0.00  0.00    -0.050 C 
ATOM     53  H73 THR d   1      13.971 -28.433   7.681  0.00  0.00     0.031 H 
ATOM     54  H74 THR d   1      13.531 -26.748   7.242  0.00  0.00     0.031 H 
ATOM     55  H75 THR d   1      15.076 -27.454   6.659  0.00  0.00     0.031 H 
ENDBRANCH  48  52
ENDBRANCH  43  48
ENDBRANCH  41  43
ENDBRANCH  37  39
BRANCH  37  56
ATOM     56  CB  SER d   1      11.614 -26.994   0.035  0.00  0.00     0.044 C 
ATOM     57  H66 SER d   1      12.700 -27.153  -0.030  0.00  0.00     0.077 H 
ATOM     58  H67 SER d   1      11.391 -25.925  -0.096  0.00  0.00     0.077 H 
BRANCH  56  59
ATOM     59  OG  SER d   1      10.976 -27.730  -0.994  0.00  0.00    -0.398 OA
ATOM     60  H68 SER d   1      11.296 -27.434  -1.838  0.00  0.00     0.209 HD
ENDBRANCH  56  59
ENDBRANCH  37  56
ENDBRANCH  35  37
ENDBRANCH  31  33
BRANCH  31  61
ATOM     61  CB  GLN d   1       7.209 -26.757   3.827  0.00  0.00    -0.030 C 
ATOM     62  H58 GLN d   1       7.704 -27.400   4.570  0.00  0.00     0.037 H 
ATOM     63  H59 GLN d   1       6.124 -26.753   4.010  0.00  0.00     0.037 H 
BRANCH  61  64
ATOM     64  CG  GLN d   1       7.729 -25.340   3.997  0.00  0.00     0.011 C 
ATOM     65  H60 GLN d   1       6.919 -24.636   3.755  0.00  0.00     0.047 H 
ATOM     66  H61 GLN d   1       8.568 -25.187   3.302  0.00  0.00     0.047 H 
BRANCH  64  67
ATOM     67  CD  GLN d   1       8.210 -25.060   5.407  0.00  0.00     0.215 C 
ATOM     68  OE1 GLN d   1       7.512 -25.343   6.381  0.00  0.00    -0.274 OA
ATOM     69  NE2 GLN d   1       9.408 -24.500   5.524  0.00  0.00    -0.370 N 
ATOM     70  H62 GLN d   1       9.777 -24.293   6.430  0.00  0.00     0.159 HD
ATOM     71  H63 GLN d   1       9.942 -24.286   4.706  0.00  0.00     0.159 HD
ENDBRANCH  64  67
ENDBRANCH  61  64
ENDBRANCH  31  61
ENDBRANCH  29  31
ENDBRANCH  25  27
BRANCH  25  72
ATOM     72  CB  GLN d   1       4.909 -30.166   0.354  0.00  0.00    -0.030 C 
ATOM     73  H50 GLN d   1       5.883 -30.611   0.605  0.00  0.00     0.037 H 
ATOM     74  H51 GLN d   1       5.035 -29.446  -0.468  0.00  0.00     0.037 H 
BRANCH  72  75
ATOM     75  CG  GLN d   1       3.981 -31.275  -0.116  0.00  0.00     0.011 C 
ATOM     76  H52 GLN d   1       3.045 -30.823  -0.475  0.00  0.00     0.047 H 
ATOM     77  H53 GLN d   1       3.765 -31.938   0.735  0.00  0.00     0.047 H 
BRANCH  75  78
ATOM     78  CD  GLN d   1       4.582 -32.102  -1.236  0.00  0.00     0.215 C 
ATOM     79  OE1 GLN d   1       5.707 -32.590  -1.127  0.00  0.00    -0.274 OA
ATOM     80  NE2 GLN d   1       3.834 -32.263  -2.321  0.00  0.00    -0.370 N 
ATOM     81  H54 GLN d   1       4.179 -32.799  -3.091  0.00  0.00     0.159 HD
ATOM     82  H55 GLN d   1       2.925 -31.848  -2.368  0.00  0.00     0.159 HD
ENDBRANCH  75  78
ENDBRANCH  72  75
ENDBRANCH  25  72
ENDBRANCH  23  25
ENDBRANCH  19  21
BRANCH  19  83
ATOM     83  CB  THR d   1       0.796 -27.070   0.975  0.00  0.00     0.060 C 
ATOM     84  H43 THR d   1       1.666 -26.417   1.137  0.00  0.00     0.086 H 
BRANCH  83  85
ATOM     85  OG1 THR d   1      -0.385 -26.296   1.085  0.00  0.00    -0.393 OA
ATOM     86  H44 THR d   1      -0.385 -25.624   0.414  0.00  0.00     0.210 HD
ENDBRANCH  83  85
BRANCH  83  87
ATOM     87  CG2 THR d   1       0.861 -27.610  -0.437  0.00  0.00    -0.050 C 
ATOM     88  H45 THR d   1       0.835 -26.774  -1.151  0.00  0.00     0.031 H 
ATOM     89  H46 THR d   1       0.001 -28.272  -0.616  0.00  0.00     0.031 H 
ATOM     90  H47 THR d   1       1.794 -28.177  -0.570  0.00  0.00     0.031 H 
ENDBRANCH  83  87
ENDBRANCH  19  83
ENDBRANCH  17  19
ENDBRANCH   4  15
BRANCH   1  91
ATOM     91  CA  GLN d   1      -4.811 -28.897   4.975  0.00  0.00     0.090 C 
ATOM     92  H27 GLN d   1      -4.754 -29.425   5.939  0.00  0.00     0.087 H 
BRANCH  91  93
ATOM     93  N   GLN d   1      -5.862 -27.890   5.059  0.00  0.00    -0.346 N 
ATOM     94  C   TPO d   1      -6.297 -27.434   6.229  0.00  0.00     0.243 C 
ATOM     95  O   TPO d   1      -5.850 -27.822   7.308  0.00  0.00    -0.271 OA
ATOM     96  H26 GLN d   1      -6.265 -27.534   4.216  0.00  0.00     0.163 HD
BRANCH  94  97
ATOM     97  CA  TPO d   1      -7.400 -26.382   6.173  0.00  0.00     0.114 C 
ATOM     98  H21 TPO d   1      -7.775 -26.323   5.141  0.00  0.00     0.091 H 
BRANCH  97  99
ATOM     99  N   TPO d   1      -8.513 -26.746   7.040  0.00  0.00    -0.344 N 
ATOM    100  C   ILE d   1      -9.652 -27.223   6.547  0.00  0.00     0.241 C 
ATOM    101  O   ILE d   1      -9.840 -27.384   5.342  0.00  0.00    -0.271 OA
ATOM    102  H20 TPO d   1      -8.418 -26.634   8.029  0.00  0.00     0.163 HD
BRANCH 100 103
ATOM    103  CA  ILE d   1     -10.741 -27.562   7.568  0.00  0.00     0.092 C 
ATOM    104  H10 ILE d   1     -10.781 -26.742   8.301  0.00  0.00     0.088 H 
BRANCH 103 105
ATOM    105  N   ILE d   1     -12.061 -27.657   6.944  0.00  0.00    -0.346 N 
ATOM    106  C   ASN d   1     -12.298 -28.427   5.882  0.00  0.00     0.249 C 
ATOM    107  O   ASN d   1     -11.438 -29.117   5.338  0.00  0.00    -0.271 OA
ATOM    108  H9  ILE d   1     -12.814 -27.124   7.329  0.00  0.00     0.163 HD
BRANCH 106 109
ATOM    109  CA  ASN d   1     -13.729 -28.411   5.354  0.00  0.00     0.183 C 
ATOM    110  H4  ASN d   1     -14.394 -28.050   6.152  0.00  0.00     0.099 H 
BRANCH 109 111
ATOM    111  N   ASN d   1     -13.857 -27.514   4.175  0.00  0.00    -0.066 N 
ATOM    112  H1  ASN d   1     -14.810 -27.523   3.848  0.00  0.00     0.275 HD
ATOM    113  H2  ASN d   1     -13.247 -27.836   3.440  0.00  0.00     0.275 HD
ATOM    114  H3  ASN d   1     -13.601 -26.575   4.438  0.00  0.00     0.275 HD
ENDBRANCH 109 111
BRANCH 109 115
ATOM    115  CB  ASN d   1     -14.158 -29.821   4.942  0.00  0.00     0.044 C 
ATOM    116  H5  ASN d   1     -13.257 -30.430   4.777  0.00  0.00     0.051 H 
ATOM    117  H6  ASN d   1     -14.733 -29.756   4.007  0.00  0.00     0.051 H 
BRANCH 115 118
ATOM    118  CG  ASN d   1     -15.016 -30.496   5.995  0.00  0.00     0.217 C 
ATOM    119  OD1 ASN d   1     -14.606 -31.483   6.605  0.00  0.00    -0.274 OA
ATOM    120  ND2 ASN d   1     -16.213 -29.966   6.211  0.00  0.00    -0.370 N 
ATOM    121  H7  ASN d   1     -16.822 -30.369   6.894  0.00  0.00     0.159 HD
ATOM    122  H8  ASN d   1     -16.506 -29.164   5.691  0.00  0.00     0.159 HD
ENDBRANCH 115 118
ENDBRANCH 109 115
ENDBRANCH 106 109
ENDBRANCH 103 105
BRANCH 103 123
ATOM    123  CB  ILE d   1     -10.370 -28.859   8.329  0.00  0.00    -0.030 C 
ATOM    124  H11 ILE d   1     -11.238 -29.159   8.935  0.00  0.00     0.043 H 
BRANCH 123 125
ATOM    125  CG1 ILE d   1      -9.191 -28.605   9.271  0.00  0.00    -0.063 C 
ATOM    126  H12 ILE d   1      -9.224 -27.554   9.595  0.00  0.00     0.033 H 
ATOM    127  H13 ILE d   1      -8.258 -28.789   8.718  0.00  0.00     0.033 H 
BRANCH 125 128
ATOM    128  CD1 ILE d   1      -9.200 -29.485  10.500  0.00  0.00    -0.076 C 
ATOM    129  H17 ILE d   1      -8.328 -29.248  11.127  0.00  0.00     0.027 H 
ATOM    130  H18 ILE d   1      -9.156 -30.541  10.195  0.00  0.00     0.027 H 
ATOM    131  H19 ILE d   1     -10.123 -29.307  11.072  0.00  0.00     0.027 H 
ENDBRANCH 125 128
ENDBRANCH 123 125
BRANCH 123 132
ATOM    132  CG2 ILE d   1     -10.048 -29.999   7.369  0.00  0.00    -0.071 C 
ATOM    133  H14 ILE d   1     -10.905 -30.168   6.700  0.00  0.00     0.028 H 
ATOM    134  H15 ILE d   1      -9.845 -30.915   7.943  0.00  0.00     0.028 H 
ATOM    135  H16 ILE d   1      -9.163 -29.736   6.771  0.00  0.00     0.028 H 
ENDBRANCH 123 132
ENDBRANCH 103 123
ENDBRANCH 100 103
ENDBRANCH  97  99
BRANCH  97 136
ATOM    136  CB  TPO d   1      -6.813 -25.008   6.559  0.00  0.00     0.076 C 
ATOM    137  H22 TPO d   1      -6.468 -25.054   7.603  0.00  0.00     0.087 H 
BRANCH 136 138
ATOM    138  CG2 TPO d   1      -5.631 -24.644   5.670  0.00  0.00    -0.049 C 
ATOM    139  H23 TPO d   1      -5.236 -23.662   5.969  0.00  0.00     0.031 H 
ATOM    140  H24 TPO d   1      -5.960 -24.603   4.621  0.00  0.00     0.031 H 
ATOM    141  H25 TPO d   1      -4.843 -25.404   5.777  0.00  0.00     0.031 H 
ENDBRANCH 136 138
BRANCH 136 142
ATOM    142  OG1 TPO d   1      -7.801 -24.019   6.449  0.00  0.00    -0.275 OA
BRANCH 142 143
ATOM    143  P   TPO d   1      -8.325 -23.354   7.759  0.00  0.00     0.422 P 
ATOM    144  O1P TPO d   1      -8.373 -24.507   8.797  0.00  0.00    -0.617 OA
ATOM    145  O2P TPO d   1      -7.212 -22.355   8.165  0.00  0.00    -0.617 OA
ATOM    146  O3P TPO d   1      -9.658 -22.689   7.577  0.00  0.00    -0.617 OA
ENDBRANCH 142 143
ENDBRANCH 136 142
ENDBRANCH  97 136
ENDBRANCH  94  97
ENDBRANCH  91  93
BRANCH  91 147
ATOM    147  CB  GLN d   1      -5.137 -29.912   3.877  0.00  0.00    -0.030 C 
ATOM    148  H28 GLN d   1      -4.365 -30.696   3.888  0.00  0.00     0.037 H 
ATOM    149  H29 GLN d   1      -5.119 -29.393   2.907  0.00  0.00     0.037 H 
BRANCH 147 150
ATOM    150  CG  GLN d   1      -6.496 -30.573   4.044  0.00  0.00     0.011 C 
ATOM    151  H30 GLN d   1      -7.244 -29.984   3.493  0.00  0.00     0.047 H 
ATOM    152  H31 GLN d   1      -6.753 -30.584   5.113  0.00  0.00     0.047 H 
BRANCH 150 153
ATOM    153  CD  GLN d   1      -6.520 -31.997   3.524  0.00  0.00     0.215 C 
ATOM    154  OE1 GLN d   1      -7.345 -32.348   2.680  0.00  0.00    -0.274 OA
ATOM    155  NE2 GLN d   1      -5.612 -32.825   4.028  0.00  0.00    -0.370 N 
ATOM    156  H32 GLN d   1      -5.579 -33.777   3.723  0.00  0.00     0.159 HD
ATOM    157  H33 GLN d   1      -4.961 -32.497   4.712  0.00  0.00     0.159 HD
ENDBRANCH 150 153
ENDBRANCH 147 150
ENDBRANCH  91 147
ENDBRANCH   1  91
TORSDOF 46
