REMARK WARNING: 32 MAX_TORS EXCEEDED!!!
REMARK  69 active torsions:
REMARK  status: ('A' for Active; 'I' for Inactive)
REMARK    1  A    between atoms: N_1  and  CA_2 
REMARK    2  A    between atoms: CA_2  and  C_3 
REMARK    3  A    between atoms: CA_2  and  CB_5 
REMARK       I    between atoms: C_3  and  N_9 
REMARK    4  A    between atoms: CB_5  and  CG_6 
REMARK    5  A    between atoms: N_9  and  CA_10 
REMARK    6  A    between atoms: CA_10  and  C_11 
REMARK    7  A    between atoms: CA_10  and  CB_13 
REMARK       I    between atoms: C_11  and  N_18 
REMARK    8  A    between atoms: CB_13  and  CG_14 
REMARK    9  A    between atoms: CG_14  and  CD_15 
REMARK   10  A    between atoms: N_18  and  CA_19 
REMARK   11  A    between atoms: CA_19  and  C_20 
REMARK   12  A    between atoms: CA_19  and  CB_22 
REMARK       I    between atoms: C_20  and  N_27 
REMARK   13  A    between atoms: CB_22  and  CG_23 
REMARK   14  A    between atoms: CG_23  and  CD_24 
REMARK   15  A    between atoms: N_27  and  CA_28 
REMARK   16  A    between atoms: CA_28  and  C_29 
REMARK   17  A    between atoms: CA_28  and  CB_31 
REMARK       I    between atoms: C_29  and  N_35 
REMARK   18  A    between atoms: CB_31  and  CG1_32 
REMARK   19  A    between atoms: CB_31  and  CG2_33 
REMARK   20  A    between atoms: CG1_32  and  CD1_34 
REMARK   21  A    between atoms: N_35  and  CA_36 
REMARK   22  A    between atoms: CA_36  and  C_37 
REMARK   23  A    between atoms: CA_36  and  CB_39 
REMARK       I    between atoms: C_37  and  N_44 
REMARK   24  A    between atoms: CB_39  and  CG_40 
REMARK   25  A    between atoms: CG_40  and  CD_41 
REMARK   26  A    between atoms: N_44  and  CA_45 
REMARK   27  A    between atoms: CA_45  and  C_46 
REMARK   28  A    between atoms: CA_45  and  CB_48 
REMARK       I    between atoms: C_46  and  N_55 
REMARK   29  A    between atoms: CB_48  and  CG_49 
REMARK   30  A    between atoms: CG_49  and  CD_50 
REMARK   31  A    between atoms: CD_50  and  NE_51 
REMARK       I    between atoms: NE_51  and  CZ_52 
REMARK       I    between atoms: CZ_52  and  NH1_53 
REMARK   32  A    between atoms: N_55  and  CA_56 
REMARK   33  A    between atoms: CA_56  and  C_57 
REMARK   34  A    between atoms: CA_56  and  CB_59 
REMARK       I    between atoms: C_57  and  N_64 
REMARK   35  A    between atoms: CB_59  and  CG_60 
REMARK   36  A    between atoms: CG_60  and  CD_61 
REMARK       I    between atoms: CD_61  and  NE2_63 
REMARK   37  A    between atoms: N_64  and  CA_65 
REMARK   38  A    between atoms: CA_65  and  C_66 
REMARK   39  A    between atoms: CA_65  and  CB_68 
REMARK       I    between atoms: C_66  and  N_72 
REMARK   40  A    between atoms: CB_68  and  CG_69 
REMARK   41  A    between atoms: CG_69  and  CD1_70 
REMARK   42  A    between atoms: CG_69  and  CD2_71 
REMARK   43  A    between atoms: N_72  and  CA_73 
REMARK   44  A    between atoms: CA_73  and  C_74 
REMARK   45  A    between atoms: CA_73  and  CB_76 
REMARK       I    between atoms: C_74  and  N_81 
REMARK   46  A    between atoms: CB_76  and  CG_77 
REMARK   47  A    between atoms: CG_77  and  CD_78 
REMARK   48  A    between atoms: CD_78  and  CE_79 
REMARK   49  A    between atoms: CE_79  and  NZ_80 
REMARK   50  A    between atoms: N_81  and  CA_82 
REMARK   51  A    between atoms: CA_82  and  C_83 
REMARK   52  A    between atoms: CA_82  and  CB_85 
REMARK       I    between atoms: C_83  and  N_86 
REMARK   53  A    between atoms: N_86  and  CA_87 
REMARK   54  A    between atoms: CA_87  and  C_88 
REMARK   55  A    between atoms: CA_87  and  CB_90 
REMARK       I    between atoms: C_88  and  N_94 
REMARK   56  A    between atoms: CB_90  and  CG_91 
REMARK   57  A    between atoms: CG_91  and  CD1_92 
REMARK   58  A    between atoms: CG_91  and  CD2_93 
REMARK   59  A    between atoms: N_94  and  CA_95 
REMARK   60  A    between atoms: CA_95  and  C_96 
REMARK       I    between atoms: C_96  and  N_98 
REMARK   61  A    between atoms: N_98  and  CA_99 
REMARK   62  A    between atoms: CA_99  and  C_100 
REMARK   63  A    between atoms: CA_99  and  CB_102 
REMARK       I    between atoms: C_100  and  N_105 
REMARK   64  A    between atoms: CB_102  and  CG1_103 
REMARK   65  A    between atoms: CB_102  and  CG2_104 
REMARK   66  A    between atoms: N_105  and  CA_106 
REMARK   67  A    between atoms: CA_106  and  C_107 
REMARK   68  A    between atoms: CA_106  and  CB_109 
REMARK   69  A    between atoms: CB_109  and  CG_110 
ROOT
ATOM      1  CA  GLN d   1       8.030  -1.872   3.814  0.00  0.00     0.090 C 
ATOM      2  H50 GLN d   1       8.882  -1.254   4.132  0.00  0.00     0.087 H 
ENDROOT
BRANCH   1   3
ATOM      3  N   GLN d   1       8.361  -3.272   4.054  0.00  0.00    -0.346 N 
ATOM      4  C   ARG d   1       8.666  -3.717   5.268  0.00  0.00     0.241 C 
ATOM      5  O   ARG d   1       8.691  -2.991   6.262  0.00  0.00    -0.271 OA
ATOM      6  H49 GLN d   1       8.358  -3.913   3.286  0.00  0.00     0.163 HD
BRANCH   4   7
ATOM      7  CA  ARG d   1       8.989  -5.200   5.379  0.00  0.00     0.089 C 
ATOM      8  H37 ARG d   1       8.709  -5.544   6.386  0.00  0.00     0.087 H 
BRANCH   7   9
ATOM      9  N   ARG d   1       8.234  -5.973   4.400  0.00  0.00    -0.346 N 
ATOM     10  C   GLU d   1       6.907  -6.057   4.454  0.00  0.00     0.241 C 
ATOM     11  O   GLU d   1       6.237  -5.509   5.323  0.00  0.00    -0.271 OA
ATOM     12  H36 ARG d   1       8.725  -6.451   3.671  0.00  0.00     0.163 HD
BRANCH  10  13
ATOM     13  CA  GLU d   1       6.246  -6.903   3.370  0.00  0.00     0.090 C 
ATOM     14  H31 GLU d   1       5.175  -6.654   3.338  0.00  0.00     0.087 H 
BRANCH  13  15
ATOM     15  N   GLU d   1       6.826  -6.618   2.063  0.00  0.00    -0.346 N 
ATOM     16  C   ILE d   1       6.773  -5.403   1.529  0.00  0.00     0.241 C 
ATOM     17  O   ILE d   1       6.238  -4.447   2.092  0.00  0.00    -0.271 OA
ATOM     18  H30 GLU d   1       7.274  -7.355   1.557  0.00  0.00     0.163 HD
BRANCH  16  19
ATOM     19  CA  ILE d   1       7.418  -5.240   0.157  0.00  0.00     0.092 C 
ATOM     20  H20 ILE d   1       7.551  -4.166  -0.042  0.00  0.00     0.088 H 
BRANCH  19  21
ATOM     21  N   ILE d   1       8.730  -5.874   0.119  0.00  0.00    -0.346 N 
ATOM     22  C   GLU d   1       9.718  -5.472   0.910  0.00  0.00     0.241 C 
ATOM     23  O   GLU d   1       9.599  -4.556   1.720  0.00  0.00    -0.271 OA
ATOM     24  H19 ILE d   1       8.890  -6.629  -0.517  0.00  0.00     0.163 HD
BRANCH  22  25
ATOM     25  CA  GLU d   1      11.040  -6.223   0.772  0.00  0.00     0.090 C 
ATOM     26  H14 GLU d   1      11.692  -5.941   1.612  0.00  0.00     0.087 H 
BRANCH  25  27
ATOM     27  N   GLU d   1      10.827  -7.663   0.818  0.00  0.00    -0.346 N 
ATOM     28  C   GLU d   1      10.640  -8.300   1.967  0.00  0.00     0.241 C 
ATOM     29  O   GLU d   1      10.635  -7.730   3.059  0.00  0.00    -0.271 OA
ATOM     30  H13 GLU d   1      10.822  -8.184  -0.036  0.00  0.00     0.163 HD
BRANCH  28  31
ATOM     31  CA  GLU d   1      10.434  -9.817   1.874  0.00  0.00     0.090 C 
ATOM     32  H8  GLU d   1       9.845 -10.144   2.743  0.00  0.00     0.087 H 
BRANCH  31  33
ATOM     33  N   GLU d   1       9.697 -10.160   0.662  0.00  0.00    -0.346 N 
ATOM     34  C   ASP d   1       8.395  -9.930   0.544  0.00  0.00     0.249 C 
ATOM     35  O   ASP d   1       7.725  -9.417   1.437  0.00  0.00    -0.271 OA
ATOM     36  H7  GLU d   1      10.187 -10.580  -0.102  0.00  0.00     0.163 HD
BRANCH  34  37
ATOM     37  CA  ASP d   1       7.754 -10.347  -0.777  0.00  0.00     0.185 C 
ATOM     38  H4  ASP d   1       6.897  -9.686  -0.973  0.00  0.00     0.100 H 
BRANCH  37  39
ATOM     39  N   ASP d   1       8.700 -10.216  -1.881  0.00  0.00    -0.066 N 
ATOM     40  H1  ASP d   1       8.254 -10.497  -2.740  0.00  0.00     0.275 HD
ATOM     41  H2  ASP d   1       9.500 -10.805  -1.710  0.00  0.00     0.275 HD
ATOM     42  H3  ASP d   1       8.999  -9.256  -1.955  0.00  0.00     0.275 HD
ENDBRANCH  37  39
BRANCH  37  43
ATOM     43  CB  ASP d   1       7.249 -11.786  -0.682  0.00  0.00     0.050 C 
ATOM     44  H5  ASP d   1       6.568 -11.978  -1.524  0.00  0.00     0.052 H 
ATOM     45  H6  ASP d   1       6.704 -11.907   0.266  0.00  0.00     0.052 H 
BRANCH  43  46
ATOM     46  CG  ASP d   1       8.377 -12.799  -0.728  0.00  0.00     0.175 C 
ATOM     47  OD1 ASP d   1       8.888 -13.075  -1.836  0.00  0.00    -0.648 OA
ATOM     48  OD2 ASP d   1       8.753 -13.322   0.343  0.00  0.00    -0.648 OA
ENDBRANCH  43  46
ENDBRANCH  37  43
ENDBRANCH  34  37
ENDBRANCH  31  33
BRANCH  31  49
ATOM     49  CB  GLU d   1      11.781 -10.528   1.907  0.00  0.00    -0.029 C 
ATOM     50  H9  GLU d   1      11.605 -11.594   2.115  0.00  0.00     0.037 H 
ATOM     51  H10 GLU d   1      12.384 -10.091   2.717  0.00  0.00     0.037 H 
BRANCH  49  52
ATOM     52  CG  GLU d   1      12.568 -10.417   0.611  0.00  0.00     0.018 C 
ATOM     53  H11 GLU d   1      12.316  -9.462   0.127  0.00  0.00     0.049 H 
ATOM     54  H12 GLU d   1      12.280 -11.249  -0.048  0.00  0.00     0.049 H 
BRANCH  52  55
ATOM     55  CD  GLU d   1      14.067 -10.469   0.830  0.00  0.00     0.172 C 
ATOM     56  OE1 GLU d   1      14.518 -10.091   1.931  0.00  0.00    -0.648 OA
ATOM     57  OE2 GLU d   1      14.785 -10.880  -0.101  0.00  0.00    -0.648 OA
ENDBRANCH  52  55
ENDBRANCH  49  52
ENDBRANCH  31  49
ENDBRANCH  28  31
ENDBRANCH  25  27
BRANCH  25  58
ATOM     58  CB  GLU d   1      11.728  -5.826  -0.534  0.00  0.00    -0.029 C 
ATOM     59  H15 GLU d   1      11.489  -4.774  -0.747  0.00  0.00     0.037 H 
ATOM     60  H16 GLU d   1      11.336  -6.462  -1.341  0.00  0.00     0.037 H 
BRANCH  58  61
ATOM     61  CG  GLU d   1      13.239  -5.977  -0.495  0.00  0.00     0.018 C 
ATOM     62  H17 GLU d   1      13.636  -5.342   0.311  0.00  0.00     0.049 H 
ATOM     63  H18 GLU d   1      13.652  -5.646  -1.460  0.00  0.00     0.049 H 
BRANCH  61  64
ATOM     64  CD  GLU d   1      13.675  -7.412  -0.245  0.00  0.00     0.172 C 
ATOM     65  OE1 GLU d   1      13.625  -8.224  -1.194  0.00  0.00    -0.648 OA
ATOM     66  OE2 GLU d   1      14.063  -7.719   0.899  0.00  0.00    -0.648 OA
ENDBRANCH  61  64
ENDBRANCH  58  61
ENDBRANCH  25  58
ENDBRANCH  22  25
ENDBRANCH  19  21
BRANCH  19  67
ATOM     67  CB  ILE d   1       6.479  -5.824  -0.918  0.00  0.00    -0.030 C 
ATOM     68  H21 ILE d   1       6.300  -6.884  -0.685  0.00  0.00     0.043 H 
BRANCH  67  69
ATOM     69  CG1 ILE d   1       7.128  -5.735  -2.299  0.00  0.00    -0.063 C 
ATOM     70  H22 ILE d   1       8.073  -6.298  -2.276  0.00  0.00     0.033 H 
ATOM     71  H23 ILE d   1       7.336  -4.677  -2.518  0.00  0.00     0.033 H 
BRANCH  69  72
ATOM     72  CD1 ILE d   1       6.266  -6.293  -3.412  0.00  0.00    -0.076 C 
ATOM     73  H27 ILE d   1       6.796  -6.195  -4.371  0.00  0.00     0.027 H 
ATOM     74  H28 ILE d   1       5.319  -5.734  -3.458  0.00  0.00     0.027 H 
ATOM     75  H29 ILE d   1       6.056  -7.355  -3.216  0.00  0.00     0.027 H 
ENDBRANCH  69  72
ENDBRANCH  67  69
BRANCH  67  76
ATOM     76  CG2 ILE d   1       5.141  -5.096  -0.910  0.00  0.00    -0.071 C 
ATOM     77  H24 ILE d   1       4.689  -5.170   0.090  0.00  0.00     0.028 H 
ATOM     78  H25 ILE d   1       4.470  -5.555  -1.651  0.00  0.00     0.028 H 
ATOM     79  H26 ILE d   1       5.298  -4.037  -1.163  0.00  0.00     0.028 H 
ENDBRANCH  67  76
ENDBRANCH  19  67
ENDBRANCH  16  19
ENDBRANCH  13  15
BRANCH  13  80
ATOM     80  CB  GLU d   1       6.391  -8.392   3.700  0.00  0.00    -0.029 C 
ATOM     81  H32 GLU d   1       7.457  -8.611   3.861  0.00  0.00     0.037 H 
ATOM     82  H33 GLU d   1       6.022  -8.976   2.844  0.00  0.00     0.037 H 
BRANCH  80  83
ATOM     83  CG  GLU d   1       5.621  -8.815   4.939  0.00  0.00     0.018 C 
ATOM     84  H34 GLU d   1       5.505  -9.909   4.925  0.00  0.00     0.049 H 
ATOM     85  H35 GLU d   1       4.629  -8.341   4.916  0.00  0.00     0.049 H 
BRANCH  83  86
ATOM     86  CD  GLU d   1       6.319  -8.417   6.224  0.00  0.00     0.172 C 
ATOM     87  OE1 GLU d   1       7.503  -8.772   6.391  0.00  0.00    -0.648 OA
ATOM     88  OE2 GLU d   1       5.682  -7.745   7.064  0.00  0.00    -0.648 OA
ENDBRANCH  83  86
ENDBRANCH  80  83
ENDBRANCH  13  80
ENDBRANCH  10  13
ENDBRANCH   7   9
BRANCH   7  89
ATOM     89  CB  ARG d   1      10.492  -5.422   5.185  0.00  0.00    -0.036 C 
ATOM     90  H38 ARG d   1      10.840  -4.762   4.377  0.00  0.00     0.036 H 
ATOM     91  H39 ARG d   1      10.654  -6.471   4.897  0.00  0.00     0.036 H 
BRANCH  89  92
ATOM     92  CG  ARG d   1      11.314  -5.133   6.429  0.00  0.00    -0.048 C 
ATOM     93  H40 ARG d   1      10.982  -4.179   6.863  0.00  0.00     0.035 H 
ATOM     94  H41 ARG d   1      12.375  -5.058   6.147  0.00  0.00     0.035 H 
BRANCH  92  95
ATOM     95  CD  ARG d   1      11.156  -6.229   7.467  0.00  0.00     0.009 C 
ATOM     96  H42 ARG d   1      11.166  -7.204   6.958  0.00  0.00     0.064 H 
ATOM     97  H43 ARG d   1      10.193  -6.094   7.982  0.00  0.00     0.064 H 
BRANCH  95  98
ATOM     98  NE  ARG d   1      12.229  -6.205   8.460  0.00  0.00    -0.227 N 
ATOM     99  CZ  ARG d   1      13.485  -6.549   8.202  0.00  0.00     0.665 C 
ATOM    100  NH1 ARG d   1      13.837  -6.962   6.987  0.00  0.00    -0.235 N 
ATOM    101  NH2 ARG d   1      14.399  -6.498   9.162  0.00  0.00    -0.235 N 
ATOM    102  H45 ARG d   1      14.814  -7.227   6.796  0.00  0.00     0.174 HD
ATOM    103  H46 ARG d   1      13.133  -7.017   6.237  0.00  0.00     0.174 HD
ATOM    104  H47 ARG d   1      14.137  -6.180  10.106  0.00  0.00     0.174 HD
ATOM    105  H48 ARG d   1      15.370  -6.777   8.963  0.00  0.00     0.174 HD
ATOM    106  H44 ARG d   1      11.996  -5.903   9.417  0.00  0.00     0.177 HD
ENDBRANCH  95  98
ENDBRANCH  92  95
ENDBRANCH  89  92
ENDBRANCH   7  89
ENDBRANCH   4   7
ENDBRANCH   1   3
BRANCH   1 107
ATOM    107  C   GLN d   1       6.803  -1.457   4.620  0.00  0.00     0.241 C 
ATOM    108  O   GLN d   1       6.801  -0.413   5.272  0.00  0.00    -0.271 OA
ATOM    109  N   LEU d   1       5.762  -2.282   4.572  0.00  0.00    -0.346 N 
ATOM    110  H57 LEU d   1       5.825  -3.117   4.025  0.00  0.00     0.163 HD
BRANCH 109 111
ATOM    111  CA  LEU d   1       4.530  -1.998   5.299  0.00  0.00     0.089 C 
ATOM    112  H58 LEU d   1       4.137  -1.030   4.955  0.00  0.00     0.087 H 
BRANCH 111 113
ATOM    113  C   LEU d   1       4.792  -1.911   6.798  0.00  0.00     0.241 C 
ATOM    114  O   LEU d   1       4.352  -0.971   7.461  0.00  0.00    -0.271 OA
ATOM    115  N   LYS d   1       5.509  -2.896   7.327  0.00  0.00    -0.346 N 
ATOM    116  H68 LYS d   1       5.837  -3.632   6.735  0.00  0.00     0.163 HD
BRANCH 115 117
ATOM    117  CA  LYS d   1       5.830  -2.932   8.749  0.00  0.00     0.089 C 
ATOM    118  H69 LYS d   1       4.889  -2.941   9.318  0.00  0.00     0.087 H 
BRANCH 117 119
ATOM    119  C   LYS d   1       6.631  -1.699   9.156  0.00  0.00     0.241 C 
ATOM    120  O   LYS d   1       6.518  -1.217  10.284  0.00  0.00    -0.271 OA
ATOM    121  N   ALA d   1       7.441  -1.194   8.231  0.00  0.00    -0.346 N 
ATOM    122  H81 ALA d   1       7.489  -1.631   7.333  0.00  0.00     0.163 HD
BRANCH 121 123
ATOM    123  CA  ALA d   1       8.261  -0.019   8.494  0.00  0.00     0.086 C 
ATOM    124  H82 ALA d   1       8.752  -0.152   9.469  0.00  0.00     0.086 H 
BRANCH 123 125
ATOM    125  C   ALA d   1       7.408   1.244   8.556  0.00  0.00     0.240 C 
ATOM    126  O   ALA d   1       7.489   2.013   9.513  0.00  0.00    -0.271 OA
ATOM    127  N   LEU d   1       6.591   1.450   7.528  0.00  0.00    -0.346 N 
ATOM    128  H86 LEU d   1       6.572   0.787   6.779  0.00  0.00     0.163 HD
BRANCH 127 129
ATOM    129  CA  LEU d   1       5.722   2.619   7.466  0.00  0.00     0.089 C 
ATOM    130  H87 LEU d   1       6.338   3.519   7.612  0.00  0.00     0.087 H 
BRANCH 129 131
ATOM    131  C   LEU d   1       4.665   2.571   8.565  0.00  0.00     0.240 C 
ATOM    132  O   LEU d   1       4.398   3.574   9.226  0.00  0.00    -0.271 OA
ATOM    133  N   GLY d   1       4.069   1.399   8.756  0.00  0.00    -0.351 N 
ATOM    134  H97 GLY d   1       4.327   0.616   8.191  0.00  0.00     0.163 HD
BRANCH 133 135
ATOM    135  CA  GLY d   1       3.049   1.243   9.775  0.00  0.00     0.069 C 
ATOM    136  H98 GLY d   1       2.288   0.539   9.408  0.00  0.00     0.078 H 
ATOM    137  H99 GLY d   1       2.583   2.222   9.961  0.00  0.00     0.078 H 
BRANCH 135 138
ATOM    138  C   GLY d   1       3.611   0.715  11.081  0.00  0.00     0.236 C 
ATOM    139  O   GLY d   1       3.576  -0.487  11.340  0.00  0.00    -0.272 OA
ATOM    140  N   VAL d   1       4.131   1.619  11.907  0.00  0.00    -0.346 N 
ATOM    141 0H10 VAL d   1       4.129   2.583  11.639  0.00  0.00     0.163 HD
BRANCH 140 142
ATOM    142  CA  VAL d   1       4.703   1.239  13.192  0.00  0.00     0.092 C 
ATOM    143 1H10 VAL d   1       4.073   0.449  13.626  0.00  0.00     0.088 H 
BRANCH 142 144
ATOM    144  C   VAL d   1       4.726   2.423  14.154  0.00  0.00     0.241 C 
ATOM    145  O   VAL d   1       5.136   3.524  13.788  0.00  0.00    -0.271 OA
ATOM    146  N   ASP d   1       4.284   2.187  15.385  0.00  0.00    -0.344 N 
ATOM    147 9H10 ASP d   1       3.964   1.270  15.621  0.00  0.00     0.163 HD
BRANCH 146 148
ATOM    148  CA  ASP d   1       4.255   3.235  16.400  0.00  0.00     0.105 C 
ATOM    149 0H11 ASP d   1       4.983   4.011  16.121  0.00  0.00     0.090 H 
BRANCH 148 150
ATOM    150  C   ASP d   1       4.640   2.679  17.767  0.00  0.00     0.197 C 
ATOM    151  O   ASP d   1       5.407   3.354  18.485  0.00  0.00    -0.646 OA
ATOM    152  OXT ASP d   1       4.171   1.573  18.108  0.00  0.00    -0.646 OA
ENDBRANCH 148 150
BRANCH 148 153
ATOM    153  CB  ASP d   1       2.865   3.870  16.467  0.00  0.00     0.044 C 
ATOM    154 1H11 ASP d   1       2.899   4.723  17.161  0.00  0.00     0.053 H 
ATOM    155 2H11 ASP d   1       2.152   3.121  16.842  0.00  0.00     0.053 H 
BRANCH 153 156
ATOM    156  CG  ASP d   1       2.388   4.362  15.115  0.00  0.00     0.175 C 
ATOM    157  OD1 ASP d   1       3.057   5.244  14.535  0.00  0.00    -0.648 OA
ATOM    158  OD2 ASP d   1       1.347   3.868  14.636  0.00  0.00    -0.648 OA
ENDBRANCH 153 156
ENDBRANCH 148 153
ENDBRANCH 146 148
ENDBRANCH 142 144
BRANCH 142 159
ATOM    159  CB  VAL d   1       6.133   0.688  13.029  0.00  0.00    -0.033 C 
ATOM    160 2H10 VAL d   1       6.098  -0.154  12.323  0.00  0.00     0.042 H 
BRANCH 159 161
ATOM    161  CG1 VAL d   1       7.057   1.751  12.453  0.00  0.00    -0.071 C 
ATOM    162 3H10 VAL d   1       8.070   1.337  12.345  0.00  0.00     0.028 H 
ATOM    163 4H10 VAL d   1       7.085   2.618  13.130  0.00  0.00     0.028 H 
ATOM    164 5H10 VAL d   1       6.684   2.067  11.468  0.00  0.00     0.028 H 
ENDBRANCH 159 161
BRANCH 159 165
ATOM    165  CG2 VAL d   1       6.664   0.170  14.359  0.00  0.00    -0.071 C 
ATOM    166 6H10 VAL d   1       5.980  -0.596  14.754  0.00  0.00     0.028 H 
ATOM    167 7H10 VAL d   1       6.735   1.002  15.075  0.00  0.00     0.028 H 
ATOM    168 8H10 VAL d   1       7.660  -0.271  14.209  0.00  0.00     0.028 H 
ENDBRANCH 159 165
ENDBRANCH 142 159
ENDBRANCH 140 142
ENDBRANCH 135 138
ENDBRANCH 133 135
ENDBRANCH 129 131
BRANCH 129 169
ATOM    169  CB  LEU d   1       5.045   2.705   6.096  0.00  0.00    -0.035 C 
ATOM    170  H88 LEU d   1       4.104   3.261   6.215  0.00  0.00     0.037 H 
ATOM    171  H89 LEU d   1       4.826   1.681   5.759  0.00  0.00     0.037 H 
BRANCH 169 172
ATOM    172  CG  LEU d   1       5.870   3.396   5.009  0.00  0.00    -0.059 C 
ATOM    173  H90 LEU d   1       6.936   3.220   5.217  0.00  0.00     0.038 H 
BRANCH 172 174
ATOM    174  CD1 LEU d   1       5.546   2.814   3.642  0.00  0.00    -0.073 C 
ATOM    175  H91 LEU d   1       6.148   3.323   2.875  0.00  0.00     0.028 H 
ATOM    176  H92 LEU d   1       4.477   2.959   3.425  0.00  0.00     0.028 H 
ATOM    177  H93 LEU d   1       5.778   1.739   3.637  0.00  0.00     0.028 H 
ENDBRANCH 172 174
BRANCH 172 178
ATOM    178  CD2 LEU d   1       5.619   4.897   5.025  0.00  0.00    -0.073 C 
ATOM    179  H94 LEU d   1       5.859   5.298   6.021  0.00  0.00     0.028 H 
ATOM    180  H95 LEU d   1       4.562   5.094   4.795  0.00  0.00     0.028 H 
ATOM    181  H96 LEU d   1       6.255   5.383   4.271  0.00  0.00     0.028 H 
ENDBRANCH 172 178
ENDBRANCH 169 172
ENDBRANCH 129 169
ENDBRANCH 127 129
ENDBRANCH 123 125
BRANCH 123 182
ATOM    182  CB  ALA d   1       9.338   0.122   7.428  0.00  0.00    -0.049 C 
ATOM    183  H83 ALA d   1       9.949   1.012   7.639  0.00  0.00     0.030 H 
ATOM    184  H84 ALA d   1       8.865   0.228   6.441  0.00  0.00     0.030 H 
ATOM    185  H85 ALA d   1       9.979  -0.772   7.434  0.00  0.00     0.030 H 
ENDBRANCH 123 182
ENDBRANCH 121 123
ENDBRANCH 117 119
BRANCH 117 186
ATOM    186  CB  LYS d   1       6.616  -4.200   9.085  0.00  0.00    -0.038 C 
ATOM    187  H70 LYS d   1       7.688  -3.988   8.961  0.00  0.00     0.036 H 
ATOM    188  H71 LYS d   1       6.315  -4.992   8.383  0.00  0.00     0.036 H 
BRANCH 186 189
ATOM    189  CG  LYS d   1       6.386  -4.700  10.502  0.00  0.00    -0.061 C 
ATOM    190  H72 LYS d   1       6.613  -5.776  10.543  0.00  0.00     0.033 H 
ATOM    191  H73 LYS d   1       5.332  -4.537  10.772  0.00  0.00     0.033 H 
BRANCH 189 192
ATOM    192  CD  LYS d   1       7.270  -3.971  11.501  0.00  0.00    -0.043 C 
ATOM    193  H74 LYS d   1       6.693  -3.784  12.419  0.00  0.00     0.035 H 
ATOM    194  H75 LYS d   1       7.586  -3.012  11.065  0.00  0.00     0.035 H 
BRANCH 192 195
ATOM    195  CE  LYS d   1       8.502  -4.781  11.851  0.00  0.00     0.080 C 
ATOM    196  H76 LYS d   1       8.184  -5.761  12.237  0.00  0.00     0.075 H 
ATOM    197  H77 LYS d   1       9.069  -4.247  12.628  0.00  0.00     0.075 H 
BRANCH 195 198
ATOM    198  NZ  LYS d   1       9.387  -4.993  10.671  0.00  0.00    -0.079 N 
ATOM    199  H78 LYS d   1      10.191  -5.534  10.947  0.00  0.00     0.274 HD
ATOM    200  H79 LYS d   1       9.689  -4.101  10.313  0.00  0.00     0.274 HD
ATOM    201  H80 LYS d   1       8.879  -5.488   9.955  0.00  0.00     0.274 HD
ENDBRANCH 195 198
ENDBRANCH 192 195
ENDBRANCH 189 192
ENDBRANCH 186 189
ENDBRANCH 117 186
ENDBRANCH 115 117
ENDBRANCH 111 113
BRANCH 111 202
ATOM    202  CB  LEU d   1       3.485  -3.080   5.014  0.00  0.00    -0.035 C 
ATOM    203  H59 LEU d   1       2.769  -3.091   5.849  0.00  0.00     0.037 H 
ATOM    204  H60 LEU d   1       4.003  -4.049   4.962  0.00  0.00     0.037 H 
BRANCH 202 205
ATOM    205  CG  LEU d   1       2.697  -2.891   3.714  0.00  0.00    -0.059 C 
ATOM    206  H61 LEU d   1       2.858  -1.863   3.358  0.00  0.00     0.038 H 
BRANCH 205 207
ATOM    207  CD1 LEU d   1       3.193  -3.853   2.643  0.00  0.00    -0.073 C 
ATOM    208  H62 LEU d   1       2.616  -3.702   1.719  0.00  0.00     0.028 H 
ATOM    209  H63 LEU d   1       3.063  -4.888   2.991  0.00  0.00     0.028 H 
ATOM    210  H64 LEU d   1       4.258  -3.664   2.445  0.00  0.00     0.028 H 
ENDBRANCH 205 207
BRANCH 205 211
ATOM    211  CD2 LEU d   1       1.207  -3.087   3.958  0.00  0.00    -0.073 C 
ATOM    212  H65 LEU d   1       0.867  -2.385   4.733  0.00  0.00     0.028 H 
ATOM    213  H66 LEU d   1       1.023  -4.119   4.292  0.00  0.00     0.028 H 
ATOM    214  H67 LEU d   1       0.655  -2.899   3.025  0.00  0.00     0.028 H 
ENDBRANCH 205 211
ENDBRANCH 202 205
ENDBRANCH 111 202
ENDBRANCH 109 111
ENDBRANCH   1 107
BRANCH   1 215
ATOM    215  CB  GLN d   1       7.781  -1.632   2.324  0.00  0.00    -0.030 C 
ATOM    216  H51 GLN d   1       7.042  -0.824   2.221  0.00  0.00     0.037 H 
ATOM    217  H52 GLN d   1       7.378  -2.557   1.885  0.00  0.00     0.037 H 
BRANCH 215 218
ATOM    218  CG  GLN d   1       9.032  -1.240   1.553  0.00  0.00     0.011 C 
ATOM    219  H53 GLN d   1       9.017  -1.746   0.577  0.00  0.00     0.047 H 
ATOM    220  H54 GLN d   1       9.914  -1.568   2.123  0.00  0.00     0.047 H 
BRANCH 218 221
ATOM    221  CD  GLN d   1       9.131   0.254   1.323  0.00  0.00     0.215 C 
ATOM    222  OE1 GLN d   1       9.814   0.965   2.060  0.00  0.00    -0.274 OA
ATOM    223  NE2 GLN d   1       8.446   0.740   0.294  0.00  0.00    -0.370 N 
ATOM    224  H55 GLN d   1       8.473   1.719   0.093  0.00  0.00     0.159 HD
ATOM    225  H56 GLN d   1       7.903   0.127  -0.280  0.00  0.00     0.159 HD
ENDBRANCH 218 221
ENDBRANCH 215 218
ENDBRANCH   1 215
TORSDOF 69
