REMARK WARNING: 32 MAX_TORS EXCEEDED!!!
REMARK  47 active torsions:
REMARK  status: ('A' for Active; 'I' for Inactive)
REMARK    1  A    between atoms: N_1  and  CA_2 
REMARK    2  A    between atoms: CA_2  and  C_3 
REMARK    3  A    between atoms: CA_2  and  CB_5 
REMARK       I    between atoms: C_3  and  N_9 
REMARK    4  A    between atoms: CB_5  and  CG_6 
REMARK       I    between atoms: CG_6  and  ND2_8 
REMARK    5  A    between atoms: N_9  and  CA_10 
REMARK    6  A    between atoms: CA_10  and  C_11 
REMARK    7  A    between atoms: CA_10  and  CB_13 
REMARK       I    between atoms: C_11  and  N_17 
REMARK    8  A    between atoms: CB_13  and  CG1_14 
REMARK    9  A    between atoms: CB_13  and  CG2_15 
REMARK   10  A    between atoms: CG1_14  and  CD1_16 
REMARK   11  A    between atoms: N_17  and  CA_18 
REMARK   12  A    between atoms: CA_18  and  CB_19 
REMARK   13  A    between atoms: CA_18  and  C_26 
REMARK   14  A    between atoms: CB_19  and  CG2_20 
REMARK   15  A    between atoms: CB_19  and  OG1_21 
REMARK   16  A    between atoms: OG1_21  and  P_22 
REMARK       I    between atoms: C_26  and  N_28 
REMARK   17  A    between atoms: N_28  and  CA_29 
REMARK   18  A    between atoms: CA_29  and  C_30 
REMARK   19  A    between atoms: CA_29  and  CB_32 
REMARK       I    between atoms: C_30  and  N_37 
REMARK   20  A    between atoms: CB_32  and  CG_33 
REMARK   21  A    between atoms: CG_33  and  CD_34 
REMARK       I    between atoms: CD_34  and  NE2_36 
REMARK   22  A    between atoms: CA_38  and  C_39 
REMARK       I    between atoms: C_39  and  N_44 
REMARK   23  A    between atoms: N_44  and  CA_45 
REMARK   24  A    between atoms: CA_45  and  CB_46 
REMARK   25  A    between atoms: CA_45  and  C_53 
REMARK   26  A    between atoms: CB_46  and  CG2_47 
REMARK   27  A    between atoms: CB_46  and  OG1_48 
REMARK   28  A    between atoms: OG1_48  and  P_49 
REMARK       I    between atoms: C_53  and  N_55 
REMARK   29  A    between atoms: N_55  and  CA_56 
REMARK   30  A    between atoms: CA_56  and  C_57 
REMARK   31  A    between atoms: CA_56  and  CB_59 
REMARK       I    between atoms: C_57  and  N_64 
REMARK   32  A    between atoms: CB_59  and  CG_60 
REMARK   33  A    between atoms: CG_60  and  CD_61 
REMARK       I    between atoms: CD_61  and  NE2_63 
REMARK   34  A    between atoms: N_64  and  CA_65 
REMARK   35  A    between atoms: CA_65  and  C_66 
REMARK   36  A    between atoms: CA_65  and  CB_68 
REMARK       I    between atoms: C_66  and  N_73 
REMARK   37  A    between atoms: CB_68  and  CG_69 
REMARK   38  A    between atoms: CG_69  and  CD_70 
REMARK       I    between atoms: CD_70  and  NE2_72 
REMARK   39  A    between atoms: N_73  and  CA_74 
REMARK   40  A    between atoms: CA_74  and  C_75 
REMARK   41  A    between atoms: CA_74  and  CB_77 
REMARK       I    between atoms: C_75  and  N_79 
REMARK   42  A    between atoms: CB_77  and  OG_78 
REMARK   43  A    between atoms: N_79  and  CA_80 
REMARK   44  A    between atoms: CA_80  and  C_81 
REMARK   45  A    between atoms: CA_80  and  CB_83 
REMARK   46  A    between atoms: CB_83  and  OG1_84 
REMARK   47  A    between atoms: CB_83  and  CG2_85 
ROOT
ATOM      1  C   GLN d   1       2.811 -27.008  -3.862  0.00  0.00     0.243 C 
ATOM      2  O   GLN d   1       2.204 -26.028  -3.431  0.00  0.00    -0.271 OA
ATOM      3  N   PRO d   1       2.782 -27.341  -5.167  0.00  0.00    -0.337 N 
ATOM      4  CA  PRO d   1       2.031 -26.565  -6.162  0.00  0.00     0.091 C 
ATOM      5  CB  PRO d   1       2.190 -27.376  -7.451  0.00  0.00    -0.036 C 
ATOM      6  CG  PRO d   1       3.421 -28.188  -7.245  0.00  0.00    -0.048 C 
ATOM      7  CD  PRO d   1       3.474 -28.492  -5.775  0.00  0.00    -0.001 C 
ATOM      8  H34 PRO d   1       2.467 -25.561  -6.275  0.00  0.00     0.087 H 
ATOM      9  H35 PRO d   1       2.308 -26.707  -8.316  0.00  0.00     0.036 H 
ATOM     10  H36 PRO d   1       1.318 -28.028  -7.608  0.00  0.00     0.036 H 
ATOM     11  H37 PRO d   1       4.311 -27.618  -7.550  0.00  0.00     0.035 H 
ATOM     12  H38 PRO d   1       3.366 -29.120  -7.827  0.00  0.00     0.035 H 
ATOM     13  H39 PRO d   1       2.950 -29.432  -5.548  0.00  0.00     0.064 H 
ATOM     14  H40 PRO d   1       4.514 -28.558  -5.423  0.00  0.00     0.064 H 
ENDROOT
BRANCH   4  15
ATOM     15  C   PRO d   1       0.557 -26.432  -5.797  0.00  0.00     0.241 C 
ATOM     16  O   PRO d   1       0.159 -26.707  -4.664  0.00  0.00    -0.271 OA
ATOM     17  N   TPO d   1      -0.250 -26.011  -6.765  0.00  0.00    -0.344 N 
ATOM     18  H41 TPO d   1       0.135 -25.805  -7.665  0.00  0.00     0.163 HD
BRANCH  17  19
ATOM     19  CA  TPO d   1      -1.682 -25.842  -6.549  0.00  0.00     0.114 C 
ATOM     20  H42 TPO d   1      -1.824 -25.284  -5.612  0.00  0.00     0.091 H 
BRANCH  19  21
ATOM     21  CB  TPO d   1      -2.332 -25.045  -7.697  0.00  0.00     0.076 C 
ATOM     22  H43 TPO d   1      -2.163 -25.586  -8.639  0.00  0.00     0.087 H 
BRANCH  21  23
ATOM     23  CG2 TPO d   1      -3.832 -24.895  -7.484  0.00  0.00    -0.049 C 
ATOM     24  H44 TPO d   1      -4.265 -24.323  -8.318  0.00  0.00     0.031 H 
ATOM     25  H45 TPO d   1      -4.017 -24.363  -6.539  0.00  0.00     0.031 H 
ATOM     26  H46 TPO d   1      -4.298 -25.891  -7.441  0.00  0.00     0.031 H 
ENDBRANCH  21  23
BRANCH  21  27
ATOM     27  OG1 TPO d   1      -1.744 -23.776  -7.789  0.00  0.00    -0.275 OA
BRANCH  27  28
ATOM     28  P   TPO d   1      -2.047 -22.916  -9.054  0.00  0.00     0.422 P 
ATOM     29  O1P TPO d   1      -0.810 -21.995  -9.209  0.00  0.00    -0.617 OA
ATOM     30  O2P TPO d   1      -2.072 -23.932 -10.225  0.00  0.00    -0.617 OA
ATOM     31  O3P TPO d   1      -3.328 -22.144  -8.934  0.00  0.00    -0.617 OA
ENDBRANCH  27  28
ENDBRANCH  21  27
ENDBRANCH  19  21
BRANCH  19  32
ATOM     32  C   TPO d   1      -2.377 -27.196  -6.419  0.00  0.00     0.243 C 
ATOM     33  O   TPO d   1      -1.859 -28.216  -6.872  0.00  0.00    -0.271 OA
ATOM     34  N   GLN d   1      -3.553 -27.195  -5.798  0.00  0.00    -0.346 N 
ATOM     35  H47 GLN d   1      -3.921 -26.332  -5.452  0.00  0.00     0.163 HD
BRANCH  34  36
ATOM     36  CA  GLN d   1      -4.318 -28.422  -5.610  0.00  0.00     0.090 C 
ATOM     37  H48 GLN d   1      -3.988 -29.156  -6.360  0.00  0.00     0.087 H 
BRANCH  36  38
ATOM     38  C   GLN d   1      -5.810 -28.169  -5.806  0.00  0.00     0.241 C 
ATOM     39  O   GLN d   1      -6.241 -27.026  -5.962  0.00  0.00    -0.271 OA
ATOM     40  N   GLN d   1      -6.594 -29.242  -5.796  0.00  0.00    -0.346 N 
ATOM     41  H55 GLN d   1      -6.184 -30.144  -5.664  0.00  0.00     0.163 HD
BRANCH  40  42
ATOM     42  CA  GLN d   1      -8.038 -29.136  -5.973  0.00  0.00     0.090 C 
ATOM     43  H56 GLN d   1      -8.246 -28.285  -6.638  0.00  0.00     0.087 H 
BRANCH  42  44
ATOM     44  C   GLN d   1      -8.733 -28.889  -4.637  0.00  0.00     0.241 C 
ATOM     45  O   GLN d   1      -8.161 -29.132  -3.574  0.00  0.00    -0.271 OA
ATOM     46  N   SER d   1      -9.968 -28.404  -4.700  0.00  0.00    -0.344 N 
ATOM     47  H63 SER d   1     -10.376 -28.226  -5.595  0.00  0.00     0.163 HD
BRANCH  46  48
ATOM     48  CA  SER d   1     -10.744 -28.124  -3.497  0.00  0.00     0.109 C 
ATOM     49  H64 SER d   1     -10.170 -28.469  -2.624  0.00  0.00     0.090 H 
BRANCH  48  50
ATOM     50  C   SER d   1     -12.076 -28.865  -3.524  0.00  0.00     0.243 C 
ATOM     51  O   SER d   1     -12.460 -29.437  -4.544  0.00  0.00    -0.271 OA
ATOM     52  N   THR d   1     -12.780 -28.851  -2.396  0.00  0.00    -0.342 N 
ATOM     53  H68 THR d   1     -12.415 -28.368  -1.600  0.00  0.00     0.163 HD
BRANCH  52  54
ATOM     54  CA  THR d   1     -14.070 -29.522  -2.291  0.00  0.00     0.120 C 
ATOM     55  H69 THR d   1     -14.027 -30.453  -2.876  0.00  0.00     0.093 H 
BRANCH  54  56
ATOM     56  C   THR d   1     -15.185 -28.646  -2.854  0.00  0.00     0.199 C 
ATOM     57  O   THR d   1     -15.161 -27.423  -2.603  0.00  0.00    -0.646 OA
ATOM     58  OXT THR d   1     -16.073 -29.191  -3.542  0.00  0.00    -0.646 OA
ENDBRANCH  54  56
BRANCH  54  59
ATOM     59  CB  THR d   1     -14.369 -29.874  -0.833  0.00  0.00     0.061 C 
ATOM     60  H70 THR d   1     -14.661 -28.947  -0.317  0.00  0.00     0.086 H 
BRANCH  59  61
ATOM     61  OG1 THR d   1     -13.221 -30.408  -0.200  0.00  0.00    -0.393 OA
ATOM     62  H71 THR d   1     -13.428 -30.619   0.703  0.00  0.00     0.210 HD
ENDBRANCH  59  61
BRANCH  59  63
ATOM     63  CG2 THR d   1     -15.489 -30.879  -0.678  0.00  0.00    -0.050 C 
ATOM     64  H72 THR d   1     -15.651 -31.086   0.390  0.00  0.00     0.031 H 
ATOM     65  H73 THR d   1     -15.219 -31.811  -1.195  0.00  0.00     0.031 H 
ATOM     66  H74 THR d   1     -16.412 -30.470  -1.116  0.00  0.00     0.031 H 
ENDBRANCH  59  63
ENDBRANCH  54  59
ENDBRANCH  52  54
ENDBRANCH  48  50
BRANCH  48  67
ATOM     67  CB  SER d   1     -10.986 -26.620  -3.359  0.00  0.00     0.044 C 
ATOM     68  H65 SER d   1     -11.851 -26.454  -2.699  0.00  0.00     0.077 H 
ATOM     69  H66 SER d   1     -11.197 -26.198  -4.353  0.00  0.00     0.077 H 
BRANCH  67  70
ATOM     70  OG  SER d   1      -9.854 -25.968  -2.810  0.00  0.00    -0.398 OA
ATOM     71  H67 SER d   1     -10.031 -25.038  -2.735  0.00  0.00     0.209 HD
ENDBRANCH  67  70
ENDBRANCH  48  67
ENDBRANCH  46  48
ENDBRANCH  42  44
BRANCH  42  72
ATOM     72  CB  GLN d   1      -8.587 -30.409  -6.622  0.00  0.00    -0.030 C 
ATOM     73  H57 GLN d   1      -9.507 -30.699  -6.094  0.00  0.00     0.037 H 
ATOM     74  H58 GLN d   1      -7.836 -31.206  -6.515  0.00  0.00     0.037 H 
BRANCH  72  75
ATOM     75  CG  GLN d   1      -8.910 -30.248  -8.099  0.00  0.00     0.011 C 
ATOM     76  H59 GLN d   1      -8.280 -29.446  -8.512  0.00  0.00     0.047 H 
ATOM     77  H60 GLN d   1      -9.970 -29.971  -8.200  0.00  0.00     0.047 H 
BRANCH  75  78
ATOM     78  CD  GLN d   1      -8.663 -31.516  -8.891  0.00  0.00     0.215 C 
ATOM     79  OE1 GLN d   1      -9.539 -32.374  -9.002  0.00  0.00    -0.274 OA
ATOM     80  NE2 GLN d   1      -7.463 -31.642  -9.448  0.00  0.00    -0.370 N 
ATOM     81  H61 GLN d   1      -7.243 -32.458  -9.982  0.00  0.00     0.159 HD
ATOM     82  H62 GLN d   1      -6.780 -30.921  -9.333  0.00  0.00     0.159 HD
ENDBRANCH  75  78
ENDBRANCH  72  75
ENDBRANCH  42  72
ENDBRANCH  40  42
ENDBRANCH  36  38
BRANCH  36  83
ATOM     83  CB  GLN d   1      -4.059 -29.000  -4.216  0.00  0.00    -0.030 C 
ATOM     84  H49 GLN d   1      -5.010 -29.016  -3.664  0.00  0.00     0.037 H 
ATOM     85  H50 GLN d   1      -3.344 -28.346  -3.696  0.00  0.00     0.037 H 
BRANCH  83  86
ATOM     86  CG  GLN d   1      -3.493 -30.409  -4.237  0.00  0.00     0.011 C 
ATOM     87  H51 GLN d   1      -2.467 -30.371  -4.632  0.00  0.00     0.047 H 
ATOM     88  H52 GLN d   1      -4.117 -31.029  -4.897  0.00  0.00     0.047 H 
BRANCH  86  89
ATOM     89  CD  GLN d   1      -3.460 -31.045  -2.861  0.00  0.00     0.215 C 
ATOM     90  OE1 GLN d   1      -4.394 -31.741  -2.463  0.00  0.00    -0.274 OA
ATOM     91  NE2 GLN d   1      -2.380 -30.808  -2.125  0.00  0.00    -0.370 N 
ATOM     92  H53 GLN d   1      -2.303 -31.201  -1.209  0.00  0.00     0.159 HD
ATOM     93  H54 GLN d   1      -1.644 -30.236  -2.487  0.00  0.00     0.159 HD
ENDBRANCH  86  89
ENDBRANCH  83  86
ENDBRANCH  36  83
ENDBRANCH  34  36
ENDBRANCH  19  32
ENDBRANCH  17  19
ENDBRANCH   4  15
BRANCH   1  94
ATOM     94  CA  GLN d   1       3.627 -27.893  -2.920  0.00  0.00     0.090 C 
ATOM     95  H27 GLN d   1       4.270 -28.550  -3.525  0.00  0.00     0.087 H 
BRANCH  94  96
ATOM     96  N   GLN d   1       4.477 -27.085  -2.052  0.00  0.00    -0.346 N 
ATOM     97  C   TPO d   1       5.481 -26.363  -2.537  0.00  0.00     0.243 C 
ATOM     98  O   TPO d   1       5.762 -26.324  -3.735  0.00  0.00    -0.271 OA
ATOM     99  H26 GLN d   1       4.299 -27.075  -1.068  0.00  0.00     0.163 HD
BRANCH  97 100
ATOM    100  CA  TPO d   1       6.290 -25.564  -1.519  0.00  0.00     0.114 C 
ATOM    101  H21 TPO d   1       6.305 -26.119  -0.570  0.00  0.00     0.091 H 
BRANCH 100 102
ATOM    102  N   TPO d   1       7.667 -25.391  -1.968  0.00  0.00    -0.344 N 
ATOM    103  C   ILE d   1       8.683 -25.979  -1.343  0.00  0.00     0.241 C 
ATOM    104  O   ILE d   1       8.536 -26.698  -0.356  0.00  0.00    -0.271 OA
ATOM    105  H20 TPO d   1       7.852 -24.816  -2.765  0.00  0.00     0.163 HD
BRANCH 103 106
ATOM    106  CA  ILE d   1      10.071 -25.714  -1.918  0.00  0.00     0.092 C 
ATOM    107  H10 ILE d   1       9.962 -25.122  -2.839  0.00  0.00     0.088 H 
BRANCH 106 108
ATOM    108  N   ILE d   1      10.889 -24.951  -0.984  0.00  0.00    -0.346 N 
ATOM    109  C   ASN d   1      11.147 -23.662  -1.176  0.00  0.00     0.249 C 
ATOM    110  O   ASN d   1      10.719 -23.030  -2.141  0.00  0.00    -0.271 OA
ATOM    111  H9  ILE d   1      11.265 -25.409  -0.179  0.00  0.00     0.163 HD
BRANCH 109 112
ATOM    112  CA  ASN d   1      12.017 -22.984  -0.121  0.00  0.00     0.183 C 
ATOM    113  H4  ASN d   1      12.022 -23.607   0.785  0.00  0.00     0.099 H 
BRANCH 112 114
ATOM    114  N   ASN d   1      13.413 -22.819  -0.603  0.00  0.00    -0.066 N 
ATOM    115  H1  ASN d   1      13.964 -22.370   0.112  0.00  0.00     0.275 HD
ATOM    116  H2  ASN d   1      13.416 -22.252  -1.436  0.00  0.00     0.275 HD
ATOM    117  H3  ASN d   1      13.806 -23.724  -0.811  0.00  0.00     0.275 HD
ENDBRANCH 112 114
BRANCH 112 118
ATOM    118  CB  ASN d   1      11.452 -21.605   0.221  0.00  0.00     0.044 C 
ATOM    119  H5  ASN d   1      10.394 -21.717   0.502  0.00  0.00     0.051 H 
ATOM    120  H6  ASN d   1      11.529 -20.962  -0.668  0.00  0.00     0.051 H 
BRANCH 118 121
ATOM    121  CG  ASN d   1      12.193 -20.943   1.367  0.00  0.00     0.217 C 
ATOM    122  OD1 ASN d   1      12.637 -19.800   1.256  0.00  0.00    -0.274 OA
ATOM    123  ND2 ASN d   1      12.333 -21.661   2.475  0.00  0.00    -0.370 N 
ATOM    124  H7  ASN d   1      12.813 -21.276   3.263  0.00  0.00     0.159 HD
ATOM    125  H8  ASN d   1      11.959 -22.587   2.521  0.00  0.00     0.159 HD
ENDBRANCH 118 121
ENDBRANCH 112 118
ENDBRANCH 109 112
ENDBRANCH 106 108
BRANCH 106 126
ATOM    126  CB  ILE d   1      10.730 -27.059  -2.276  0.00  0.00    -0.030 C 
ATOM    127  H11 ILE d   1      10.694 -27.712  -1.392  0.00  0.00     0.043 H 
BRANCH 126 128
ATOM    128  CG1 ILE d   1      12.195 -26.847  -2.662  0.00  0.00    -0.063 C 
ATOM    129  H12 ILE d   1      12.633 -27.823  -2.917  0.00  0.00     0.033 H 
ATOM    130  H13 ILE d   1      12.725 -26.422  -1.797  0.00  0.00     0.033 H 
BRANCH 128 131
ATOM    131  CD1 ILE d   1      12.381 -25.917  -3.841  0.00  0.00    -0.076 C 
ATOM    132  H17 ILE d   1      13.454 -25.813  -4.060  0.00  0.00     0.027 H 
ATOM    133  H18 ILE d   1      11.958 -24.930  -3.600  0.00  0.00     0.027 H 
ATOM    134  H19 ILE d   1      11.866 -26.332  -4.720  0.00  0.00     0.027 H 
ENDBRANCH 128 131
ENDBRANCH 126 128
BRANCH 126 135
ATOM    135  CG2 ILE d   1       9.971 -27.736  -3.407  0.00  0.00    -0.071 C 
ATOM    136  H14 ILE d   1       8.921 -27.879  -3.110  0.00  0.00     0.028 H 
ATOM    137  H15 ILE d   1      10.428 -28.713  -3.622  0.00  0.00     0.028 H 
ATOM    138  H16 ILE d   1      10.015 -27.105  -4.307  0.00  0.00     0.028 H 
ENDBRANCH 126 135
ENDBRANCH 106 126
ENDBRANCH 103 106
ENDBRANCH 100 102
BRANCH 100 139
ATOM    139  CB  TPO d   1       5.605 -24.202  -1.280  0.00  0.00     0.076 C 
ATOM    140  H22 TPO d   1       5.621 -23.633  -2.221  0.00  0.00     0.087 H 
BRANCH 139 141
ATOM    141  CG2 TPO d   1       4.156 -24.385  -0.847  0.00  0.00    -0.049 C 
ATOM    142  H23 TPO d   1       3.695 -23.400  -0.684  0.00  0.00     0.031 H 
ATOM    143  H24 TPO d   1       4.123 -24.964   0.088  0.00  0.00     0.031 H 
ATOM    144  H25 TPO d   1       3.604 -24.923  -1.632  0.00  0.00     0.031 H 
ENDBRANCH 139 141
BRANCH 139 145
ATOM    145  OG1 TPO d   1       6.300 -23.476  -0.300  0.00  0.00    -0.275 OA
BRANCH 145 146
ATOM    146  P   TPO d   1       6.547 -24.147   1.089  0.00  0.00     0.422 P 
ATOM    147  O1P TPO d   1       6.458 -22.982   2.108  0.00  0.00    -0.617 OA
ATOM    148  O2P TPO d   1       8.011 -24.651   1.025  0.00  0.00    -0.617 OA
ATOM    149  O3P TPO d   1       5.571 -25.246   1.385  0.00  0.00    -0.617 OA
ENDBRANCH 145 146
ENDBRANCH 139 145
ENDBRANCH 100 139
ENDBRANCH  97 100
ENDBRANCH  94  96
BRANCH  94 150
ATOM    150  CB  GLN d   1       2.687 -28.762  -2.082  0.00  0.00    -0.030 C 
ATOM    151  H28 GLN d   1       2.274 -29.551  -2.728  0.00  0.00     0.037 H 
ATOM    152  H29 GLN d   1       1.869 -28.129  -1.708  0.00  0.00     0.037 H 
BRANCH 150 153
ATOM    153  CG  GLN d   1       3.365 -29.422  -0.892  0.00  0.00     0.011 C 
ATOM    154  H30 GLN d   1       3.187 -28.806   0.002  0.00  0.00     0.047 H 
ATOM    155  H31 GLN d   1       4.446 -29.479  -1.089  0.00  0.00     0.047 H 
BRANCH 153 156
ATOM    156  CD  GLN d   1       2.845 -30.822  -0.628  0.00  0.00     0.215 C 
ATOM    157  OE1 GLN d   1       2.531 -31.566  -1.556  0.00  0.00    -0.274 OA
ATOM    158  NE2 GLN d   1       2.749 -31.186   0.646  0.00  0.00    -0.370 N 
ATOM    159  H32 GLN d   1       2.412 -32.098   0.881  0.00  0.00     0.159 HD
ATOM    160  H33 GLN d   1       3.013 -30.548   1.369  0.00  0.00     0.159 HD
ENDBRANCH 153 156
ENDBRANCH 150 153
ENDBRANCH  94 150
ENDBRANCH   1  94
TORSDOF 47
