REMARK  10 active torsions:
REMARK  status: ('A' for Active; 'I' for Inactive)
REMARK    1  A    between atoms: C3_3  and  O1_7 
REMARK    2  A    between atoms: C6_6  and  S1_9 
REMARK    3  A    between atoms: O1_7  and  C7_8 
REMARK    4  A    between atoms: S1_9  and  N_12 
REMARK    5  A    between atoms: N_12  and  C9_13 
REMARK    6  A    between atoms: N_12  and  C10_14 
REMARK    7  A    between atoms: C9_13  and  C12_19 
REMARK    8  A    between atoms: C10_14  and  C11_15 
REMARK       I    between atoms: C11_15  and  N1_16 
REMARK    9  A    between atoms: C12_19  and  C13_20 
REMARK   10  A    between atoms: C12_19  and  C14_21 
ROOT
ATOM      1  N   NGH d   1       6.573  -4.382   6.736  0.00  0.00    -0.297 N 
ENDROOT
BRANCH   1   2
ATOM      2  S1  NGH d   1       7.547  -3.750   5.552  0.00  0.00     0.261 S 
ATOM      3  O2  NGH d   1       7.328  -2.308   5.535  0.00  0.00    -0.200 OA
ATOM      4  O3  NGH d   1       8.904  -4.186   5.844  0.00  0.00    -0.200 OA
BRANCH   2   5
ATOM      5  C6  NGH d   1       7.043  -4.345   3.950  0.00  0.00     0.079 A 
ATOM      6  C1  NGH d   1       7.098  -5.693   3.603  0.00  0.00    -0.058 A 
ATOM      7  C2  NGH d   1       6.616  -6.116   2.365  0.00  0.00    -0.049 A 
ATOM      8  H1  NGH d   1       7.516  -6.414   4.296  0.00  0.00     0.086 H 
ATOM      9  C3  NGH d   1       6.090  -5.195   1.460  0.00  0.00     0.068 A 
ATOM     10  H2  NGH d   1       6.650  -7.168   2.104  0.00  0.00     0.087 H 
ATOM     11  C4  NGH d   1       6.090  -3.857   1.790  0.00  0.00    -0.049 A 
ATOM     12  C5  NGH d   1       6.566  -3.429   3.017  0.00  0.00    -0.058 A 
ATOM     13  H3  NGH d   1       5.712  -3.131   1.079  0.00  0.00     0.087 H 
ATOM     14  H4  NGH d   1       6.567  -2.371   3.253  0.00  0.00     0.086 H 
BRANCH   9  15
ATOM     15  O1  NGH d   1       5.541  -5.571   0.258  0.00  0.00    -0.356 OA
BRANCH  15  16
ATOM     16  C7  NGH d   1       6.241  -6.431  -0.656  0.00  0.00     0.010 C 
ATOM     17  H5  NGH d   1       5.620  -6.601  -1.548  0.00  0.00     0.066 H 
ATOM     18  H6  NGH d   1       6.450  -7.394  -0.167  0.00  0.00     0.066 H 
ATOM     19  H7  NGH d   1       7.188  -5.957  -0.953  0.00  0.00     0.066 H 
ENDBRANCH  15  16
ENDBRANCH   9  15
ENDBRANCH   2   5
ENDBRANCH   1   2
BRANCH   1  20
ATOM     20  C9  NGH d   1       6.602  -5.847   7.111  0.00  0.00     0.009 C 
ATOM     21  H8  NGH d   1       6.556  -6.463   6.201  0.00  0.00     0.066 H 
ATOM     22  H9  NGH d   1       5.742  -6.081   7.756  0.00  0.00     0.066 H 
BRANCH  20  23
ATOM     23  C12 NGH d   1       7.932  -6.140   7.879  0.00  0.00    -0.045 C 
ATOM     24  H12 NGH d   1       8.430  -5.181   8.084  0.00  0.00     0.041 H 
BRANCH  23  25
ATOM     25  C13 NGH d   1       8.896  -7.009   7.053  0.00  0.00    -0.072 C 
ATOM     26  H13 NGH d   1       9.815  -7.189   7.631  0.00  0.00     0.028 H 
ATOM     27  H14 NGH d   1       9.148  -6.489   6.117  0.00  0.00     0.028 H 
ATOM     28  H15 NGH d   1       8.415  -7.971   6.821  0.00  0.00     0.028 H 
ENDBRANCH  23  25
BRANCH  23  29
ATOM     29  C14 NGH d   1       7.602  -6.819   9.224  0.00  0.00    -0.072 C 
ATOM     30  H16 NGH d   1       6.913  -6.181   9.797  0.00  0.00     0.028 H 
ATOM     31  H17 NGH d   1       8.529  -6.965   9.798  0.00  0.00     0.028 H 
ATOM     32  H18 NGH d   1       7.129  -7.794   9.036  0.00  0.00     0.028 H 
ENDBRANCH  23  29
ENDBRANCH  20  23
ENDBRANCH   1  20
BRANCH   1  33
ATOM     33  C10 NGH d   1       5.385  -3.594   7.170  0.00  0.00     0.083 C 
ATOM     34  H10 NGH d   1       5.640  -2.528   7.078  0.00  0.00     0.080 H 
ATOM     35  H11 NGH d   1       5.193  -3.835   8.226  0.00  0.00     0.080 H 
BRANCH  33  36
ATOM     36  C11 NGH d   1       4.098  -3.826   6.404  0.00  0.00     0.287 C 
ATOM     37  N1  NGH d   1       4.169  -3.645   5.080  0.00  0.00    -0.057 NA
ATOM     38  O4  NGH d   1       3.426  -4.284   4.281  0.00  0.00    -0.058 OA
ATOM     39  O5  NGH d   1       3.092  -4.227   6.946  0.00  0.00    -0.267 OA
ENDBRANCH  33  36
ENDBRANCH   1  33
TORSDOF 10
