REMARK  8 active torsions:
REMARK  status: ('A' for Active; 'I' for Inactive)
REMARK    1  A    between atoms: C3_1  and  C4_2 
REMARK       I    between atoms: C3_1  and  N2_4 
REMARK    2  A    between atoms: C4_2  and  N6_7 
REMARK    3  A    between atoms: N6_7  and  C8_3 
REMARK    4  A    between atoms: C8_3  and  C9_9 
REMARK    5  A    between atoms: N6_7  and  S7_8 
REMARK    6  A    between atoms: S7_8  and  C12_12 
REMARK    7  A    between atoms: C9_9  and  O10_10 
REMARK    8  A    between atoms: C16_16  and  C19_19 
ROOT
ATOM      1  C12 JT5 d   1       7.670   0.398   6.682  0.00  0.00     0.079 A 
ATOM      2  C14 JT5 d   1       8.426  -0.655   6.161  0.00  0.00    -0.059 A 
ATOM      3  C15 JT5 d   1       8.709  -0.728   4.801  0.00  0.00    -0.071 A 
ATOM      4  C16 JT5 d   1       8.240   0.263   3.928  0.00  0.00    -0.026 A 
ATOM      5  C17 JT5 d   1       7.481   1.322   4.447  0.00  0.00    -0.071 A 
ATOM      6  C18 JT5 d   1       7.205   1.382   5.809  0.00  0.00    -0.059 A 
ATOM      7  H8  JT5 d   1       8.797  -1.426   6.826  0.00  0.00     0.085 H 
ATOM      8  H9  JT5 d   1       9.294  -1.555   4.415  0.00  0.00     0.084 H 
ATOM      9  H10 JT5 d   1       7.109   2.096   3.785  0.00  0.00     0.084 H 
ATOM     10  H11 JT5 d   1       6.619   2.207   6.199  0.00  0.00     0.085 H 
ENDROOT
BRANCH   1  11
ATOM     11  S7  JT5 d   1       7.338   0.480   8.357  0.00  0.00     0.261 S 
ATOM     12  O11 JT5 d   1       8.559   0.438   9.086  0.00  0.00    -0.200 OA
ATOM     13  O13 JT5 d   1       6.612   1.687   8.524  0.00  0.00    -0.200 OA
BRANCH  11  14
ATOM     14  N6  JT5 d   1       6.423  -0.804   8.690  0.00  0.00    -0.296 N 
BRANCH  14  15
ATOM     15  C4  JT5 d   1       5.098  -0.958   8.144  0.00  0.00     0.083 C 
ATOM     16  H1  JT5 d   1       4.407  -1.087   8.990  0.00  0.00     0.080 H 
ATOM     17  H2  JT5 d   1       4.853  -0.028   7.609  0.00  0.00     0.080 H 
BRANCH  15  18
ATOM     18  C3  JT5 d   1       4.852  -2.134   7.163  0.00  0.00     0.287 C 
ATOM     19  N2  JT5 d   1       3.540  -2.661   7.138  0.00  0.00    -0.057 NA
ATOM     20  O1  JT5 d   1       3.153  -3.606   6.424  0.00  0.00    -0.058 OA
ATOM     21  O5  JT5 d   1       5.820  -2.544   6.471  0.00  0.00    -0.267 OA
ENDBRANCH  15  18
ENDBRANCH  14  15
BRANCH  14  22
ATOM     22  C8  JT5 d   1       6.912  -1.846   9.553  0.00  0.00     0.025 C 
ATOM     23  H3  JT5 d   1       6.045  -2.334  10.022  0.00  0.00     0.068 H 
ATOM     24  H4  JT5 d   1       7.535  -1.379  10.330  0.00  0.00     0.068 H 
BRANCH  22  25
ATOM     25  C9  JT5 d   1       7.751  -2.933   8.860  0.00  0.00     0.032 C 
ATOM     26  H5  JT5 d   1       8.239  -2.505   7.972  0.00  0.00     0.076 H 
ATOM     27  H6  JT5 d   1       7.094  -3.761   8.555  0.00  0.00     0.076 H 
BRANCH  25  28
ATOM     28  O10 JT5 d   1       8.734  -3.420   9.742  0.00  0.00    -0.399 OA
ATOM     29  H7  JT5 d   1       9.246  -4.090   9.305  0.00  0.00     0.209 HD
ENDBRANCH  25  28
ENDBRANCH  22  25
ENDBRANCH  14  22
ENDBRANCH  11  14
ENDBRANCH   1  11
BRANCH   4  30
ATOM     30  C19 JT5 d   1       8.538   0.192   2.501  0.00  0.00    -0.026 A 
ATOM     31  C20 JT5 d   1       7.820   0.971   1.582  0.00  0.00    -0.072 A 
ATOM     32  C21 JT5 d   1       8.107   0.897   0.221  0.00  0.00    -0.082 A 
ATOM     33  H12 JT5 d   1       7.038   1.634   1.933  0.00  0.00     0.084 H 
ATOM     34  C22 JT5 d   1       9.110   0.044  -0.239  0.00  0.00    -0.083 A 
ATOM     35  H13 JT5 d   1       7.549   1.504  -0.483  0.00  0.00     0.083 H 
ATOM     36  C23 JT5 d   1       9.827  -0.736   0.668  0.00  0.00    -0.082 A 
ATOM     37  H14 JT5 d   1       9.332  -0.013  -1.299  0.00  0.00     0.083 H 
ATOM     38  C24 JT5 d   1       9.543  -0.665   2.030  0.00  0.00    -0.072 A 
ATOM     39  H15 JT5 d   1      10.607  -1.399   0.312  0.00  0.00     0.083 H 
ATOM     40  H16 JT5 d   1      10.102  -1.276   2.730  0.00  0.00     0.084 H 
ENDBRANCH   4  30
TORSDOF 8
