REMARK  6 active torsions:
REMARK  status: ('A' for Active; 'I' for Inactive)
REMARK    1  A    between atoms: C11_19  and  C14_4 
REMARK    2  A    between atoms: O7_18  and  C8_10 
REMARK    3  A    between atoms: C3_14  and  C1_12 
REMARK       I    between atoms: C1_12  and  N2_15 
REMARK    4  A    between atoms: C6_13  and  C3_14 
REMARK    5  A    between atoms: C6_13  and  O7_18 
REMARK    6  A    between atoms: N2_15  and  O5_17 
ROOT
ATOM      1  C17 JT6 d   1      11.394   0.052  -1.570  0.00  0.00     0.044 A 
ATOM      2  C16 JT6 d   1      11.441  -0.973  -0.583  0.00  0.00    -0.062 A 
ATOM      3  C15 JT6 d   1      10.799  -0.848   0.658  0.00  0.00    -0.071 A 
ATOM      4  C14 JT6 d   1      10.113   0.337   1.059  0.00  0.00    -0.026 A 
ATOM      5  C18 JT6 d   1      10.785   1.269  -1.154  0.00  0.00    -0.062 A 
ATOM      6  C19 JT6 d   1      10.177   1.409   0.103  0.00  0.00    -0.071 A 
ATOM      7  C20 JT6 d   1      11.933  -0.131  -2.908  0.00  0.00     0.099 C 
ATOM      8  N21 JT6 d   1      12.363  -0.278  -3.977  0.00  0.00    -0.191 NA
ATOM      9  H1  JT6 d   1      11.992  -1.881  -0.798  0.00  0.00     0.085 H 
ATOM     10  H2  JT6 d   1      10.825  -1.688   1.342  0.00  0.00     0.084 H 
ATOM     11  H7  JT6 d   1      10.791   2.116  -1.831  0.00  0.00     0.085 H 
ATOM     12  H8  JT6 d   1       9.737   2.365   0.364  0.00  0.00     0.084 H 
ENDROOT
BRANCH   4  13
ATOM     13  C11 JT6 d   1       9.381   0.448   2.367  0.00  0.00    -0.026 C 
ATOM     14  C12 JT6 d   1       8.855  -0.681   3.054  0.00  0.00    -0.070 C 
ATOM     15  C13 JT6 d   1       8.180  -0.601   4.281  0.00  0.00    -0.050 C 
ATOM     16  H4  JT6 d   1       8.983  -1.659   2.604  0.00  0.00     0.085 H 
ATOM     17  C8  JT6 d   1       7.851   0.689   4.838  0.00  0.00     0.068 C 
ATOM     18  H3  JT6 d   1       7.906  -1.507   4.810  0.00  0.00     0.087 H 
ATOM     19  C9  JT6 d   1       8.496   1.823   4.248  0.00  0.00    -0.050 C 
ATOM     20  C10 JT6 d   1       9.154   1.697   3.021  0.00  0.00    -0.070 C 
ATOM     21  H6  JT6 d   1       8.474   2.781   4.754  0.00  0.00     0.087 H 
ATOM     22  H5  JT6 d   1       9.512   2.599   2.538  0.00  0.00     0.085 H 
BRANCH  17  23
ATOM     23  O7  JT6 d   1       7.012   0.974   5.802  0.00  0.00    -0.351 OA
BRANCH  23  24
ATOM     24  C6  JT6 d   1       5.772   0.518   6.163  0.00  0.00     0.034 C 
ATOM     25  H9  JT6 d   1       5.213   1.325   6.658  0.00  0.00     0.075 H 
ATOM     26  H10 JT6 d   1       5.225   0.189   5.267  0.00  0.00     0.075 H 
BRANCH  24  27
ATOM     27  C3  JT6 d   1       5.930  -0.642   7.112  0.00  0.00     0.031 C 
ATOM     28  H11 JT6 d   1       6.995  -0.703   7.381  0.00  0.00     0.050 H 
ATOM     29  H12 JT6 d   1       5.337  -0.415   8.010  0.00  0.00     0.050 H 
BRANCH  27  30
ATOM     30  C1  JT6 d   1       5.498  -2.041   6.615  0.00  0.00     0.242 C 
ATOM     31  N2  JT6 d   1       4.208  -2.257   6.528  0.00  0.00    -0.237 N 
ATOM     32  H13 JT6 d   1       3.662  -1.473   6.822  0.00  0.00     0.197 HD
ATOM     33  O4  JT6 d   1       6.412  -2.849   6.315  0.00  0.00    -0.271 OA
BRANCH  31  34
ATOM     34  O5  JT6 d   1       3.493  -3.248   6.150  0.00  0.00    -0.287 OA
ATOM     35  H14 JT6 d   1       3.691  -3.453   5.244  0.00  0.00     0.244 HD
ENDBRANCH  31  34
ENDBRANCH  27  30
ENDBRANCH  24  27
ENDBRANCH  23  24
ENDBRANCH  17  23
ENDBRANCH   4  13
TORSDOF 6
