REMARK  20 active torsions:
REMARK  status: ('A' for Active; 'I' for Inactive)
REMARK    1  A    between atoms: N_1  and  CA_2 
REMARK    2  A    between atoms: CA_2  and  C_3 
REMARK       I    between atoms: C_3  and  N_5 
REMARK    3  A    between atoms: CA_6  and  C_7 
REMARK       I    between atoms: C_7  and  N_12 
REMARK    4  A    between atoms: CA_13  and  C_14 
REMARK       I    between atoms: C_14  and  N_19 
REMARK    5  A    between atoms: N_19  and  CA_20 
REMARK    6  A    between atoms: CA_20  and  C_21 
REMARK    7  A    between atoms: CA_20  and  CB_23 
REMARK       I    between atoms: C_21  and  N_27 
REMARK    8  A    between atoms: CB_23  and  CG_24 
REMARK    9  A    between atoms: CG_24  and  CD1_25 
REMARK   10  A    between atoms: CG_24  and  CD2_26 
REMARK   11  A    between atoms: N_27  and  CA_28 
REMARK   12  A    between atoms: CA_28  and  C_29 
REMARK   13  A    between atoms: CA_28  and  CB_31 
REMARK       I    between atoms: C_29  and  N_35 
REMARK   14  A    between atoms: CB_31  and  CG1_32 
REMARK   15  A    between atoms: CB_31  and  CG2_33 
REMARK   16  A    between atoms: CG1_32  and  CD1_34 
REMARK   17  A    between atoms: CA_36  and  C_37 
REMARK       I    between atoms: C_37  and  N_42 
REMARK   18  A    between atoms: CA_43  and  C_44 
REMARK       I    between atoms: C_44  and  N_49 
REMARK   19  A    between atoms: CA_50  and  C_51 
REMARK       I    between atoms: C_51  and  N_56 
REMARK   20  A    between atoms: CA_57  and  C_58 
ROOT
ATOM      1  CA  ILE d   1      -0.194   8.962   1.360  0.00  0.00     0.092 C 
ATOM      2  H32 ILE d   1      -0.740   8.508   0.520  0.00  0.00     0.088 H 
ENDROOT
BRANCH   1   3
ATOM      3  N   ILE d   1       0.056  10.353   1.025  0.00  0.00    -0.346 N 
ATOM      4  C   LEU d   1      -0.855  11.053   0.373  0.00  0.00     0.241 C 
ATOM      5  O   LEU d   1      -1.914  10.559  -0.023  0.00  0.00    -0.271 OA
ATOM      6  H31 ILE d   1       0.920  10.782   1.289  0.00  0.00     0.163 HD
BRANCH   4   7
ATOM      7  CA  LEU d   1      -0.560  12.520   0.114  0.00  0.00     0.089 C 
ATOM      8  H21 LEU d   1       0.528  12.664   0.047  0.00  0.00     0.087 H 
BRANCH   7   9
ATOM      9  N   LEU d   1      -1.164  12.902  -1.153  0.00  0.00    -0.346 N 
ATOM     10  C   PRO d   1      -0.580  12.611  -2.306  0.00  0.00     0.241 C 
ATOM     11  O   PRO d   1       0.552  12.127  -2.373  0.00  0.00    -0.271 OA
ATOM     12  H20 LEU d   1      -2.035  13.393  -1.154  0.00  0.00     0.163 HD
BRANCH  10  13
ATOM     13  CA  PRO d   1      -1.374  12.922  -3.575  0.00  0.00     0.091 C 
ATOM     14  N   PRO d   1      -0.511  13.312  -4.689  0.00  0.00    -0.337 N 
ATOM     15  C   PRO d   1       0.016  14.538  -4.784  0.00  0.00     0.243 C 
ATOM     16  CD  PRO d   1      -0.322  12.223  -5.664  0.00  0.00    -0.001 C 
ATOM     17  O   PRO d   1      -0.224  15.414  -3.952  0.00  0.00    -0.271 OA
ATOM     18  CG  PRO d   1      -1.079  11.069  -5.067  0.00  0.00    -0.048 C 
ATOM     19  H18 PRO d   1       0.744  11.977  -5.774  0.00  0.00     0.064 H 
ATOM     20  H19 PRO d   1      -0.738  12.499  -6.644  0.00  0.00     0.064 H 
ATOM     21  CB  PRO d   1      -2.049  11.653  -4.095  0.00  0.00    -0.036 C 
ATOM     22  H16 PRO d   1      -1.615  10.519  -5.854  0.00  0.00     0.035 H 
ATOM     23  H17 PRO d   1      -0.387  10.388  -4.550  0.00  0.00     0.035 H 
ATOM     24  H14 PRO d   1      -2.998  11.897  -4.595  0.00  0.00     0.036 H 
ATOM     25  H15 PRO d   1      -2.240  10.951  -3.270  0.00  0.00     0.036 H 
ATOM     26  H13 PRO d   1      -2.113  13.708  -3.360  0.00  0.00     0.087 H 
BRANCH  15  27
ATOM     27  CA  PRO d   1       0.931  14.828  -5.972  0.00  0.00     0.092 C 
ATOM     28  N   PRO d   1       0.837  16.223  -6.387  0.00  0.00    -0.337 N 
ATOM     29  C   GLY d   1      -0.187  16.693  -7.116  0.00  0.00     0.246 C 
ATOM     30  CD  PRO d   1       1.973  17.007  -5.897  0.00  0.00    -0.001 C 
ATOM     31  O   GLY d   1      -1.095  15.960  -7.508  0.00  0.00    -0.272 OA
ATOM     32  CG  PRO d   1       3.066  15.982  -5.821  0.00  0.00    -0.048 C 
ATOM     33  H11 PRO d   1       1.762  17.437  -4.907  0.00  0.00     0.064 H 
ATOM     34  H12 PRO d   1       2.232  17.813  -6.599  0.00  0.00     0.064 H 
ATOM     35  CB  PRO d   1       2.403  14.663  -5.555  0.00  0.00    -0.036 C 
ATOM     36  H9  PRO d   1       3.617  15.944  -6.772  0.00  0.00     0.035 H 
ATOM     37  H10 PRO d   1       3.761  16.229  -5.005  0.00  0.00     0.035 H 
ATOM     38  H7  PRO d   1       2.881  13.870  -6.149  0.00  0.00     0.036 H 
ATOM     39  H8  PRO d   1       2.470  14.412  -4.486  0.00  0.00     0.036 H 
ATOM     40  H6  PRO d   1       0.678  14.155  -6.805  0.00  0.00     0.087 H 
BRANCH  29  41
ATOM     41  CA  GLY d   1      -0.199  18.166  -7.459  0.00  0.00     0.152 C 
ATOM     42  H4  GLY d   1      -0.407  18.742  -6.545  0.00  0.00     0.090 H 
ATOM     43  H5  GLY d   1       0.789  18.447  -7.853  0.00  0.00     0.090 H 
BRANCH  41  44
ATOM     44  N   GLY d   1      -1.230  18.489  -8.475  0.00  0.00    -0.071 N 
ATOM     45  H1  GLY d   1      -1.206  19.477  -8.676  0.00  0.00     0.274 HD
ATOM     46  H2  GLY d   1      -2.140  18.240  -8.121  0.00  0.00     0.274 HD
ATOM     47  H3  GLY d   1      -1.044  17.970  -9.319  0.00  0.00     0.274 HD
ENDBRANCH  41  44
ENDBRANCH  29  41
ENDBRANCH  15  27
ENDBRANCH  10  13
ENDBRANCH   7   9
BRANCH   7  48
ATOM     48  CB  LEU d   1      -1.099  13.373   1.273  0.00  0.00    -0.035 C 
ATOM     49  H22 LEU d   1      -0.669  12.979   2.206  0.00  0.00     0.037 H 
ATOM     50  H23 LEU d   1      -2.192  13.255   1.295  0.00  0.00     0.037 H 
BRANCH  48  51
ATOM     51  CG  LEU d   1      -0.793  14.881   1.217  0.00  0.00    -0.059 C 
ATOM     52  H24 LEU d   1      -1.047  15.310   2.198  0.00  0.00     0.038 H 
BRANCH  51  53
ATOM     53  CD1 LEU d   1       0.686  15.130   0.967  0.00  0.00    -0.073 C 
ATOM     54  H25 LEU d   1       0.875  16.213   0.932  0.00  0.00     0.028 H 
ATOM     55  H26 LEU d   1       0.977  14.676   0.008  0.00  0.00     0.028 H 
ATOM     56  H27 LEU d   1       1.276  14.681   1.780  0.00  0.00     0.028 H 
ENDBRANCH  51  53
BRANCH  51  57
ATOM     57  CD2 LEU d   1      -1.641  15.588   0.167  0.00  0.00    -0.073 C 
ATOM     58  H28 LEU d   1      -2.706  15.396   0.365  0.00  0.00     0.028 H 
ATOM     59  H29 LEU d   1      -1.380  15.208  -0.832  0.00  0.00     0.028 H 
ATOM     60  H30 LEU d   1      -1.450  16.670   0.209  0.00  0.00     0.028 H 
ENDBRANCH  51  57
ENDBRANCH  48  51
ENDBRANCH   7  48
ENDBRANCH   4   7
ENDBRANCH   1   3
BRANCH   1  61
ATOM     61  C   ILE d   1      -1.080   8.902   2.597  0.00  0.00     0.243 C 
ATOM     62  O   ILE d   1      -1.003   9.774   3.467  0.00  0.00    -0.271 OA
ATOM     63  N   PRO d   1      -1.940   7.888   2.681  0.00  0.00    -0.337 N 
ATOM     64  CA  PRO d   1      -2.617   7.535   3.925  0.00  0.00     0.092 C 
ATOM     65  CD  PRO d   1      -2.376   7.048   1.554  0.00  0.00    -0.001 C 
ATOM     66  CB  PRO d   1      -3.684   6.522   3.473  0.00  0.00    -0.036 C 
ATOM     67  H42 PRO d   1      -3.060   8.407   4.428  0.00  0.00     0.087 H 
ATOM     68  CG  PRO d   1      -3.134   5.942   2.221  0.00  0.00    -0.048 C 
ATOM     69  H43 PRO d   1      -4.643   7.026   3.280  0.00  0.00     0.036 H 
ATOM     70  H44 PRO d   1      -3.827   5.741   4.234  0.00  0.00     0.036 H 
ATOM     71  H45 PRO d   1      -3.950   5.591   1.571  0.00  0.00     0.035 H 
ATOM     72  H46 PRO d   1      -2.462   5.102   2.451  0.00  0.00     0.035 H 
ATOM     73  H47 PRO d   1      -1.512   6.654   0.999  0.00  0.00     0.064 H 
ATOM     74  H48 PRO d   1      -3.025   7.613   0.869  0.00  0.00     0.064 H 
BRANCH  64  75
ATOM     75  C   PRO d   1      -1.606   6.845   4.810  0.00  0.00     0.243 C 
ATOM     76  O   PRO d   1      -0.666   6.277   4.290  0.00  0.00    -0.271 OA
ATOM     77  N   PRO d   1      -1.689   6.918   6.132  0.00  0.00    -0.337 N 
ATOM     78  CA  PRO d   1      -0.784   6.119   6.930  0.00  0.00     0.092 C 
ATOM     79  CD  PRO d   1      -2.587   7.742   6.934  0.00  0.00    -0.001 C 
ATOM     80  CB  PRO d   1      -0.898   6.735   8.336  0.00  0.00    -0.036 C 
ATOM     81  H49 PRO d   1       0.248   6.172   6.553  0.00  0.00     0.087 H 
ATOM     82  CG  PRO d   1      -1.793   7.935   8.197  0.00  0.00    -0.048 C 
ATOM     83  H50 PRO d   1       0.094   7.040   8.700  0.00  0.00     0.036 H 
ATOM     84  H51 PRO d   1      -1.339   6.010   9.036  0.00  0.00     0.036 H 
ATOM     85  H52 PRO d   1      -1.189   8.852   8.128  0.00  0.00     0.035 H 
ATOM     86  H53 PRO d   1      -2.469   8.005   9.062  0.00  0.00     0.035 H 
ATOM     87  H54 PRO d   1      -3.535   7.221   7.134  0.00  0.00     0.064 H 
ATOM     88  H55 PRO d   1      -2.794   8.704   6.441  0.00  0.00     0.064 H 
BRANCH  78  89
ATOM     89  C   PRO d   1      -1.274   4.681   6.929  0.00  0.00     0.243 C 
ATOM     90  O   PRO d   1      -2.484   4.441   6.952  0.00  0.00    -0.271 OA
ATOM     91  N   PRO d   1      -0.369   3.697   6.904  0.00  0.00    -0.337 N 
ATOM     92  CA  PRO d   1      -0.771   2.303   6.923  0.00  0.00     0.092 C 
ATOM     93  CD  PRO d   1       1.092   3.832   6.803  0.00  0.00    -0.001 C 
ATOM     94  CB  PRO d   1       0.431   1.551   6.340  0.00  0.00    -0.036 C 
ATOM     95  H56 PRO d   1      -1.652   2.161   6.280  0.00  0.00     0.087 H 
ATOM     96  CG  PRO d   1       1.491   2.574   6.099  0.00  0.00    -0.048 C 
ATOM     97  H57 PRO d   1       0.152   1.062   5.395  0.00  0.00     0.036 H 
ATOM     98  H58 PRO d   1       0.788   0.794   7.053  0.00  0.00     0.036 H 
ATOM     99  H59 PRO d   1       1.586   2.765   5.020  0.00  0.00     0.035 H 
ATOM    100  H60 PRO d   1       2.453   2.215   6.494  0.00  0.00     0.035 H 
ATOM    101  H61 PRO d   1       1.554   3.893   7.799  0.00  0.00     0.064 H 
ATOM    102  H62 PRO d   1       1.369   4.720   6.216  0.00  0.00     0.064 H 
BRANCH  92 103
ATOM    103  C   PRO d   1      -1.114   1.809   8.326  0.00  0.00     0.243 C 
ATOM    104  O   PRO d   1      -0.545   2.269   9.323  0.00  0.00    -0.271 OA
ATOM    105  N   PRO d   1      -2.058   0.867   8.396  0.00  0.00    -0.336 N 
ATOM    106  CA  PRO d   1      -2.434   0.188   9.636  0.00  0.00     0.098 C 
ATOM    107  CD  PRO d   1      -2.875   0.434   7.255  0.00  0.00    -0.001 C 
ATOM    108  CB  PRO d   1      -3.774  -0.467   9.282  0.00  0.00    -0.035 C 
ATOM    109  H63 PRO d   1      -2.551   0.910  10.457  0.00  0.00     0.089 H 
ATOM    110  CG  PRO d   1      -3.721  -0.670   7.802  0.00  0.00    -0.048 C 
ATOM    111  H64 PRO d   1      -4.611   0.193   9.553  0.00  0.00     0.036 H 
ATOM    112  H65 PRO d   1      -3.884  -1.430   9.802  0.00  0.00     0.036 H 
ATOM    113  H66 PRO d   1      -4.733  -0.621   7.375  0.00  0.00     0.035 H 
ATOM    114  H67 PRO d   1      -3.271  -1.646   7.568  0.00  0.00     0.035 H 
ATOM    115  H68 PRO d   1      -2.238   0.067   6.437  0.00  0.00     0.064 H 
ATOM    116  H69 PRO d   1      -3.502   1.260   6.889  0.00  0.00     0.064 H 
BRANCH 106 117
ATOM    117  C   PRO d   1      -1.411  -0.874  10.036  0.00  0.00     0.196 C 
ATOM    118  O   PRO d   1      -0.456  -0.534  10.759  0.00  0.00    -0.646 OA
ATOM    119  OXT PRO d   1      -1.558  -2.041   9.615  0.00  0.00    -0.646 OA
ENDBRANCH 106 117
ENDBRANCH  92 103
ENDBRANCH  78  89
ENDBRANCH  64  75
ENDBRANCH   1  61
BRANCH   1 120
ATOM    120  CB  ILE d   1       1.119   8.119   1.581  0.00  0.00    -0.030 C 
ATOM    121  H33 ILE d   1       1.497   8.319   2.595  0.00  0.00     0.043 H 
BRANCH 120 122
ATOM    122  CG1 ILE d   1       2.201   8.518   0.561  0.00  0.00    -0.063 C 
ATOM    123  H34 ILE d   1       1.716   8.652  -0.417  0.00  0.00     0.033 H 
ATOM    124  H35 ILE d   1       2.932   7.698   0.499  0.00  0.00     0.033 H 
BRANCH 122 125
ATOM    125  CD1 ILE d   1       2.947   9.787   0.892  0.00  0.00    -0.076 C 
ATOM    126  H39 ILE d   1       3.694   9.988   0.110  0.00  0.00     0.027 H 
ATOM    127  H40 ILE d   1       3.453   9.672   1.862  0.00  0.00     0.027 H 
ATOM    128  H41 ILE d   1       2.238  10.626   0.945  0.00  0.00     0.027 H 
ENDBRANCH 122 125
ENDBRANCH 120 122
BRANCH 120 129
ATOM    129  CG2 ILE d   1       0.828   6.637   1.451  0.00  0.00    -0.071 C 
ATOM    130  H36 ILE d   1       0.055   6.350   2.179  0.00  0.00     0.028 H 
ATOM    131  H37 ILE d   1       1.747   6.064   1.647  0.00  0.00     0.028 H 
ATOM    132  H38 ILE d   1       0.471   6.421   0.433  0.00  0.00     0.028 H 
ENDBRANCH 120 129
ENDBRANCH   1 120
TORSDOF 20
