REMARK WARNING: 32 MAX_TORS EXCEEDED!!!
REMARK  69 active torsions:
REMARK  status: ('A' for Active; 'I' for Inactive)
REMARK    1  A    between atoms: N_1  and  CA_2 
REMARK    2  A    between atoms: CA_2  and  C_3 
REMARK       I    between atoms: C_3  and  N_5 
REMARK    3  A    between atoms: N_5  and  CA_6 
REMARK    4  A    between atoms: CA_6  and  C_7 
REMARK    5  A    between atoms: CA_6  and  CB_9 
REMARK       I    between atoms: C_7  and  N_16 
REMARK    6  A    between atoms: CB_9  and  CG_10 
REMARK    7  A    between atoms: CG_10  and  CD_11 
REMARK    8  A    between atoms: CD_11  and  NE_12 
REMARK       I    between atoms: NE_12  and  CZ_13 
REMARK       I    between atoms: CZ_13  and  NH1_14 
REMARK    9  A    between atoms: N_16  and  CA_17 
REMARK   10  A    between atoms: CA_17  and  C_18 
REMARK   11  A    between atoms: CA_17  and  CB_20 
REMARK       I    between atoms: C_18  and  N_22 
REMARK   12  A    between atoms: CB_20  and  OG_21 
REMARK   13  A    between atoms: N_22  and  CA_23 
REMARK   14  A    between atoms: CA_23  and  C_24 
REMARK   15  A    between atoms: CA_23  and  CB_26 
REMARK       I    between atoms: C_24  and  N_31 
REMARK   16  A    between atoms: CB_26  and  CG_27 
REMARK   17  A    between atoms: CG_27  and  CD_28 
REMARK   18  A    between atoms: CD_28  and  CE_29 
REMARK   19  A    between atoms: CE_29  and  NZ_30 
REMARK   20  A    between atoms: N_31  and  CA_32 
REMARK   21  A    between atoms: CA_32  and  C_33 
REMARK   22  A    between atoms: CA_32  and  CB_35 
REMARK       I    between atoms: C_33  and  N_40 
REMARK   23  A    between atoms: CB_35  and  CG_36 
REMARK   24  A    between atoms: CG_36  and  CD_37 
REMARK   25  A    between atoms: N_40  and  CA_41 
REMARK   26  A    between atoms: CA_41  and  C_42 
REMARK   27  A    between atoms: CA_41  and  CB_44 
REMARK       I    between atoms: C_42  and  N_46 
REMARK   28  A    between atoms: CB_44  and  OG_45 
REMARK   29  A    between atoms: N_46  and  CA_47 
REMARK   30  A    between atoms: CA_47  and  C_48 
REMARK       I    between atoms: C_48  and  N_50 
REMARK   31  A    between atoms: N_50  and  CA_51 
REMARK   32  A    between atoms: CA_51  and  C_52 
REMARK   33  A    between atoms: CA_51  and  CB_54 
REMARK       I    between atoms: C_52  and  N_64 
REMARK   34  A    between atoms: CB_54  and  CG_55 
REMARK   35  A    between atoms: N_64  and  CA_65 
REMARK   36  A    between atoms: CA_65  and  C_66 
REMARK   37  A    between atoms: CA_65  and  CB_68 
REMARK       I    between atoms: C_66  and  N_71 
REMARK   38  A    between atoms: CB_68  and  CG1_69 
REMARK   39  A    between atoms: CB_68  and  CG2_70 
REMARK   40  A    between atoms: N_71  and  CA_72 
REMARK   41  A    between atoms: CA_72  and  C_73 
REMARK   42  A    between atoms: CA_72  and  CB_75 
REMARK       I    between atoms: C_73  and  N_80 
REMARK   43  A    between atoms: CB_75  and  CG_76 
REMARK   44  A    between atoms: CG_76  and  CD_77 
REMARK   45  A    between atoms: N_80  and  CA_81 
REMARK   46  A    between atoms: CA_81  and  C_82 
REMARK   47  A    between atoms: CA_81  and  CB_84 
REMARK       I    between atoms: C_82  and  N_88 
REMARK   48  A    between atoms: CB_84  and  CG_85 
REMARK       I    between atoms: CG_85  and  ND2_87 
REMARK   49  A    between atoms: N_88  and  CA_89 
REMARK   50  A    between atoms: CA_89  and  C_90 
REMARK   51  A    between atoms: CA_89  and  CB_92 
REMARK       I    between atoms: C_90  and  N_97 
REMARK   52  A    between atoms: CB_92  and  CG_93 
REMARK   53  A    between atoms: CG_93  and  CD_94 
REMARK   54  A    between atoms: N_97  and  CA_98 
REMARK   55  A    between atoms: CA_98  and  C_99 
REMARK   56  A    between atoms: CA_98  and  CB_101 
REMARK       I    between atoms: C_99  and  N_105 
REMARK   57  A    between atoms: CB_101  and  CG1_102 
REMARK   58  A    between atoms: CB_101  and  CG2_103 
REMARK   59  A    between atoms: CG1_102  and  CD1_104 
REMARK   60  A    between atoms: N_105  and  CA_106 
REMARK   61  A    between atoms: CA_106  and  C_107 
REMARK   62  A    between atoms: CA_106  and  CB_109 
REMARK       I    between atoms: C_107  and  N_117 
REMARK   63  A    between atoms: CB_109  and  CG_110 
REMARK   64  A    between atoms: CZ_115  and  OH_116 
REMARK   65  A    between atoms: N_117  and  CA_118 
REMARK   66  A    between atoms: CA_118  and  C_119 
REMARK   67  A    between atoms: CA_118  and  CB_121 
REMARK   68  A    between atoms: CB_121  and  CG_122 
REMARK   69  A    between atoms: CZ_127  and  OH_128 
ROOT
ATOM      1  C   TRP d   1     -11.306  -6.448  -0.373  0.00  0.00     0.241 C 
ATOM      2  O   TRP d   1     -12.485  -6.651  -0.083  0.00  0.00    -0.271 OA
ATOM      3  N   VAL d   1     -10.724  -5.271  -0.246  0.00  0.00    -0.346 N 
ATOM      4  H61 VAL d   1      -9.760  -5.174  -0.494  0.00  0.00     0.163 HD
ENDROOT
BRANCH   1   5
ATOM      5  CA  TRP d   1     -10.418  -7.566  -0.899  0.00  0.00     0.093 C 
ATOM      6  H52 TRP d   1      -9.411  -7.157  -1.071  0.00  0.00     0.088 H 
BRANCH   5   7
ATOM      7  N   TRP d   1     -10.315  -8.644   0.075  0.00  0.00    -0.346 N 
ATOM      8  C   GLY d   1      -9.304  -8.724   0.931  0.00  0.00     0.236 C 
ATOM      9  O   GLY d   1      -8.408  -7.882   1.000  0.00  0.00    -0.272 OA
ATOM     10  H51 TRP d   1     -11.028  -9.345   0.100  0.00  0.00     0.163 HD
BRANCH   8  11
ATOM     11  CA  GLY d   1      -9.304  -9.926   1.853  0.00  0.00     0.069 C 
ATOM     12  H49 GLY d   1      -9.066 -10.823   1.263  0.00  0.00     0.078 H 
ATOM     13  H50 GLY d   1      -8.533  -9.779   2.624  0.00  0.00     0.078 H 
BRANCH  11  14
ATOM     14  N   GLY d   1     -10.581 -10.125   2.506  0.00  0.00    -0.350 N 
ATOM     15  C   SER d   1     -11.516 -10.891   1.959  0.00  0.00     0.242 C 
ATOM     16  O   SER d   1     -11.391 -11.418   0.850  0.00  0.00    -0.271 OA
ATOM     17  H48 GLY d   1     -10.761  -9.678   3.382  0.00  0.00     0.163 HD
BRANCH  15  18
ATOM     18  CA  SER d   1     -12.797 -11.065   2.767  0.00  0.00     0.109 C 
ATOM     19  H44 SER d   1     -12.892 -10.211   3.454  0.00  0.00     0.090 H 
BRANCH  18  20
ATOM     20  N   SER d   1     -13.956 -11.084   1.893  0.00  0.00    -0.344 N 
ATOM     21  C   GLU d   1     -14.605  -9.973   1.587  0.00  0.00     0.241 C 
ATOM     22  O   GLU d   1     -14.275  -8.870   2.017  0.00  0.00    -0.271 OA
ATOM     23  H43 SER d   1     -14.270 -11.955   1.515  0.00  0.00     0.163 HD
BRANCH  21  24
ATOM     24  CA  GLU d   1     -15.808 -10.120   0.659  0.00  0.00     0.090 C 
ATOM     25  H38 GLU d   1     -16.207  -9.115   0.455  0.00  0.00     0.087 H 
BRANCH  24  26
ATOM     26  N   GLU d   1     -15.443 -10.730  -0.613  0.00  0.00    -0.346 N 
ATOM     27  C   LYS d   1     -14.520 -10.221  -1.416  0.00  0.00     0.241 C 
ATOM     28  O   LYS d   1     -13.841  -9.236  -1.138  0.00  0.00    -0.271 OA
ATOM     29  H37 GLU d   1     -15.909 -11.569  -0.892  0.00  0.00     0.163 HD
BRANCH  27  30
ATOM     30  CA  LYS d   1     -14.344 -10.973  -2.727  0.00  0.00     0.089 C 
ATOM     31  H25 LYS d   1     -13.799 -11.906  -2.520  0.00  0.00     0.087 H 
BRANCH  30  32
ATOM     32  N   LYS d   1     -15.653 -11.318  -3.263  0.00  0.00    -0.346 N 
ATOM     33  C   SER d   1     -15.887 -12.486  -3.841  0.00  0.00     0.243 C 
ATOM     34  O   SER d   1     -15.007 -13.326  -4.038  0.00  0.00    -0.271 OA
ATOM     35  H24 LYS d   1     -16.397 -10.653  -3.193  0.00  0.00     0.163 HD
BRANCH  33  36
ATOM     36  CA  SER d   1     -17.326 -12.749  -4.276  0.00  0.00     0.109 C 
ATOM     37  H20 SER d   1     -17.752 -11.812  -4.665  0.00  0.00     0.090 H 
BRANCH  36  38
ATOM     38  N   SER d   1     -17.370 -13.753  -5.325  0.00  0.00    -0.344 N 
ATOM     39  C   ARG d   1     -17.204 -13.429  -6.603  0.00  0.00     0.241 C 
ATOM     40  O   ARG d   1     -17.003 -12.272  -6.971  0.00  0.00    -0.271 OA
ATOM     41  H19 SER d   1     -17.529 -14.709  -5.080  0.00  0.00     0.163 HD
BRANCH  39  42
ATOM     42  CA  ARG d   1     -17.289 -14.564  -7.629  0.00  0.00     0.089 C 
ATOM     43  H7  ARG d   1     -17.260 -15.527  -7.098  0.00  0.00     0.087 H 
BRANCH  42  44
ATOM     44  N   ARG d   1     -18.537 -14.474  -8.369  0.00  0.00    -0.346 N 
ATOM     45  C   GLY d   1     -19.457 -15.425  -8.301  0.00  0.00     0.243 C 
ATOM     46  O   GLY d   1     -19.307 -16.457  -7.644  0.00  0.00    -0.272 OA
ATOM     47  H6  ARG d   1     -18.706 -13.674  -8.944  0.00  0.00     0.163 HD
BRANCH  45  48
ATOM     48  CA  GLY d   1     -20.728 -15.193  -9.088  0.00  0.00     0.152 C 
ATOM     49  H4  GLY d   1     -21.588 -15.465  -8.459  0.00  0.00     0.090 H 
ATOM     50  H5  GLY d   1     -20.790 -14.127  -9.354  0.00  0.00     0.090 H 
BRANCH  48  51
ATOM     51  N   GLY d   1     -20.774 -15.998 -10.332  0.00  0.00    -0.071 N 
ATOM     52  H1  GLY d   1     -21.635 -15.811 -10.821  0.00  0.00     0.274 HD
ATOM     53  H2  GLY d   1     -20.725 -16.978 -10.100  0.00  0.00     0.274 HD
ATOM     54  H3  GLY d   1     -19.993 -15.752 -10.920  0.00  0.00     0.274 HD
ENDBRANCH  48  51
ENDBRANCH  45  48
ENDBRANCH  42  44
BRANCH  42  55
ATOM     55  CB  ARG d   1     -16.098 -14.493  -8.590  0.00  0.00    -0.036 C 
ATOM     56  H8  ARG d   1     -16.088 -13.497  -9.056  0.00  0.00     0.036 H 
ATOM     57  H9  ARG d   1     -16.233 -15.260  -9.367  0.00  0.00     0.036 H 
BRANCH  55  58
ATOM     58  CG  ARG d   1     -14.751 -14.722  -7.918  0.00  0.00    -0.048 C 
ATOM     59  H10 ARG d   1     -14.555 -13.893  -7.222  0.00  0.00     0.035 H 
ATOM     60  H11 ARG d   1     -13.967 -14.745  -8.690  0.00  0.00     0.035 H 
BRANCH  58  61
ATOM     61  CD  ARG d   1     -14.720 -16.041  -7.140  0.00  0.00     0.009 C 
ATOM     62  H12 ARG d   1     -15.458 -15.990  -6.326  0.00  0.00     0.064 H 
ATOM     63  H13 ARG d   1     -13.714 -16.179  -6.716  0.00  0.00     0.064 H 
BRANCH  61  64
ATOM     64  NE  ARG d   1     -15.035 -17.189  -7.991  0.00  0.00    -0.227 N 
ATOM     65  CZ  ARG d   1     -14.945 -18.457  -7.593  0.00  0.00     0.665 C 
ATOM     66  NH1 ARG d   1     -14.577 -18.738  -6.348  0.00  0.00    -0.235 N 
ATOM     67  NH2 ARG d   1     -15.233 -19.442  -8.439  0.00  0.00    -0.235 N 
ATOM     68  H15 ARG d   1     -14.508 -19.718  -6.040  0.00  0.00     0.174 HD
ATOM     69  H16 ARG d   1     -14.361 -17.975  -5.690  0.00  0.00     0.174 HD
ATOM     70  H17 ARG d   1     -15.518 -19.225  -9.405  0.00  0.00     0.174 HD
ATOM     71  H18 ARG d   1     -15.171 -20.422  -8.129  0.00  0.00     0.174 HD
ATOM     72  H14 ARG d   1     -15.345 -17.006  -8.956  0.00  0.00     0.177 HD
ENDBRANCH  61  64
ENDBRANCH  58  61
ENDBRANCH  55  58
ENDBRANCH  42  55
ENDBRANCH  39  42
ENDBRANCH  36  38
BRANCH  36  73
ATOM     73  CB  SER d   1     -18.164 -13.215  -3.083  0.00  0.00     0.044 C 
ATOM     74  H21 SER d   1     -19.222 -13.255  -3.380  0.00  0.00     0.077 H 
ATOM     75  H22 SER d   1     -18.042 -12.500  -2.256  0.00  0.00     0.077 H 
BRANCH  73  76
ATOM     76  OG  SER d   1     -17.755 -14.501  -2.648  0.00  0.00    -0.398 OA
ATOM     77  H23 SER d   1     -18.288 -14.768  -1.909  0.00  0.00     0.209 HD
ENDBRANCH  73  76
ENDBRANCH  36  73
ENDBRANCH  33  36
ENDBRANCH  30  32
BRANCH  30  78
ATOM     78  CB  LYS d   1     -13.515 -10.156  -3.737  0.00  0.00    -0.038 C 
ATOM     79  H26 LYS d   1     -13.382 -10.770  -4.640  0.00  0.00     0.036 H 
ATOM     80  H27 LYS d   1     -12.534  -9.954  -3.284  0.00  0.00     0.036 H 
BRANCH  78  81
ATOM     81  CG  LYS d   1     -14.121  -8.818  -4.163  0.00  0.00    -0.061 C 
ATOM     82  H28 LYS d   1     -13.336  -8.206  -4.632  0.00  0.00     0.033 H 
ATOM     83  H29 LYS d   1     -14.504  -8.302  -3.271  0.00  0.00     0.033 H 
BRANCH  81  84
ATOM     84  CD  LYS d   1     -15.269  -8.998  -5.161  0.00  0.00    -0.043 C 
ATOM     85  H30 LYS d   1     -16.088  -9.534  -4.659  0.00  0.00     0.035 H 
ATOM     86  H31 LYS d   1     -14.905  -9.596  -6.009  0.00  0.00     0.035 H 
BRANCH  84  87
ATOM     87  CE  LYS d   1     -15.812  -7.669  -5.699  0.00  0.00     0.080 C 
ATOM     88  H32 LYS d   1     -16.794  -7.849  -6.160  0.00  0.00     0.075 H 
ATOM     89  H33 LYS d   1     -15.115  -7.283  -6.458  0.00  0.00     0.075 H 
BRANCH  87  90
ATOM     90  NZ  LYS d   1     -15.966  -6.649  -4.629  0.00  0.00    -0.079 N 
ATOM     91  H34 LYS d   1     -16.324  -5.795  -5.028  0.00  0.00     0.274 HD
ATOM     92  H35 LYS d   1     -15.070  -6.471  -4.203  0.00  0.00     0.274 HD
ATOM     93  H36 LYS d   1     -16.608  -6.989  -3.931  0.00  0.00     0.274 HD
ENDBRANCH  87  90
ENDBRANCH  84  87
ENDBRANCH  81  84
ENDBRANCH  78  81
ENDBRANCH  30  78
ENDBRANCH  27  30
ENDBRANCH  24  26
BRANCH  24  94
ATOM     94  CB  GLU d   1     -16.901 -10.946   1.341  0.00  0.00    -0.029 C 
ATOM     95  H39 GLU d   1     -17.015 -10.585   2.374  0.00  0.00     0.037 H 
ATOM     96  H40 GLU d   1     -16.583 -11.999   1.354  0.00  0.00     0.037 H 
BRANCH  94  97
ATOM     97  CG  GLU d   1     -18.255 -10.863   0.651  0.00  0.00     0.018 C 
ATOM     98  H41 GLU d   1     -18.122 -11.092  -0.417  0.00  0.00     0.049 H 
ATOM     99  H42 GLU d   1     -18.646  -9.841   0.761  0.00  0.00     0.049 H 
BRANCH  97 100
ATOM    100  CD  GLU d   1     -19.257 -11.831   1.235  0.00  0.00     0.172 C 
ATOM    101  OE1 GLU d   1     -19.653 -11.648   2.403  0.00  0.00    -0.648 OA
ATOM    102  OE2 GLU d   1     -19.656 -12.780   0.529  0.00  0.00    -0.648 OA
ENDBRANCH  97 100
ENDBRANCH  94  97
ENDBRANCH  24  94
ENDBRANCH  21  24
ENDBRANCH  18  20
BRANCH  18 103
ATOM    103  CB  SER d   1     -12.745 -12.350   3.596  0.00  0.00     0.044 C 
ATOM    104  H45 SER d   1     -13.536 -12.317   4.360  0.00  0.00     0.077 H 
ATOM    105  H46 SER d   1     -11.763 -12.421   4.087  0.00  0.00     0.077 H 
BRANCH 103 106
ATOM    106  OG  SER d   1     -12.938 -13.496   2.779  0.00  0.00    -0.398 OA
ATOM    107  H47 SER d   1     -12.901 -14.277   3.318  0.00  0.00     0.209 HD
ENDBRANCH 103 106
ENDBRANCH  18 103
ENDBRANCH  15  18
ENDBRANCH  11  14
ENDBRANCH   8  11
ENDBRANCH   5   7
BRANCH   5 108
ATOM    108  CB  TRP d   1     -10.958  -8.093  -2.228  0.00  0.00    -0.012 C 
ATOM    109  H53 TRP d   1     -11.114  -7.239  -2.904  0.00  0.00     0.044 H 
ATOM    110  H54 TRP d   1     -11.920  -8.592  -2.040  0.00  0.00     0.044 H 
BRANCH 108 111
ATOM    111  CG  TRP d   1     -10.039  -9.070  -2.901  0.00  0.00    -0.028 A 
ATOM    112  CD1 TRP d   1     -10.035 -10.429  -2.755  0.00  0.00    -0.015 A 
ATOM    113  NE1 TRP d   1      -9.048 -10.985  -3.530  0.00  0.00    -0.365 N 
ATOM    114  H55 TRP d   1     -10.716 -10.989  -2.116  0.00  0.00     0.112 H 
ATOM    115  CE2 TRP d   1      -8.392  -9.985  -4.200  0.00  0.00     0.042 A 
ATOM    116  H56 TRP d   1      -8.835 -11.991  -3.597  0.00  0.00     0.165 HD
ATOM    117  CD2 TRP d   1      -8.988  -8.764  -3.829  0.00  0.00    -0.002 A 
ATOM    118  CZ2 TRP d   1      -7.329 -10.054  -5.098  0.00  0.00    -0.056 A 
ATOM    119  CE3 TRP d   1      -8.493  -7.579  -4.385  0.00  0.00    -0.070 A 
ATOM    120  CZ3 TRP d   1      -7.438  -7.650  -5.277  0.00  0.00    -0.082 A 
ATOM    121  H57 TRP d   1      -8.929  -6.622  -4.121  0.00  0.00     0.084 H 
ATOM    122  CH2 TRP d   1      -6.868  -8.880  -5.626  0.00  0.00    -0.081 A 
ATOM    123  H59 TRP d   1      -7.046  -6.738  -5.713  0.00  0.00     0.083 H 
ATOM    124  H60 TRP d   1      -6.044  -8.902  -6.330  0.00  0.00     0.083 H 
ATOM    125  H58 TRP d   1      -6.883 -11.004  -5.368  0.00  0.00     0.086 H 
ENDBRANCH 108 111
ENDBRANCH   5 108
ENDBRANCH   1   5
BRANCH   3 126
ATOM    126  CA  VAL d   1     -11.452  -4.109   0.247  0.00  0.00     0.092 C 
ATOM    127  H62 VAL d   1     -12.429  -4.452   0.619  0.00  0.00     0.088 H 
BRANCH 126 128
ATOM    128  C   VAL d   1     -11.684  -3.121  -0.886  0.00  0.00     0.241 C 
ATOM    129  O   VAL d   1     -10.737  -2.663  -1.526  0.00  0.00    -0.271 OA
ATOM    130  N   GLU d   1     -12.947  -2.800  -1.125  0.00  0.00    -0.346 N 
ATOM    131  H70 GLU d   1     -13.659  -3.147  -0.514  0.00  0.00     0.163 HD
BRANCH 130 132
ATOM    132  CA  GLU d   1     -13.332  -1.959  -2.247  0.00  0.00     0.090 C 
ATOM    133  H71 GLU d   1     -12.562  -2.043  -3.028  0.00  0.00     0.087 H 
BRANCH 132 134
ATOM    134  C   GLU d   1     -13.430  -0.499  -1.821  0.00  0.00     0.241 C 
ATOM    135  O   GLU d   1     -14.367  -0.105  -1.124  0.00  0.00    -0.271 OA
ATOM    136  N   ASN d   1     -12.456   0.299  -2.237  0.00  0.00    -0.346 N 
ATOM    137  H76 ASN d   1     -11.717  -0.078  -2.796  0.00  0.00     0.163 HD
BRANCH 136 138
ATOM    138  CA  ASN d   1     -12.443   1.721  -1.893  0.00  0.00     0.097 C 
ATOM    139  H77 ASN d   1     -12.963   1.846  -0.932  0.00  0.00     0.088 H 
BRANCH 138 140
ATOM    140  C   ASN d   1     -13.186   2.525  -2.951  0.00  0.00     0.241 C 
ATOM    141  O   ASN d   1     -13.334   2.077  -4.088  0.00  0.00    -0.271 OA
ATOM    142  N   GLU d   1     -13.650   3.714  -2.581  0.00  0.00    -0.346 N 
ATOM    143  H82 GLU d   1     -13.393   4.088  -1.690  0.00  0.00     0.163 HD
BRANCH 142 144
ATOM    144  CA  GLU d   1     -14.524   4.477  -3.451  0.00  0.00     0.090 C 
ATOM    145  H83 GLU d   1     -14.647   3.907  -4.384  0.00  0.00     0.087 H 
BRANCH 144 146
ATOM    146  C   GLU d   1     -13.972   5.849  -3.815  0.00  0.00     0.241 C 
ATOM    147  O   GLU d   1     -14.718   6.700  -4.303  0.00  0.00    -0.271 OA
ATOM    148  N   ILE d   1     -12.686   6.080  -3.622  0.00  0.00    -0.346 N 
ATOM    149  H88 ILE d   1     -12.104   5.388  -3.196  0.00  0.00     0.163 HD
BRANCH 148 150
ATOM    150  CA  ILE d   1     -12.125   7.371  -4.043  0.00  0.00     0.092 C 
ATOM    151  H89 ILE d   1     -12.982   8.000  -4.327  0.00  0.00     0.088 H 
BRANCH 150 152
ATOM    152  C   ILE d   1     -11.235   7.238  -5.267  0.00  0.00     0.241 C 
ATOM    153  O   ILE d   1     -10.513   8.170  -5.614  0.00  0.00    -0.271 OA
ATOM    154  N   TYR d   1     -11.315   6.101  -5.938  0.00  0.00    -0.346 N 
ATOM    155  H99 TYR d   1     -11.895   5.364  -5.590  0.00  0.00     0.163 HD
BRANCH 154 156
ATOM    156  CA  TYR d   1     -10.572   5.905  -7.176  0.00  0.00     0.093 C 
ATOM    157 0H10 TYR d   1      -9.559   6.312  -7.043  0.00  0.00     0.088 H 
BRANCH 156 158
ATOM    158  C   TYR d   1     -11.257   6.662  -8.309  0.00  0.00     0.241 C 
ATOM    159  O   TYR d   1     -12.227   6.178  -8.897  0.00  0.00    -0.271 OA
ATOM    160  N   TYR d   1     -10.778   7.869  -8.578  0.00  0.00    -0.344 N 
ATOM    161 8H10 TYR d   1      -9.982   8.198  -8.070  0.00  0.00     0.163 HD
BRANCH 160 162
ATOM    162  CA  TYR d   1     -11.368   8.724  -9.580  0.00  0.00     0.100 C 
ATOM    163 9H10 TYR d   1     -12.460   8.598  -9.534  0.00  0.00     0.090 H 
BRANCH 162 164
ATOM    164  C   TYR d   1     -10.921   8.347 -11.002  0.00  0.00     0.197 C 
ATOM    165  O   TYR d   1     -11.315   7.263 -11.487  0.00  0.00    -0.646 OA
ATOM    166  OXT TYR d   1     -10.217   9.145 -11.651  0.00  0.00    -0.646 OA
ENDBRANCH 162 164
BRANCH 162 167
ATOM    167  CB  TYR d   1     -11.041  10.199  -9.241  0.00  0.00    -0.013 C 
ATOM    168 0H11 TYR d   1     -11.519  10.430  -8.278  0.00  0.00     0.043 H 
ATOM    169 1H11 TYR d   1     -11.484  10.825 -10.030  0.00  0.00     0.043 H 
BRANCH 167 170
ATOM    170  CG  TYR d   1      -9.564  10.582  -9.125  0.00  0.00    -0.056 A 
ATOM    171  CD1 TYR d   1      -8.526   9.693  -9.411  0.00  0.00    -0.074 A 
ATOM    172  CE1 TYR d   1      -7.202  10.078  -9.298  0.00  0.00    -0.051 A 
ATOM    173 2H11 TYR d   1      -8.762   8.683  -9.727  0.00  0.00     0.084 H 
ATOM    174  CZ  TYR d   1      -6.897  11.360  -8.895  0.00  0.00     0.065 A 
ATOM    175 4H11 TYR d   1      -6.409   9.375  -9.525  0.00  0.00     0.087 H 
ATOM    176  CE2 TYR d   1      -7.901  12.257  -8.608  0.00  0.00    -0.051 A 
ATOM    177  CD2 TYR d   1      -9.220  11.867  -8.724  0.00  0.00    -0.074 A 
ATOM    178 5H11 TYR d   1      -7.657  13.265  -8.292  0.00  0.00     0.087 H 
ATOM    179 3H11 TYR d   1     -10.005  12.579  -8.497  0.00  0.00     0.084 H 
BRANCH 174 180
ATOM    180  OH  TYR d   1      -5.580  11.748  -8.770  0.00  0.00    -0.361 OA
ATOM    181 6H11 TYR d   1      -5.411  12.008  -7.872  0.00  0.00     0.217 HD
ENDBRANCH 174 180
ENDBRANCH 167 170
ENDBRANCH 162 167
ENDBRANCH 160 162
ENDBRANCH 156 158
BRANCH 156 182
ATOM    182  CB  TYR d   1     -10.452   4.416  -7.519  0.00  0.00    -0.014 C 
ATOM    183 1H10 TYR d   1     -11.464   4.011  -7.669  0.00  0.00     0.043 H 
ATOM    184 2H10 TYR d   1      -9.973   3.902  -6.673  0.00  0.00     0.043 H 
BRANCH 182 185
ATOM    185  CG  TYR d   1      -9.640   4.146  -8.764  0.00  0.00    -0.056 A 
ATOM    186  CD1 TYR d   1      -8.283   4.431  -8.807  0.00  0.00    -0.074 A 
ATOM    187  CE1 TYR d   1      -7.537   4.183  -9.939  0.00  0.00    -0.051 A 
ATOM    188 3H10 TYR d   1      -7.801   4.856  -7.934  0.00  0.00     0.084 H 
ATOM    189  CZ  TYR d   1      -8.145   3.639 -11.050  0.00  0.00     0.065 A 
ATOM    190 5H10 TYR d   1      -6.478   4.414  -9.956  0.00  0.00     0.087 H 
ATOM    191  CE2 TYR d   1      -9.491   3.346 -11.033  0.00  0.00    -0.051 A 
ATOM    192  CD2 TYR d   1     -10.230   3.601  -9.895  0.00  0.00    -0.074 A 
ATOM    193 6H10 TYR d   1      -9.967   2.918 -11.908  0.00  0.00     0.087 H 
ATOM    194 4H10 TYR d   1     -11.289   3.371  -9.885  0.00  0.00     0.084 H 
BRANCH 189 195
ATOM    195  OH  TYR d   1      -7.405   3.394 -12.185  0.00  0.00    -0.361 OA
ATOM    196 7H10 TYR d   1      -6.502   3.649 -12.034  0.00  0.00     0.217 HD
ENDBRANCH 189 195
ENDBRANCH 182 185
ENDBRANCH 156 182
ENDBRANCH 154 156
ENDBRANCH 150 152
BRANCH 150 197
ATOM    197  CB  ILE d   1     -11.355   8.136  -2.939  0.00  0.00    -0.030 C 
ATOM    198  H90 ILE d   1     -10.953   9.055  -3.390  0.00  0.00     0.043 H 
BRANCH 197 199
ATOM    199  CG1 ILE d   1     -10.167   7.330  -2.389  0.00  0.00    -0.063 C 
ATOM    200  H91 ILE d   1      -9.440   7.182  -3.201  0.00  0.00     0.033 H 
ATOM    201  H92 ILE d   1     -10.538   6.353  -2.046  0.00  0.00     0.033 H 
BRANCH 199 202
ATOM    202  CD1 ILE d   1      -9.458   8.014  -1.225  0.00  0.00    -0.076 C 
ATOM    203  H96 ILE d   1      -8.623   7.385  -0.883  0.00  0.00     0.027 H 
ATOM    204  H97 ILE d   1     -10.168   8.161  -0.398  0.00  0.00     0.027 H 
ATOM    205  H98 ILE d   1      -9.071   8.990  -1.554  0.00  0.00     0.027 H 
ENDBRANCH 199 202
ENDBRANCH 197 199
BRANCH 197 206
ATOM    206  CG2 ILE d   1     -12.297   8.541  -1.806  0.00  0.00    -0.071 C 
ATOM    207  H93 ILE d   1     -13.140   9.116  -2.218  0.00  0.00     0.028 H 
ATOM    208  H94 ILE d   1     -11.751   9.160  -1.079  0.00  0.00     0.028 H 
ATOM    209  H95 ILE d   1     -12.678   7.638  -1.306  0.00  0.00     0.028 H 
ENDBRANCH 197 206
ENDBRANCH 150 197
ENDBRANCH 148 150
ENDBRANCH 144 146
BRANCH 144 210
ATOM    210  CB  GLU d   1     -15.898   4.638  -2.796  0.00  0.00    -0.029 C 
ATOM    211  H84 GLU d   1     -16.561   5.151  -3.508  0.00  0.00     0.037 H 
ATOM    212  H85 GLU d   1     -15.779   5.257  -1.895  0.00  0.00     0.037 H 
BRANCH 210 213
ATOM    213  CG  GLU d   1     -16.559   3.329  -2.390  0.00  0.00     0.018 C 
ATOM    214  H86 GLU d   1     -15.887   2.792  -1.704  0.00  0.00     0.049 H 
ATOM    215  H87 GLU d   1     -16.723   2.722  -3.292  0.00  0.00     0.049 H 
BRANCH 213 216
ATOM    216  CD  GLU d   1     -17.889   3.542  -1.699  0.00  0.00     0.172 C 
ATOM    217  OE1 GLU d   1     -18.918   3.668  -2.395  0.00  0.00    -0.648 OA
ATOM    218  OE2 GLU d   1     -17.914   3.578  -0.451  0.00  0.00    -0.648 OA
ENDBRANCH 213 216
ENDBRANCH 210 213
ENDBRANCH 144 210
ENDBRANCH 142 144
ENDBRANCH 138 140
BRANCH 138 219
ATOM    219  CB  ASN d   1     -11.016   2.251  -1.736  0.00  0.00     0.036 C 
ATOM    220  H78 ASN d   1     -10.504   2.184  -2.707  0.00  0.00     0.051 H 
ATOM    221  H79 ASN d   1     -10.486   1.630  -0.998  0.00  0.00     0.051 H 
BRANCH 219 222
ATOM    222  CG  ASN d   1     -10.991   3.690  -1.270  0.00  0.00     0.217 C 
ATOM    223  OD1 ASN d   1     -10.138   4.466  -1.676  0.00  0.00    -0.274 OA
ATOM    224  ND2 ASN d   1     -11.918   4.048  -0.392  0.00  0.00    -0.370 N 
ATOM    225  H80 ASN d   1     -11.947   4.987  -0.051  0.00  0.00     0.159 HD
ATOM    226  H81 ASN d   1     -12.588   3.378  -0.071  0.00  0.00     0.159 HD
ENDBRANCH 219 222
ENDBRANCH 138 219
ENDBRANCH 136 138
ENDBRANCH 132 134
BRANCH 132 227
ATOM    227  CB  GLU d   1     -14.669  -2.438  -2.822  0.00  0.00    -0.029 C 
ATOM    228  H72 GLU d   1     -14.945  -1.774  -3.654  0.00  0.00     0.037 H 
ATOM    229  H73 GLU d   1     -15.430  -2.370  -2.030  0.00  0.00     0.037 H 
BRANCH 227 230
ATOM    230  CG  GLU d   1     -14.645  -3.873  -3.342  0.00  0.00     0.018 C 
ATOM    231  H74 GLU d   1     -15.683  -4.215  -3.470  0.00  0.00     0.049 H 
ATOM    232  H75 GLU d   1     -14.140  -4.505  -2.597  0.00  0.00     0.049 H 
BRANCH 230 233
ATOM    233  CD  GLU d   1     -13.924  -4.024  -4.666  0.00  0.00     0.172 C 
ATOM    234  OE1 GLU d   1     -12.750  -3.604  -4.751  0.00  0.00    -0.648 OA
ATOM    235  OE2 GLU d   1     -14.519  -4.537  -5.634  0.00  0.00    -0.648 OA
ENDBRANCH 230 233
ENDBRANCH 227 230
ENDBRANCH 132 227
ENDBRANCH 130 132
ENDBRANCH 126 128
BRANCH 126 236
ATOM    236  CB  VAL d   1     -10.715  -3.404   1.411  0.00  0.00    -0.033 C 
ATOM    237  H63 VAL d   1      -9.759  -3.014   1.030  0.00  0.00     0.042 H 
BRANCH 236 238
ATOM    238  CG1 VAL d   1     -11.538  -2.233   1.937  0.00  0.00    -0.071 C 
ATOM    239  H64 VAL d   1     -10.998  -1.746   2.762  0.00  0.00     0.028 H 
ATOM    240  H65 VAL d   1     -12.508  -2.601   2.301  0.00  0.00     0.028 H 
ATOM    241  H66 VAL d   1     -11.702  -1.507   1.127  0.00  0.00     0.028 H 
ENDBRANCH 236 238
BRANCH 236 242
ATOM    242  CG2 VAL d   1     -10.419  -4.390   2.539  0.00  0.00    -0.071 C 
ATOM    243  H67 VAL d   1      -9.825  -5.229   2.146  0.00  0.00     0.028 H 
ATOM    244  H68 VAL d   1     -11.365  -4.771   2.950  0.00  0.00     0.028 H 
ATOM    245  H69 VAL d   1      -9.853  -3.880   3.333  0.00  0.00     0.028 H 
ENDBRANCH 236 242
ENDBRANCH 126 236
ENDBRANCH   3 126
TORSDOF 69
