REMARK  3 active torsions:
REMARK  status: ('A' for Active; 'I' for Inactive)
REMARK    1  A    between atoms: C2'_10  and  O2'_11 
REMARK    2  A    between atoms: C1'_12  and  N9_13 
REMARK    3  A    between atoms: C6_17  and  N6_18 
ROOT
ATOM      1  P   CMP d   1      34.184  -0.680  -5.938  0.00  0.00     0.408 P 
ATOM      2  O1P CMP d   1      35.591  -0.696  -6.399  0.00  0.00    -0.624 OA
ATOM      3  O2P CMP d   1      33.344   0.353  -6.844  0.00  0.00    -0.624 OA
ATOM      4  O5' CMP d   1      33.560  -2.150  -6.098  0.00  0.00    -0.287 OA
ATOM      5  C5' CMP d   1      34.251  -3.039  -5.208  0.00  0.00     0.058 C 
ATOM      6  C4' CMP d   1      34.074  -2.510  -3.797  0.00  0.00     0.090 C 
ATOM      7  O4' CMP d   1      34.639  -3.308  -2.759  0.00  0.00    -0.353 OA
ATOM      8  C3' CMP d   1      34.858  -1.178  -3.677  0.00  0.00     0.106 C 
ATOM      9  O3' CMP d   1      34.137  -0.197  -4.398  0.00  0.00    -0.279 OA
ATOM     10  C2' CMP d   1      34.888  -0.987  -2.150  0.00  0.00     0.106 C 
ATOM     11  C1' CMP d   1      34.756  -2.433  -1.613  0.00  0.00     0.140 C 
ATOM     12  H1  CMP d   1      35.320  -3.070  -5.465  0.00  0.00     0.079 H 
ATOM     13  H2  CMP d   1      33.826  -4.051  -5.285  0.00  0.00     0.079 H 
ATOM     14  H3  CMP d   1      33.001  -2.361  -3.608  0.00  0.00     0.090 H 
ATOM     15  H4  CMP d   1      35.879  -1.254  -4.080  0.00  0.00     0.092 H 
ATOM     16  H5  CMP d   1      35.835  -0.530  -1.825  0.00  0.00     0.093 H 
ATOM     17  H7  CMP d   1      33.861  -2.520  -0.979  0.00  0.00     0.122 H 
ENDROOT
BRANCH  11  18
ATOM     18  N9  CMP d   1      35.945  -2.785  -0.833  0.00  0.00    -0.294 N 
ATOM     19  C8  CMP d   1      37.160  -3.142  -1.335  0.00  0.00     0.071 A 
ATOM     20  N7  CMP d   1      37.988  -3.390  -0.361  0.00  0.00    -0.236 NA
ATOM     21  H8  CMP d   1      37.403  -3.210  -2.394  0.00  0.00     0.144 H 
ATOM     22  C5  CMP d   1      37.358  -3.202   0.824  0.00  0.00     0.149 A 
ATOM     23  C6  CMP d   1      37.734  -3.324   2.173  0.00  0.00     0.155 A 
ATOM     24  C4  CMP d   1      36.040  -2.818   0.534  0.00  0.00     0.167 A 
ATOM     25  N1  CMP d   1      36.827  -3.061   3.107  0.00  0.00    -0.222 NA
ATOM     26  C2  CMP d   1      35.601  -2.697   2.787  0.00  0.00     0.091 A 
ATOM     27  N3  CMP d   1      35.202  -2.575   1.538  0.00  0.00    -0.222 NA
ATOM     28  H11 CMP d   1      34.894  -2.490   3.583  0.00  0.00     0.146 H 
BRANCH  23  29
ATOM     29  N6  CMP d   1      39.019  -3.703   2.518  0.00  0.00    -0.382 N 
ATOM     30  H9  CMP d   1      39.282  -3.789   3.510  0.00  0.00     0.157 HD
ATOM     31  H10 CMP d   1      39.713  -3.900   1.783  0.00  0.00     0.157 HD
ENDBRANCH  23  29
ENDBRANCH  11  18
BRANCH  10  32
ATOM     32  O2' CMP d   1      33.793  -0.173  -1.722  0.00  0.00    -0.388 OA
ATOM     33  H6  CMP d   1      33.850   0.678  -2.140  0.00  0.00     0.210 HD
ENDBRANCH  10  32
TORSDOF 3
