REMARK  14 active torsions:
REMARK  status: ('A' for Active; 'I' for Inactive)
REMARK    1  A    between atoms: P24_2  and  O27_4 
REMARK    2  A    between atoms: O27_4  and  C28_5 
REMARK    3  A    between atoms: C28_5  and  C29_6 
REMARK    4  A    between atoms: C29_6  and  C30_7 
REMARK    5  A    between atoms: C29_6  and  C31_8 
REMARK    6  A    between atoms: C29_6  and  C32_9 
REMARK    7  A    between atoms: C32_9  and  O33_10 
REMARK    8  A    between atoms: C32_9  and  C34_11 
REMARK       I    between atoms: C34_11  and  N36_13 
REMARK    9  A    between atoms: N36_13  and  C37_14 
REMARK   10  A    between atoms: C37_14  and  C38_15 
REMARK   11  A    between atoms: C38_15  and  C39_16 
REMARK       I    between atoms: C39_16  and  N41_18 
REMARK   12  A    between atoms: N41_18  and  C42_19 
REMARK   13  A    between atoms: C42_19  and  C43_20 
REMARK   14  A    between atoms: C43_20  and  S44_21 
ROOT
ATOM      1  C34 PNS d   1     -11.316 -12.201  -6.396  0.00  0.00     0.247 C 
ATOM      2  O35 PNS d   1     -11.644 -11.084  -6.813  0.00  0.00    -0.271 OA
ATOM      3  N36 PNS d   1     -11.655 -13.300  -7.003  0.00  0.00    -0.358 N 
ATOM      4  H12 PNS d   1     -11.349 -14.164  -6.603  0.00  0.00     0.162 HD
ENDROOT
BRANCH   1   5
ATOM      5  C32 PNS d   1     -10.497 -12.421  -5.109  0.00  0.00     0.120 C 
ATOM      6  H10 PNS d   1     -11.194 -12.378  -4.260  0.00  0.00     0.099 H 
BRANCH   5   7
ATOM      7  C29 PNS d   1      -9.386 -11.309  -4.854  0.00  0.00     0.009 C 
BRANCH   7   8
ATOM      8  C28 PNS d   1      -8.601 -11.672  -3.594  0.00  0.00     0.038 C 
ATOM      9  H2  PNS d   1      -9.282 -11.637  -2.731  0.00  0.00     0.076 H 
ATOM     10  H3  PNS d   1      -8.204 -12.692  -3.707  0.00  0.00     0.076 H 
BRANCH   8  11
ATOM     11  O27 PNS d   1      -7.474 -10.749  -3.347  0.00  0.00    -0.313 OA
BRANCH  11  12
ATOM     12  P24 PNS d   1      -6.712 -10.936  -1.998  0.00  0.00     0.240 P 
ATOM     13  O23 PNS d   1      -7.639 -10.447  -0.867  0.00  0.00    -0.648 OA
ATOM     14  O26 PNS d   1      -6.156 -12.391  -1.930  0.00  0.00    -0.648 OA
ATOM     15  H1  PNS d   1      -5.910 -10.326  -1.996  0.00  0.00     0.164 HD
ENDBRANCH  11  12
ENDBRANCH   8  11
ENDBRANCH   7   8
BRANCH   7  16
ATOM     16  C30 PNS d   1     -10.042  -9.975  -4.577  0.00  0.00    -0.065 C 
ATOM     17  H4  PNS d   1     -10.624  -9.663  -5.457  0.00  0.00     0.028 H 
ATOM     18  H5  PNS d   1      -9.268  -9.223  -4.364  0.00  0.00     0.028 H 
ATOM     19  H6  PNS d   1     -10.711 -10.069  -3.709  0.00  0.00     0.028 H 
ENDBRANCH   7  16
BRANCH   7  20
ATOM     20  C31 PNS d   1      -8.438 -11.210  -6.062  0.00  0.00    -0.065 C 
ATOM     21  H7  PNS d   1      -7.973 -12.190  -6.245  0.00  0.00     0.028 H 
ATOM     22  H8  PNS d   1      -7.655 -10.466  -5.854  0.00  0.00     0.028 H 
ATOM     23  H9  PNS d   1      -9.008 -10.903  -6.951  0.00  0.00     0.028 H 
ENDBRANCH   7  20
ENDBRANCH   5   7
BRANCH   5  24
ATOM     24  O33 PNS d   1      -9.929 -13.744  -5.153  0.00  0.00    -0.385 OA
ATOM     25  H11 PNS d   1     -10.619 -14.379  -5.306  0.00  0.00     0.210 HD
ENDBRANCH   5  24
ENDBRANCH   1   5
BRANCH   3  26
ATOM     26  C37 PNS d   1     -12.457 -13.365  -8.237  0.00  0.00     0.003 C 
ATOM     27  H13 PNS d   1     -12.026 -12.670  -8.973  0.00  0.00     0.064 H 
ATOM     28  H14 PNS d   1     -13.487 -13.059  -8.002  0.00  0.00     0.064 H 
BRANCH  26  29
ATOM     29  C38 PNS d   1     -12.492 -14.771  -8.854  0.00  0.00     0.024 C 
ATOM     30  H15 PNS d   1     -13.398 -14.846  -9.474  0.00  0.00     0.049 H 
ATOM     31  H16 PNS d   1     -12.548 -15.500  -8.032  0.00  0.00     0.049 H 
BRANCH  29  32
ATOM     32  C39 PNS d   1     -11.279 -15.142  -9.737  0.00  0.00     0.219 C 
ATOM     33  O40 PNS d   1     -11.122 -16.297 -10.151  0.00  0.00    -0.274 OA
ATOM     34  N41 PNS d   1     -10.447 -14.152 -10.031  0.00  0.00    -0.360 N 
ATOM     35  H17 PNS d   1     -10.652 -13.246  -9.660  0.00  0.00     0.162 HD
BRANCH  34  36
ATOM     36  C42 PNS d   1      -9.257 -14.292 -10.855  0.00  0.00     0.003 C 
ATOM     37  H18 PNS d   1      -9.547 -14.242 -11.915  0.00  0.00     0.065 H 
ATOM     38  H19 PNS d   1      -8.791 -15.267 -10.648  0.00  0.00     0.065 H 
BRANCH  36  39
ATOM     39  C43 PNS d   1      -8.253 -13.193 -10.565  0.00  0.00    -0.011 C 
ATOM     40  H20 PNS d   1      -7.856 -13.353  -9.552  0.00  0.00     0.051 H 
ATOM     41  H21 PNS d   1      -8.782 -12.229 -10.604  0.00  0.00     0.051 H 
BRANCH  39  42
ATOM     42  S44 PNS d   1      -6.861 -13.109 -11.701  0.00  0.00    -0.181 SA
ATOM     43  H22 PNS d   1      -6.252 -12.353 -11.429  0.00  0.00     0.101 HD
ENDBRANCH  39  42
ENDBRANCH  36  39
ENDBRANCH  34  36
ENDBRANCH  29  32
ENDBRANCH  26  29
ENDBRANCH   3  26
TORSDOF 14
