REMARK  24 active torsions:
REMARK  status: ('A' for Active; 'I' for Inactive)
REMARK    1  A    between atoms: C_1  and  OA1_3 
REMARK       I    between atoms: C_1  and  N_8 
REMARK    2  A    between atoms: OA1_3  and  CB_4 
REMARK    3  A    between atoms: CB_4  and  CG_5 
REMARK    4  A    between atoms: CG_5  and  CD1_6 
REMARK    5  A    between atoms: CG_5  and  CD2_7 
REMARK    6  A    between atoms: N_8  and  CA_9 
REMARK    7  A    between atoms: CA_9  and  C_10 
REMARK    8  A    between atoms: CA_9  and  CB_12 
REMARK       I    between atoms: C_10  and  N_17 
REMARK    9  A    between atoms: CB_12  and  CG_13 
REMARK   10  A    between atoms: CG_13  and  CD_14 
REMARK   11  A    between atoms: N_17  and  CA_18 
REMARK   12  A    between atoms: CA_18  and  C_19 
REMARK   13  A    between atoms: CA_18  and  CB_21 
REMARK       I    between atoms: C_19  and  N_25 
REMARK   14  A    between atoms: CB_21  and  CG_22 
REMARK   15  A    between atoms: CG_22  and  CD1_23 
REMARK   16  A    between atoms: CG_22  and  CD2_24 
REMARK   17  A    between atoms: N_25  and  CA_26 
REMARK   18  A    between atoms: CA_26  and  CB_27 
REMARK   19  A    between atoms: CA_26  and  C_31 
REMARK   20  A    between atoms: CB_27  and  CG_28 
REMARK       I    between atoms: C_31  and  N_33 
REMARK   21  A    between atoms: N_33  and  CA_34 
REMARK   22  A    between atoms: CA_34  and  CB_35 
REMARK   23  A    between atoms: CB_35  and  CG_36 
REMARK   24  A    between atoms: CZ_42  and  CF_43 
ROOT
ATOM      1  CA  LEU d   1       9.928  -4.565  -1.922  0.00  0.00     0.089 C 
ATOM      2  H17 LEU d   1       9.244  -4.816  -2.746  0.00  0.00     0.087 H 
ENDROOT
BRANCH   1   3
ATOM      3  N   LEU d   1      11.182  -5.373  -2.012  0.00  0.00    -0.346 N 
ATOM      4  C   GLU d   1      11.778  -5.543  -3.165  0.00  0.00     0.241 C 
ATOM      5  O   GLU d   1      11.336  -5.056  -4.189  0.00  0.00    -0.271 OA
ATOM      6  H16 LEU d   1      11.568  -5.786  -1.187  0.00  0.00     0.163 HD
BRANCH   4   7
ATOM      7  CA  GLU d   1      13.059  -6.383  -3.177  0.00  0.00     0.092 C 
ATOM      8  H11 GLU d   1      13.208  -6.843  -2.189  0.00  0.00     0.087 H 
BRANCH   7   9
ATOM      9  N   GLU d   1      12.980  -7.427  -4.240  0.00  0.00    -0.324 N 
ATOM     10  C   IBU d   1      13.217  -8.669  -3.919  0.00  0.00     0.361 C 
ATOM     11  OA2 IBU d   1      12.455  -9.559  -4.238  0.00  0.00    -0.239 OA
ATOM     12  H10 GLU d   1      12.750  -7.179  -5.181  0.00  0.00     0.165 HD
BRANCH  10  13
ATOM     13  OA1 IBU d   1      14.205  -8.937  -3.219  0.00  0.00    -0.304 OA
BRANCH  13  14
ATOM     14  CB  IBU d   1      15.253  -9.103  -3.886  0.00  0.00     0.033 C 
ATOM     15  H1  IBU d   1      16.121  -8.813  -3.276  0.00  0.00     0.075 H 
ATOM     16  H2  IBU d   1      15.212  -8.475  -4.788  0.00  0.00     0.075 H 
BRANCH  14  17
ATOM     17  CG  IBU d   1      15.393 -10.575  -4.299  0.00  0.00    -0.040 C 
ATOM     18  H3  IBU d   1      14.422 -10.950  -4.655  0.00  0.00     0.042 H 
BRANCH  17  19
ATOM     19  CD1 IBU d   1      16.429 -10.695  -5.419  0.00  0.00    -0.071 C 
ATOM     20  H4  IBU d   1      16.529 -11.750  -5.715  0.00  0.00     0.028 H 
ATOM     21  H5  IBU d   1      17.400 -10.321  -5.062  0.00  0.00     0.028 H 
ATOM     22  H6  IBU d   1      16.103 -10.101  -6.285  0.00  0.00     0.028 H 
ENDBRANCH  17  19
BRANCH  17  23
ATOM     23  CD2 IBU d   1      15.851 -11.401  -3.094  0.00  0.00    -0.071 C 
ATOM     24  H7  IBU d   1      15.108 -11.316  -2.288  0.00  0.00     0.028 H 
ATOM     25  H8  IBU d   1      16.822 -11.025  -2.739  0.00  0.00     0.028 H 
ATOM     26  H9  IBU d   1      15.953 -12.456  -3.390  0.00  0.00     0.028 H 
ENDBRANCH  17  23
ENDBRANCH  14  17
ENDBRANCH  13  14
ENDBRANCH  10  13
ENDBRANCH   7   9
BRANCH   7  27
ATOM     27  CB  GLU d   1      14.267  -5.523  -3.559  0.00  0.00    -0.029 C 
ATOM     28  H12 GLU d   1      14.094  -5.066  -4.544  0.00  0.00     0.037 H 
ATOM     29  H13 GLU d   1      15.167  -6.154  -3.601  0.00  0.00     0.037 H 
BRANCH  27  30
ATOM     30  CG  GLU d   1      14.466  -4.421  -2.514  0.00  0.00     0.018 C 
ATOM     31  H14 GLU d   1      14.640  -4.878  -1.529  0.00  0.00     0.049 H 
ATOM     32  H15 GLU d   1      13.566  -3.789  -2.472  0.00  0.00     0.049 H 
BRANCH  30  33
ATOM     33  CD  GLU d   1      15.673  -3.563  -2.898  0.00  0.00     0.172 C 
ATOM     34  OE1 GLU d   1      15.890  -3.376  -4.084  0.00  0.00    -0.648 OA
ATOM     35  OE2 GLU d   1      16.360  -3.107  -2.000  0.00  0.00    -0.648 OA
ENDBRANCH  30  33
ENDBRANCH  27  30
ENDBRANCH   7  27
ENDBRANCH   4   7
ENDBRANCH   1   3
BRANCH   1  36
ATOM     36  C   LEU d   1      10.257  -3.071  -1.965  0.00  0.00     0.241 C 
ATOM     37  O   LEU d   1      11.255  -2.632  -1.425  0.00  0.00    -0.271 OA
ATOM     38  N   OBF d   1       9.424  -2.290  -2.604  0.00  0.00    -0.346 N 
ATOM     39  H27 OBF d   1       8.611  -2.679  -3.037  0.00  0.00     0.163 HD
BRANCH  38  40
ATOM     40  CA  OBF d   1       9.680  -0.821  -2.690  0.00  0.00     0.094 C 
ATOM     41  H28 OBF d   1      10.537  -0.539  -2.060  0.00  0.00     0.087 H 
BRANCH  40  42
ATOM     42  CB  OBF d   1       9.986  -0.556  -4.164  0.00  0.00     0.017 C 
ATOM     43  H29 OBF d   1      10.021   0.529  -4.342  0.00  0.00     0.044 H 
ATOM     44  H30 OBF d   1       9.199  -1.004  -4.788  0.00  0.00     0.044 H 
BRANCH  42  45
ATOM     45  CG  OBF d   1      11.337  -1.176  -4.523  0.00  0.00     0.210 C 
ATOM     46  FG1 OBF d   1      11.945  -0.500  -5.520  0.00  0.00    -0.214 F 
ATOM     47  FG2 OBF d   1      11.205  -2.462  -4.912  0.00  0.00    -0.214 F 
ATOM     48  H31 OBF d   1      11.977  -1.140  -3.629  0.00  0.00     0.145 H 
ENDBRANCH  42  45
ENDBRANCH  40  42
BRANCH  40  49
ATOM     49  C   OBF d   1       8.441  -0.037  -2.249  0.00  0.00     0.240 C 
ATOM     50  O   OBF d   1       8.206   1.068  -2.701  0.00  0.00    -0.271 OA
ATOM     51  N   FE3 d   1       7.652  -0.598  -1.368  0.00  0.00    -0.359 N 
ATOM     52  H32 FE3 d   1       7.868  -1.507  -1.012  0.00  0.00     0.162 HD
BRANCH  51  53
ATOM     53  CA  FE3 d   1       6.428   0.117  -0.892  0.00  0.00    -0.001 C 
ATOM     54  H33 FE3 d   1       5.605  -0.594  -0.727  0.00  0.00     0.064 H 
ATOM     55  H34 FE3 d   1       6.115   0.876  -1.624  0.00  0.00     0.064 H 
BRANCH  53  56
ATOM     56  CB  FE3 d   1       6.839   0.779   0.428  0.00  0.00    -0.025 C 
ATOM     57  H35 FE3 d   1       7.110   0.002   1.158  0.00  0.00     0.042 H 
ATOM     58  H36 FE3 d   1       5.997   1.371   0.818  0.00  0.00     0.042 H 
BRANCH  56  59
ATOM     59  CG  FE3 d   1       8.027   1.687   0.196  0.00  0.00    -0.035 A 
ATOM     60  CD1 FE3 d   1       9.345   1.177   0.343  0.00  0.00     0.041 A 
ATOM     61 CLD1 FE3 d   1       9.556  -0.264   0.739  0.00  0.00    -0.084 Cl
ATOM     62  CE1 FE3 d   1      10.462   2.024   0.117  0.00  0.00    -0.045 A 
ATOM     63  CZ  FE3 d   1      10.268   3.385  -0.256  0.00  0.00     0.042 A 
ATOM     64  H38 FE3 d   1      11.467   1.633   0.229  0.00  0.00     0.087 H 
ATOM     65  CE2 FE3 d   1       8.946   3.892  -0.403  0.00  0.00    -0.066 A 
ATOM     66  CD2 FE3 d   1       7.828   3.043  -0.177  0.00  0.00    -0.074 A 
ATOM     67  H39 FE3 d   1       8.791   4.926  -0.688  0.00  0.00     0.085 H 
ATOM     68  H37 FE3 d   1       6.822   3.431  -0.290  0.00  0.00     0.084 H 
BRANCH  63  69
ATOM     69  CF  FE3 d   1      11.365   4.214  -0.477  0.00  0.00     0.209 C 
ATOM     70  OF1 FE3 d   1      11.158   5.375  -0.796  0.00  0.00    -0.644 OA
ATOM     71  OF2 FE3 d   1      12.484   3.744  -0.331  0.00  0.00    -0.644 OA
ENDBRANCH  63  69
ENDBRANCH  56  59
ENDBRANCH  53  56
ENDBRANCH  51  53
ENDBRANCH  40  49
ENDBRANCH  38  40
ENDBRANCH   1  36
BRANCH   1  72
ATOM     72  CB  LEU d   1       9.307  -4.939  -0.575  0.00  0.00    -0.035 C 
ATOM     73  H18 LEU d   1       8.665  -4.117  -0.226  0.00  0.00     0.037 H 
ATOM     74  H19 LEU d   1      10.105  -5.117   0.160  0.00  0.00     0.037 H 
BRANCH  72  75
ATOM     75  CG  LEU d   1       8.469  -6.208  -0.736  0.00  0.00    -0.059 C 
ATOM     76  H20 LEU d   1       7.756  -6.074  -1.563  0.00  0.00     0.038 H 
BRANCH  75  77
ATOM     77  CD1 LEU d   1       9.389  -7.393  -1.041  0.00  0.00    -0.073 C 
ATOM     78  H21 LEU d   1       8.786  -8.305  -1.157  0.00  0.00     0.028 H 
ATOM     79  H22 LEU d   1      10.101  -7.527  -0.213  0.00  0.00     0.028 H 
ATOM     80  H23 LEU d   1       9.941  -7.198  -1.972  0.00  0.00     0.028 H 
ENDBRANCH  75  77
BRANCH  75  81
ATOM     81  CD2 LEU d   1       7.703  -6.480   0.561  0.00  0.00    -0.073 C 
ATOM     82  H24 LEU d   1       7.042  -5.629   0.781  0.00  0.00     0.028 H 
ATOM     83  H25 LEU d   1       8.417  -6.613   1.387  0.00  0.00     0.028 H 
ATOM     84  H26 LEU d   1       7.100  -7.393   0.446  0.00  0.00     0.028 H 
ENDBRANCH  75  81
ENDBRANCH  72  75
ENDBRANCH   1  72
TORSDOF 24
