REMARK  7 active torsions:
REMARK  status: ('A' for Active; 'I' for Inactive)
REMARK    1  A    between atoms: C1_1  and  S21_14 
REMARK    2  A    between atoms: S21_14  and  N24_17 
REMARK    3  A    between atoms: N24_17  and  C10_18 
REMARK    4  A    between atoms: C10_18  and  CBC_19 
REMARK    5  A    between atoms: C10_18  and  C37_22 
REMARK    6  A    between atoms: CBC_19  and  CC1_20 
REMARK    7  A    between atoms: CBC_19  and  CC2_21 
ROOT
ATOM      1  C1  DSV d   1      69.323  23.264  16.734  0.00  0.00     0.080 C 
ATOM      2  C2  DSV d   1      68.419  22.246  16.355  0.00  0.00    -0.043 C 
ATOM      3  C3  DSV d   1      67.116  22.621  15.956  0.00  0.00     0.018 A 
ATOM      4  C4  DSV d   1      66.720  23.959  15.897  0.00  0.00    -0.007 A 
ATOM      5  C5  DSV d   1      67.600  24.965  16.332  0.00  0.00    -0.069 C 
ATOM      6  C6  DSV d   1      68.884  24.607  16.817  0.00  0.00    -0.059 C 
ATOM      7  S10 DSV d   1      65.806  21.525  15.481  0.00  0.00    -0.089 SA
ATOM      8  C11 DSV d   1      64.735  22.887  15.096  0.00  0.00     0.016 A 
ATOM      9  C12 DSV d   1      65.348  24.115  15.348  0.00  0.00    -0.007 A 
ATOM     10  CY1 DSV d   1      63.418  22.799  14.593  0.00  0.00    -0.066 C 
ATOM     11  CZ1 DSV d   1      62.707  23.996  14.338  0.00  0.00    -0.082 C 
ATOM     12  CZ2 DSV d   1      63.373  25.240  14.468  0.00  0.00    -0.082 C 
ATOM     13  CY2 DSV d   1      64.654  25.306  15.074  0.00  0.00    -0.071 C 
ATOM     14  H1  DSV d   1      68.717  21.204  16.370  0.00  0.00     0.088 H 
ATOM     15  H2  DSV d   1      67.300  26.006  16.297  0.00  0.00     0.085 H 
ATOM     16  H3  DSV d   1      69.529  25.362  17.251  0.00  0.00     0.085 H 
ATOM     17  H4  DSV d   1      62.961  21.834  14.406  0.00  0.00     0.085 H 
ATOM     18  H5  DSV d   1      61.664  23.962  14.046  0.00  0.00     0.083 H 
ATOM     19  H6  DSV d   1      62.902  26.145  14.103  0.00  0.00     0.083 H 
ATOM     20  H7  DSV d   1      65.093  26.265  15.323  0.00  0.00     0.084 H 
ENDROOT
BRANCH   1  21
ATOM     21  S21 DSV d   1      71.006  22.859  17.096  0.00  0.00     0.259 S 
ATOM     22  O22 DSV d   1      71.288  21.526  16.656  0.00  0.00    -0.201 OA
ATOM     23  O23 DSV d   1      71.302  23.241  18.445  0.00  0.00    -0.201 OA
BRANCH  21  24
ATOM     24  N24 DSV d   1      72.002  23.879  16.098  0.00  0.00    -0.300 N 
ATOM     25  H8  DSV d   1      71.711  24.129  15.175  0.00  0.00     0.173 HD
BRANCH  24  26
ATOM     26  C10 DSV d   1      73.269  24.362  16.633  0.00  0.00     0.106 C 
ATOM     27  H9  DSV d   1      73.096  24.719  17.659  0.00  0.00     0.091 H 
BRANCH  26  28
ATOM     28  CBC DSV d   1      74.309  23.223  16.693  0.00  0.00    -0.031 C 
ATOM     29  H10 DSV d   1      73.837  22.376  17.212  0.00  0.00     0.042 H 
BRANCH  28  30
ATOM     30  CC1 DSV d   1      75.563  23.611  17.484  0.00  0.00    -0.071 C 
ATOM     31  H11 DSV d   1      76.266  22.765  17.494  0.00  0.00     0.028 H 
ATOM     32  H12 DSV d   1      75.281  23.866  18.516  0.00  0.00     0.028 H 
ATOM     33  H13 DSV d   1      76.041  24.480  17.009  0.00  0.00     0.028 H 
ENDBRANCH  28  30
BRANCH  28  34
ATOM     34  CC2 DSV d   1      74.710  22.750  15.282  0.00  0.00    -0.071 C 
ATOM     35  H14 DSV d   1      73.807  22.473  14.718  0.00  0.00     0.028 H 
ATOM     36  H15 DSV d   1      75.374  21.877  15.363  0.00  0.00     0.028 H 
ATOM     37  H16 DSV d   1      75.234  23.563  14.758  0.00  0.00     0.028 H 
ENDBRANCH  28  34
ENDBRANCH  26  28
BRANCH  26  38
ATOM     38  C37 DSV d   1      73.787  25.547  15.793  0.00  0.00     0.197 C 
ATOM     39  O39 DSV d   1      74.900  25.634  15.370  0.00  0.00    -0.646 OA
ATOM     40  O40 DSV d   1      72.826  26.480  15.594  0.00  0.00    -0.646 OA
ENDBRANCH  26  38
ENDBRANCH  24  26
ENDBRANCH  21  24
ENDBRANCH   1  21
TORSDOF 7
