REMARK WARNING: 32 MAX_TORS EXCEEDED!!!
REMARK  47 active torsions:
REMARK  status: ('A' for Active; 'I' for Inactive)
REMARK    1  A    between atoms: N_1  and  CA_2 
REMARK    2  A    between atoms: CA_2  and  C_3 
REMARK    3  A    between atoms: CA_2  and  CB_5 
REMARK       I    between atoms: C_3  and  N_9 
REMARK    4  A    between atoms: CB_5  and  CG_6 
REMARK    5  A    between atoms: N_9  and  CA_10 
REMARK    6  A    between atoms: CA_10  and  C_11 
REMARK    7  A    between atoms: CA_10  and  CB_13 
REMARK       I    between atoms: C_11  and  N_17 
REMARK    8  A    between atoms: CB_13  and  CG_14 
REMARK    9  A    between atoms: CG_14  and  CD1_15 
REMARK   10  A    between atoms: CG_14  and  CD2_16 
REMARK   11  A    between atoms: N_17  and  CA_18 
REMARK   12  A    between atoms: CA_18  and  C_19 
REMARK   13  A    between atoms: CA_18  and  CB_21 
REMARK       I    between atoms: C_19  and  N_25 
REMARK   14  A    between atoms: CB_21  and  CG_22 
REMARK   15  A    between atoms: N_25  and  CA_26 
REMARK   16  A    between atoms: CA_26  and  C_27 
REMARK   17  A    between atoms: CA_26  and  CB_29 
REMARK       I    between atoms: C_27  and  N_30 
REMARK   18  A    between atoms: N_30  and  CA_31 
REMARK   19  A    between atoms: CA_31  and  C_32 
REMARK   20  A    between atoms: CA_31  and  CB_34 
REMARK       I    between atoms: C_32  and  N_38 
REMARK   21  A    between atoms: CB_34  and  CG_35 
REMARK   22  A    between atoms: CG_35  and  CD1_36 
REMARK   23  A    between atoms: CG_35  and  CD2_37 
REMARK   24  A    between atoms: N_38  and  CA_39 
REMARK   25  A    between atoms: CA_39  and  C_40 
REMARK   26  A    between atoms: CA_39  and  CB_42 
REMARK       I    between atoms: C_40  and  N_46 
REMARK   27  A    between atoms: CB_42  and  CG_43 
REMARK   28  A    between atoms: CG_43  and  CD1_44 
REMARK   29  A    between atoms: CG_43  and  CD2_45 
REMARK   30  A    between atoms: N_46  and  CA_47 
REMARK   31  A    between atoms: CA_47  and  C_48 
REMARK   32  A    between atoms: CA_47  and  CB_50 
REMARK       I    between atoms: C_48  and  N_51 
REMARK   33  A    between atoms: N_51  and  CA_52 
REMARK   34  A    between atoms: CA_52  and  C_53 
REMARK   35  A    between atoms: CA_52  and  CB_55 
REMARK       I    between atoms: C_53  and  N_59 
REMARK   36  A    between atoms: CB_55  and  CG_56 
REMARK   37  A    between atoms: N_59  and  CA_60 
REMARK   38  A    between atoms: CA_60  and  C_61 
REMARK   39  A    between atoms: CA_60  and  CB_63 
REMARK       I    between atoms: C_61  and  N_67 
REMARK   40  A    between atoms: CB_63  and  CG_64 
REMARK   41  A    between atoms: CG_64  and  CD1_65 
REMARK   42  A    between atoms: CG_64  and  CD2_66 
REMARK   43  A    between atoms: N_67  and  CA_68 
REMARK   44  A    between atoms: CA_68  and  C_69 
REMARK   45  A    between atoms: CA_68  and  CB_71 
REMARK   46  A    between atoms: CB_71  and  CG_72 
REMARK   47  A    between atoms: CG_72  and  CD_73 
ROOT
ATOM      1  C   LEU d   1      15.795   5.351  -1.271  0.00  0.00     0.241 C 
ATOM      2  O   LEU d   1      14.969   6.224  -1.084  0.00  0.00    -0.271 OA
ATOM      3  N   LEU d   1      17.024   5.488  -0.853  0.00  0.00    -0.346 N 
ATOM      4  H38 LEU d   1      17.692   4.763  -1.016  0.00  0.00     0.163 HD
ENDROOT
BRANCH   3   5
ATOM      5  CA  LEU d   1      17.430   6.731  -0.130  0.00  0.00     0.089 C 
ATOM      6  H39 LEU d   1      16.590   7.088   0.484  0.00  0.00     0.087 H 
BRANCH   5   7
ATOM      7  C   LEU d   1      17.812   7.817  -1.140  0.00  0.00     0.241 C 
ATOM      8  O   LEU d   1      17.560   8.987  -0.930  0.00  0.00    -0.271 OA
ATOM      9  N   ALA d   1      18.411   7.442  -2.234  0.00  0.00    -0.346 N 
ATOM     10  H49 ALA d   1      18.610   6.474  -2.389  0.00  0.00     0.163 HD
BRANCH   9  11
ATOM     11  CA  ALA d   1      18.800   8.455  -3.254  0.00  0.00     0.086 C 
ATOM     12  H50 ALA d   1      19.510   9.169  -2.811  0.00  0.00     0.086 H 
BRANCH  11  13
ATOM     13  C   ALA d   1      17.550   9.199  -3.722  0.00  0.00     0.240 C 
ATOM     14  O   ALA d   1      17.631  10.256  -4.316  0.00  0.00    -0.271 OA
ATOM     15  N   ASP d   1      16.391   8.651  -3.452  0.00  0.00    -0.346 N 
ATOM     16  H54 ASP d   1      16.359   7.781  -2.960  0.00  0.00     0.163 HD
BRANCH  15  17
ATOM     17  CA  ASP d   1      15.114   9.311  -3.870  0.00  0.00     0.098 C 
ATOM     18  H55 ASP d   1      15.332  10.124  -4.578  0.00  0.00     0.088 H 
BRANCH  17  19
ATOM     19  C   ASP d   1      14.405   9.879  -2.637  0.00  0.00     0.241 C 
ATOM     20  O   ASP d   1      13.670  10.843  -2.721  0.00  0.00    -0.271 OA
ATOM     21  N   LEU d   1      14.612   9.284  -1.492  0.00  0.00    -0.346 N 
ATOM     22  H58 LEU d   1      15.220   8.492  -1.444  0.00  0.00     0.163 HD
BRANCH  21  23
ATOM     23  CA  LEU d   1      13.941   9.786  -0.256  0.00  0.00     0.089 C 
ATOM     24  H59 LEU d   1      12.905  10.070  -0.493  0.00  0.00     0.087 H 
BRANCH  23  25
ATOM     25  C   LEU d   1      14.688  11.011   0.288  0.00  0.00     0.241 C 
ATOM     26  O   LEU d   1      14.247  11.654   1.219  0.00  0.00    -0.271 OA
ATOM     27  N   GLU d   1      15.817  11.340  -0.281  0.00  0.00    -0.345 N 
ATOM     28  H69 GLU d   1      16.164  10.799  -1.047  0.00  0.00     0.163 HD
BRANCH  27  29
ATOM     29  CA  GLU d   1      16.589  12.516   0.205  0.00  0.00     0.097 C 
ATOM     30  H70 GLU d   1      17.062  12.260   1.165  0.00  0.00     0.089 H 
BRANCH  29  31
ATOM     31  C   GLU d   1      15.647  13.709   0.420  0.00  0.00     0.196 C 
ATOM     32  O   GLU d   1      15.941  14.523   1.280  0.00  0.00    -0.646 OA
ATOM     33  OXT GLU d   1      14.651  13.786  -0.280  0.00  0.00    -0.646 OA
ENDBRANCH  29  31
BRANCH  29  34
ATOM     34  CB  GLU d   1      17.686  12.875  -0.809  0.00  0.00    -0.028 C 
ATOM     35  H71 GLU d   1      18.641  12.428  -0.496  0.00  0.00     0.037 H 
ATOM     36  H72 GLU d   1      17.794  13.968  -0.867  0.00  0.00     0.037 H 
BRANCH  34  37
ATOM     37  CG  GLU d   1      17.288  12.330  -2.161  0.00  0.00     0.018 C 
ATOM     38  H73 GLU d   1      16.220  12.529  -2.332  0.00  0.00     0.049 H 
ATOM     39  H74 GLU d   1      17.466  11.245  -2.181  0.00  0.00     0.049 H 
BRANCH  37  40
ATOM     40  CD  GLU d   1      18.108  12.996  -3.268  0.00  0.00     0.172 C 
ATOM     41  OE1 GLU d   1      19.053  13.694  -2.941  0.00  0.00    -0.648 OA
ATOM     42  OE2 GLU d   1      17.777  12.794  -4.425  0.00  0.00    -0.648 OA
ENDBRANCH  37  40
ENDBRANCH  34  37
ENDBRANCH  29  34
ENDBRANCH  27  29
ENDBRANCH  23  25
BRANCH  23  43
ATOM     43  CB  LEU d   1      13.935   8.670   0.801  0.00  0.00    -0.035 C 
ATOM     44  H60 LEU d   1      14.924   8.618   1.279  0.00  0.00     0.037 H 
ATOM     45  H61 LEU d   1      13.712   7.710   0.313  0.00  0.00     0.037 H 
BRANCH  43  46
ATOM     46  CG  LEU d   1      12.864   8.955   1.877  0.00  0.00    -0.059 C 
ATOM     47  H62 LEU d   1      12.805  10.040   2.051  0.00  0.00     0.038 H 
BRANCH  46  48
ATOM     48  CD1 LEU d   1      11.495   8.438   1.415  0.00  0.00    -0.073 C 
ATOM     49  H63 LEU d   1      10.743   8.648   2.190  0.00  0.00     0.028 H 
ATOM     50  H64 LEU d   1      11.552   7.353   1.243  0.00  0.00     0.028 H 
ATOM     51  H65 LEU d   1      11.209   8.943   0.481  0.00  0.00     0.028 H 
ENDBRANCH  46  48
BRANCH  46  52
ATOM     52  CD2 LEU d   1      13.244   8.246   3.182  0.00  0.00    -0.073 C 
ATOM     53  H66 LEU d   1      14.225   8.608   3.524  0.00  0.00     0.028 H 
ATOM     54  H67 LEU d   1      13.294   7.161   3.009  0.00  0.00     0.028 H 
ATOM     55  H68 LEU d   1      12.486   8.460   3.950  0.00  0.00     0.028 H 
ENDBRANCH  46  52
ENDBRANCH  43  46
ENDBRANCH  23  43
ENDBRANCH  21  23
ENDBRANCH  17  19
BRANCH  17  56
ATOM     56  CB  ASP d   1      14.210   8.274  -4.540  0.00  0.00     0.043 C 
ATOM     57  H56 ASP d   1      13.816   7.585  -3.778  0.00  0.00     0.052 H 
ATOM     58  H57 ASP d   1      14.791   7.707  -5.282  0.00  0.00     0.052 H 
BRANCH  56  59
ATOM     59  CG  ASP d   1      13.046   8.980  -5.237  0.00  0.00     0.175 C 
ATOM     60  OD1 ASP d   1      12.534   9.934  -4.673  0.00  0.00    -0.648 OA
ATOM     61  OD2 ASP d   1      12.685   8.555  -6.322  0.00  0.00    -0.648 OA
ENDBRANCH  56  59
ENDBRANCH  17  56
ENDBRANCH  15  17
ENDBRANCH  11  13
BRANCH  11  62
ATOM     62  CB  ALA d   1      19.455   7.758  -4.448  0.00  0.00    -0.049 C 
ATOM     63  H51 ALA d   1      19.741   8.509  -5.199  0.00  0.00     0.030 H 
ATOM     64  H52 ALA d   1      18.744   7.047  -4.893  0.00  0.00     0.030 H 
ATOM     65  H53 ALA d   1      20.351   7.217  -4.110  0.00  0.00     0.030 H 
ENDBRANCH  11  62
ENDBRANCH   9  11
ENDBRANCH   5   7
BRANCH   5  66
ATOM     66  CB  LEU d   1      18.623   6.411   0.779  0.00  0.00    -0.035 C 
ATOM     67  H40 LEU d   1      19.502   6.185   0.157  0.00  0.00     0.037 H 
ATOM     68  H41 LEU d   1      18.380   5.537   1.402  0.00  0.00     0.037 H 
BRANCH  66  69
ATOM     69  CG  LEU d   1      18.943   7.613   1.693  0.00  0.00    -0.059 C 
ATOM     70  H42 LEU d   1      18.815   8.545   1.123  0.00  0.00     0.038 H 
BRANCH  69  71
ATOM     71  CD1 LEU d   1      18.006   7.629   2.909  0.00  0.00    -0.073 C 
ATOM     72  H43 LEU d   1      18.249   8.491   3.548  0.00  0.00     0.028 H 
ATOM     73  H44 LEU d   1      18.135   6.700   3.483  0.00  0.00     0.028 H 
ATOM     74  H45 LEU d   1      16.963   7.708   2.567  0.00  0.00     0.028 H 
ENDBRANCH  69  71
BRANCH  69  75
ATOM     75  CD2 LEU d   1      20.390   7.509   2.187  0.00  0.00    -0.073 C 
ATOM     76  H46 LEU d   1      21.072   7.497   1.324  0.00  0.00     0.028 H 
ATOM     77  H47 LEU d   1      20.514   6.582   2.766  0.00  0.00     0.028 H 
ATOM     78  H48 LEU d   1      20.622   8.374   2.826  0.00  0.00     0.028 H 
ENDBRANCH  69  75
ENDBRANCH  66  69
ENDBRANCH   5  66
ENDBRANCH   3   5
BRANCH   1  79
ATOM     79  CA  LEU d   1      15.421   4.047  -1.991  0.00  0.00     0.089 C 
ATOM     80  H28 LEU d   1      14.500   4.205  -2.571  0.00  0.00     0.087 H 
BRANCH  79  81
ATOM     81  N   LEU d   1      16.520   3.633  -2.905  0.00  0.00    -0.346 N 
ATOM     82  C   ALA d   1      17.052   4.493  -3.728  0.00  0.00     0.240 C 
ATOM     83  O   ALA d   1      16.667   5.646  -3.770  0.00  0.00    -0.271 OA
ATOM     84  H27 LEU d   1      16.852   2.690  -2.888  0.00  0.00     0.163 HD
BRANCH  82  85
ATOM     85  CA  ALA d   1      18.171   3.995  -4.651  0.00  0.00     0.086 C 
ATOM     86  H23 ALA d   1      18.659   4.859  -5.124  0.00  0.00     0.086 H 
BRANCH  85  87
ATOM     87  N   ALA d   1      19.186   3.223  -3.873  0.00  0.00    -0.346 N 
ATOM     88  C   ASP d   1      20.013   3.849  -3.083  0.00  0.00     0.241 C 
ATOM     89  O   ASP d   1      19.973   5.054  -2.967  0.00  0.00    -0.271 OA
ATOM     90  H22 ALA d   1      19.231   2.228  -3.958  0.00  0.00     0.163 HD
BRANCH  88  91
ATOM     91  CA  ASP d   1      21.049   3.019  -2.319  0.00  0.00     0.098 C 
ATOM     92  H19 ASP d   1      21.383   3.582  -1.435  0.00  0.00     0.088 H 
BRANCH  91  93
ATOM     93  N   ASP d   1      20.457   1.723  -1.880  0.00  0.00    -0.346 N 
ATOM     94  C   LEU d   1      19.268   1.681  -1.357  0.00  0.00     0.241 C 
ATOM     95  O   LEU d   1      18.601   2.686  -1.208  0.00  0.00    -0.271 OA
ATOM     96  H18 ASP d   1      20.980   0.878  -1.989  0.00  0.00     0.163 HD
BRANCH  94  97
ATOM     97  CA  LEU d   1      18.755   0.306  -0.924  0.00  0.00     0.089 C 
ATOM     98  H8  LEU d   1      17.784   0.420  -0.420  0.00  0.00     0.087 H 
BRANCH  97  99
ATOM     99  N   LEU d   1      18.594  -0.565  -2.123  0.00  0.00    -0.346 N 
ATOM    100  C   ASP d   1      17.679  -0.292  -3.012  0.00  0.00     0.249 C 
ATOM    101  O   ASP d   1      16.944   0.667  -2.886  0.00  0.00    -0.271 OA
ATOM    102  H7  LEU d   1      19.188  -1.360  -2.246  0.00  0.00     0.163 HD
BRANCH 100 103
ATOM    103  CA  ASP d   1      17.565  -1.228  -4.217  0.00  0.00     0.185 C 
ATOM    104  H4  ASP d   1      18.277  -0.914  -4.994  0.00  0.00     0.100 H 
BRANCH 103 105
ATOM    105  N   ASP d   1      17.874  -2.623  -3.793  0.00  0.00    -0.066 N 
ATOM    106  H1  ASP d   1      17.799  -3.240  -4.587  0.00  0.00     0.275 HD
ATOM    107  H2  ASP d   1      17.221  -2.910  -3.081  0.00  0.00     0.275 HD
ATOM    108  H3  ASP d   1      18.811  -2.662  -3.424  0.00  0.00     0.275 HD
ENDBRANCH 103 105
BRANCH 103 109
ATOM    109  CB  ASP d   1      16.142  -1.169  -4.775  0.00  0.00     0.050 C 
ATOM    110  H5  ASP d   1      16.062  -1.836  -5.646  0.00  0.00     0.052 H 
ATOM    111  H6  ASP d   1      15.910  -0.138  -5.080  0.00  0.00     0.052 H 
BRANCH 109 112
ATOM    112  CG  ASP d   1      15.153  -1.616  -3.697  0.00  0.00     0.175 C 
ATOM    113  OD1 ASP d   1      15.144  -2.794  -3.380  0.00  0.00    -0.648 OA
ATOM    114  OD2 ASP d   1      14.421  -0.772  -3.207  0.00  0.00    -0.648 OA
ENDBRANCH 109 112
ENDBRANCH 103 109
ENDBRANCH 100 103
ENDBRANCH  97  99
BRANCH  97 115
ATOM    115  CB  LEU d   1      19.762  -0.346   0.043  0.00  0.00    -0.035 C 
ATOM    116  H9  LEU d   1      20.783  -0.064  -0.254  0.00  0.00     0.037 H 
ATOM    117  H10 LEU d   1      19.655  -1.440  -0.008  0.00  0.00     0.037 H 
BRANCH 115 118
ATOM    118  CG  LEU d   1      19.510   0.120   1.490  0.00  0.00    -0.059 C 
ATOM    119  H11 LEU d   1      20.336  -0.235   2.124  0.00  0.00     0.038 H 
BRANCH 118 120
ATOM    120  CD1 LEU d   1      19.462   1.650   1.547  0.00  0.00    -0.073 C 
ATOM    121  H12 LEU d   1      19.282   1.973   2.583  0.00  0.00     0.028 H 
ATOM    122  H13 LEU d   1      18.649   2.016   0.902  0.00  0.00     0.028 H 
ATOM    123  H14 LEU d   1      20.421   2.060   1.197  0.00  0.00     0.028 H 
ENDBRANCH 118 120
BRANCH 118 124
ATOM    124  CD2 LEU d   1      18.186  -0.463   2.026  0.00  0.00    -0.073 C 
ATOM    125  H15 LEU d   1      18.225  -1.562   1.983  0.00  0.00     0.028 H 
ATOM    126  H16 LEU d   1      17.350  -0.102   1.409  0.00  0.00     0.028 H 
ATOM    127  H17 LEU d   1      18.039  -0.142   3.068  0.00  0.00     0.028 H 
ENDBRANCH 118 124
ENDBRANCH 115 118
ENDBRANCH  97 115
ENDBRANCH  94  97
ENDBRANCH  91  93
BRANCH  91 128
ATOM    128  CB  ASP d   1      22.247   2.744  -3.229  0.00  0.00     0.043 C 
ATOM    129  H20 ASP d   1      21.927   2.121  -4.077  0.00  0.00     0.052 H 
ATOM    130  H21 ASP d   1      23.026   2.216  -2.659  0.00  0.00     0.052 H 
BRANCH 128 131
ATOM    131  CG  ASP d   1      22.807   4.069  -3.752  0.00  0.00     0.175 C 
ATOM    132  OD1 ASP d   1      23.545   4.707  -3.021  0.00  0.00    -0.648 OA
ATOM    133  OD2 ASP d   1      22.488   4.421  -4.876  0.00  0.00    -0.648 OA
ENDBRANCH 128 131
ENDBRANCH  91 128
ENDBRANCH  88  91
ENDBRANCH  85  87
BRANCH  85 134
ATOM    134  CB  ALA d   1      17.575   3.093  -5.733  0.00  0.00    -0.049 C 
ATOM    135  H24 ALA d   1      16.827   3.657  -6.309  0.00  0.00     0.030 H 
ATOM    136  H25 ALA d   1      17.095   2.223  -5.261  0.00  0.00     0.030 H 
ATOM    137  H26 ALA d   1      18.375   2.751  -6.407  0.00  0.00     0.030 H 
ENDBRANCH  85 134
ENDBRANCH  82  85
ENDBRANCH  79  81
BRANCH  79 138
ATOM    138  CB  LEU d   1      15.196   2.926  -0.960  0.00  0.00    -0.035 C 
ATOM    139  H29 LEU d   1      14.762   3.357  -0.046  0.00  0.00     0.037 H 
ATOM    140  H30 LEU d   1      16.161   2.455  -0.721  0.00  0.00     0.037 H 
BRANCH 138 141
ATOM    141  CG  LEU d   1      14.234   1.857  -1.524  0.00  0.00    -0.059 C 
ATOM    142  H31 LEU d   1      14.404   1.750  -2.606  0.00  0.00     0.038 H 
BRANCH 141 143
ATOM    143  CD1 LEU d   1      14.488   0.515  -0.830  0.00  0.00    -0.073 C 
ATOM    144  H32 LEU d   1      13.801  -0.243  -1.235  0.00  0.00     0.028 H 
ATOM    145  H33 LEU d   1      14.318   0.624   0.251  0.00  0.00     0.028 H 
ATOM    146  H34 LEU d   1      15.527   0.201  -1.008  0.00  0.00     0.028 H 
ENDBRANCH 141 143
BRANCH 141 147
ATOM    147  CD2 LEU d   1      12.779   2.276  -1.274  0.00  0.00    -0.073 C 
ATOM    148  H35 LEU d   1      12.585   3.239  -1.768  0.00  0.00     0.028 H 
ATOM    149  H36 LEU d   1      12.607   2.378  -0.192  0.00  0.00     0.028 H 
ATOM    150  H37 LEU d   1      12.102   1.511  -1.682  0.00  0.00     0.028 H 
ENDBRANCH 141 147
ENDBRANCH 138 141
ENDBRANCH  79 138
ENDBRANCH   1  79
TORSDOF 47
