REMARK  2 active torsions:
REMARK  status: ('A' for Active; 'I' for Inactive)
REMARK    1  A    between atoms: C2'_10  and  O2'_11 
REMARK    2  A    between atoms: C1'_12  and  N9_13 
ROOT
ATOM      1  P   35G d   1       8.485   1.869   3.157  0.00  0.00     0.408 P 
ATOM      2  O1P 35G d   1       9.477   0.934   3.796  0.00  0.00    -0.624 OA
ATOM      3  O2P 35G d   1       7.941   1.618   1.769  0.00  0.00    -0.624 OA
ATOM      4  O5' 35G d   1       8.981   3.470   3.184  0.00  0.00    -0.287 OA
ATOM      5  C5' 35G d   1       7.989   4.457   2.677  0.00  0.00     0.058 C 
ATOM      6  C4' 35G d   1       6.694   4.396   3.576  0.00  0.00     0.090 C 
ATOM      7  O4' 35G d   1       5.622   5.188   3.324  0.00  0.00    -0.353 OA
ATOM      8  C3' 35G d   1       6.129   3.021   3.641  0.00  0.00     0.106 C 
ATOM      9  O3' 35G d   1       7.183   2.078   4.146  0.00  0.00    -0.279 OA
ATOM     10  C2' 35G d   1       4.934   3.276   4.521  0.00  0.00     0.106 C 
ATOM     11  C1' 35G d   1       4.660   4.778   4.298  0.00  0.00     0.139 C 
ATOM     12  H1  35G d   1       7.727   4.215   1.637  0.00  0.00     0.079 H 
ATOM     13  H2  35G d   1       8.420   5.468   2.720  0.00  0.00     0.079 H 
ATOM     14  H3  35G d   1       7.042   4.668   4.583  0.00  0.00     0.090 H 
ATOM     15  H4  35G d   1       5.798   2.668   2.653  0.00  0.00     0.092 H 
ATOM     16  H5  35G d   1       4.073   2.701   4.151  0.00  0.00     0.093 H 
ATOM     17  H7  35G d   1       4.802   5.322   5.244  0.00  0.00     0.122 H 
ENDROOT
BRANCH  11  18
ATOM     18  N9  35G d   1       3.316   5.087   3.762  0.00  0.00    -0.295 N 
ATOM     19  C8  35G d   1       2.784   4.916   2.493  0.00  0.00     0.071 A 
ATOM     20  N7  35G d   1       1.485   5.354   2.475  0.00  0.00    -0.234 NA
ATOM     21  H8  35G d   1       3.317   4.497   1.641  0.00  0.00     0.144 H 
ATOM     22  C5  35G d   1       1.196   5.798   3.724  0.00  0.00     0.171 A 
ATOM     23  C6  35G d   1       0.030   6.422   4.542  0.00  0.00     0.292 A 
ATOM     24  C4  35G d   1       2.408   5.614   4.553  0.00  0.00     0.161 A 
ATOM     25  O6  35G d   1      -1.078   6.649   3.990  0.00  0.00    -0.265 OA
ATOM     26  N1  35G d   1       0.184   6.786   6.053  0.00  0.00    -0.154 N 
ATOM     27  C2  35G d   1       1.428   6.580   6.845  0.00  0.00     0.680 A 
ATOM     28  H9  35G d   1      -0.606   7.184   6.520  0.00  0.00     0.187 HD
ATOM     29  N2  35G d   1       1.565   6.894   8.157  0.00  0.00    -0.234 N 
ATOM     30  N3  35G d   1       2.514   5.985   6.031  0.00  0.00    -0.174 N 
ATOM     31  H10 35G d   1       2.460   6.721   8.637  0.00  0.00     0.174 HD
ATOM     32  H11 35G d   1       0.774   7.305   8.673  0.00  0.00     0.174 HD
ATOM     33  H12 35G d   1       3.414   5.807   6.500  0.00  0.00     0.186 HD
ENDBRANCH  11  18
BRANCH  10  34
ATOM     34  O2' 35G d   1       5.163   2.861   5.886  0.00  0.00    -0.388 OA
ATOM     35  H6  35G d   1       5.901   3.342   6.242  0.00  0.00     0.210 HD
ENDBRANCH  10  34
TORSDOF 2
