REMARK WARNING: 32 MAX_TORS EXCEEDED!!!
REMARK  47 active torsions:
REMARK  status: ('A' for Active; 'I' for Inactive)
REMARK    1  A    between atoms: CA_2  and  N_1 
REMARK    2  A    between atoms: CA_2  and  CB_5 
REMARK    3  A    between atoms: C_3  and  CA_2 
REMARK       I    between atoms: N_20  and  C_3 
REMARK    4  A    between atoms: CB_5  and  CG2_7 
REMARK    5  A    between atoms: CB_5  and  CG1_6 
REMARK    6  A    between atoms: CG1_6  and  CD1_8 
REMARK    7  A    between atoms: CA_21  and  N_20 
REMARK    8  A    between atoms: CA_21  and  CB_24 
REMARK    9  A    between atoms: C_22  and  CA_21 
REMARK       I    between atoms: N_35  and  C_22 
REMARK   10  A    between atoms: CB_24  and  CG_25 
REMARK   11  A    between atoms: CG_25  and  CD_26 
REMARK   12  A    between atoms: CA_36  and  N_35 
REMARK   13  A    between atoms: CA_36  and  CB_39 
REMARK   14  A    between atoms: C_37  and  CA_36 
REMARK       I    between atoms: N_54  and  C_37 
REMARK   15  A    between atoms: CB_39  and  CG_40 
REMARK   16  A    between atoms: CG_40  and  CD1_41 
REMARK   17  A    between atoms: CG_40  and  CD2_42 
REMARK   18  A    between atoms: C_56  and  CA_55 
REMARK       I    between atoms: N_68  and  C_56 
REMARK   19  A    between atoms: CA_69  and  N_68 
REMARK   20  A    between atoms: CA_69  and  CB_72 
REMARK   21  A    between atoms: C_70  and  CA_69 
REMARK       I    between atoms: N_83  and  C_70 
REMARK   22  A    between atoms: CB_72  and  CG_73 
REMARK   23  A    between atoms: CG_73  and  CD_74 
REMARK   24  A    between atoms: CA_84  and  N_83 
REMARK   25  A    between atoms: CA_84  and  CB_87 
REMARK   26  A    between atoms: C_85  and  CA_84 
REMARK       I    between atoms: N_99  and  C_85 
REMARK   27  A    between atoms: CB_87  and  CG2_89 
REMARK   28  A    between atoms: CB_87  and  CG1_88 
REMARK   29  A    between atoms: C_101  and  CA_100 
REMARK       I    between atoms: N_113  and  C_101 
REMARK   30  A    between atoms: CA_114  and  N_113 
REMARK   31  A    between atoms: CA_114  and  CB_117 
REMARK   32  A    between atoms: C_115  and  CA_114 
REMARK       I    between atoms: N_124  and  C_115 
REMARK   33  A    between atoms: CB_117  and  OG_118 
REMARK   34  A    between atoms: CA_125  and  N_124 
REMARK   35  A    between atoms: CA_125  and  CB_128 
REMARK   36  A    between atoms: C_126  and  CA_125 
REMARK       I    between atoms: N_139  and  C_126 
REMARK   37  A    between atoms: CB_128  and  CG_129 
REMARK   38  A    between atoms: CG_129  and  CD_130 
REMARK   39  A    between atoms: C_141  and  CA_140 
REMARK       I    between atoms: N_153  and  C_141 
REMARK   40  A    between atoms: CA_154  and  N_153 
REMARK   41  A    between atoms: CA_154  and  CB_157 
REMARK   42  A    between atoms: C_155  and  CA_154 
REMARK       I    between atoms: C_155  and  N_172 
REMARK   43  A    between atoms: CB_157  and  CG_158 
REMARK   44  A    between atoms: CG_158  and  CD1_159 
REMARK   45  A    between atoms: CG_158  and  CD2_160 
REMARK   46  A    between atoms: CA_173  and  C_174 
REMARK   47  A    between atoms: C_174  and  O1_186 
ROOT
ATOM      1  CA  VAL d   1      -0.621   3.916  -6.572  0.00  0.00     0.092 C 
ATOM      2  H45 VAL d   1      -0.548   2.819  -6.547  0.00  0.00     0.088 H 
ENDROOT
BRANCH   1   3
ATOM      3  N   VAL d   1       0.702   4.463  -6.820  0.00  0.00    -0.346 N 
ATOM      4  H44 VAL d   1       1.166   4.978  -6.099  0.00  0.00     0.163 HD
ATOM      5  C   GLU d   1       1.301   4.288  -7.989  0.00  0.00     0.241 C 
ATOM      6  O   GLU d   1       0.789   3.670  -8.922  0.00  0.00    -0.271 OA
BRANCH   5   7
ATOM      7  CA  GLU d   1       2.692   4.892  -8.118  0.00  0.00     0.090 C 
ATOM      8  H39 GLU d   1       3.007   5.279  -7.138  0.00  0.00     0.087 H 
BRANCH   7   9
ATOM      9  N   GLU d   1       3.649   3.874  -8.556  0.00  0.00    -0.346 N 
ATOM     10  H38 GLU d   1       3.545   3.464  -9.462  0.00  0.00     0.163 HD
ATOM     11  C   PRO d   1       4.656   3.481  -7.774  0.00  0.00     0.241 C 
ATOM     12  O   PRO d   1       4.851   3.938  -6.649  0.00  0.00    -0.271 OA
BRANCH  11  13
ATOM     13  CA  PRO d   1       5.571   2.406  -8.352  0.00  0.00     0.091 C 
ATOM     14  CB  PRO d   1       4.918   1.017  -8.260  0.00  0.00    -0.036 C 
ATOM     15  CG  PRO d   1       5.489   0.407  -7.027  0.00  0.00    -0.048 C 
ATOM     16  H32 PRO d   1       5.169   0.412  -9.143  0.00  0.00     0.036 H 
ATOM     17  H33 PRO d   1       3.825   1.108  -8.177  0.00  0.00     0.036 H 
ATOM     18  CD  PRO d   1       6.908   0.937  -6.923  0.00  0.00    -0.001 C 
ATOM     19  H34 PRO d   1       4.903   0.705  -6.145  0.00  0.00     0.035 H 
ATOM     20  H35 PRO d   1       5.495  -0.690  -7.109  0.00  0.00     0.035 H 
ATOM     21  N   PRO d   1       6.833   2.263  -7.561  0.00  0.00    -0.337 N 
ATOM     22  H36 PRO d   1       7.218   1.025  -5.871  0.00  0.00     0.064 H 
ATOM     23  H37 PRO d   1       7.611   0.283  -7.459  0.00  0.00     0.064 H 
ATOM     24  C   LEU d   1       7.906   2.966  -7.823  0.00  0.00     0.243 C 
ATOM     25  O   LEU d   1       7.941   3.786  -8.739  0.00  0.00    -0.271 OA
ATOM     26  H31 PRO d   1       5.801   2.656  -9.398  0.00  0.00     0.087 H 
BRANCH  24  27
ATOM     27  CA  LEU d   1       9.128   2.742  -6.932  0.00  0.00     0.090 C 
ATOM     28  H21 LEU d   1       9.238   1.664  -6.741  0.00  0.00     0.087 H 
BRANCH  27  29
ATOM     29  N   LEU d   1      10.342   3.229  -7.577  0.00  0.00    -0.346 N 
ATOM     30  H20 LEU d   1      10.521   4.212  -7.610  0.00  0.00     0.163 HD
ATOM     31  C   GLU d   1      11.216   2.386  -8.123  0.00  0.00     0.241 C 
ATOM     32  O   GLU d   1      11.058   1.163  -8.123  0.00  0.00    -0.271 OA
BRANCH  31  33
ATOM     33  CA  GLU d   1      12.445   3.008  -8.754  0.00  0.00     0.090 C 
ATOM     34  H15 GLU d   1      12.311   4.099  -8.800  0.00  0.00     0.087 H 
BRANCH  33  35
ATOM     35  N   GLU d   1      13.632   2.711  -7.952  0.00  0.00    -0.346 N 
ATOM     36  H14 GLU d   1      13.846   1.760  -7.727  0.00  0.00     0.163 HD
ATOM     37  C   ILE d   1      14.433   3.680  -7.516  0.00  0.00     0.249 C 
ATOM     38  O   ILE d   1      14.235   4.874  -7.749  0.00  0.00    -0.271 OA
BRANCH  37  39
ATOM     39  CA  ILE d   1      15.623   3.237  -6.689  0.00  0.00     0.179 C 
ATOM     40  H4  ILE d   1      15.559   2.152  -6.520  0.00  0.00     0.099 H 
BRANCH  39  41
ATOM     41  N   ILE d   1      16.872   3.537  -7.396  0.00  0.00    -0.066 N 
ATOM     42  H1  ILE d   1      17.655   3.238  -6.836  0.00  0.00     0.275 HD
ATOM     43  H2  ILE d   1      16.936   4.530  -7.559  0.00  0.00     0.275 HD
ATOM     44  H3  ILE d   1      16.884   3.050  -8.278  0.00  0.00     0.275 HD
ENDBRANCH  39  41
BRANCH  39  45
ATOM     45  CB  ILE d   1      15.600   3.958  -5.339  0.00  0.00    -0.022 C 
ATOM     46  H5  ILE d   1      15.749   5.037  -5.494  0.00  0.00     0.043 H 
BRANCH  45  47
ATOM     47  CG2 ILE d   1      14.257   3.722  -4.639  0.00  0.00    -0.070 C 
ATOM     48  H8  ILE d   1      13.444   4.122  -5.262  0.00  0.00     0.028 H 
ATOM     49  H9  ILE d   1      14.257   4.232  -3.664  0.00  0.00     0.028 H 
ATOM     50  H10 ILE d   1      14.107   2.643  -4.489  0.00  0.00     0.028 H 
ENDBRANCH  45  47
BRANCH  45  51
ATOM     51  CG1 ILE d   1      16.716   3.403  -4.473  0.00  0.00    -0.063 C 
ATOM     52  H6  ILE d   1      17.659   3.418  -5.039  0.00  0.00     0.033 H 
ATOM     53  H7  ILE d   1      16.476   2.368  -4.187  0.00  0.00     0.033 H 
BRANCH  51  54
ATOM     54  CD1 ILE d   1      16.865   4.249  -3.224  0.00  0.00    -0.076 C 
ATOM     55  H11 ILE d   1      17.675   3.842  -2.600  0.00  0.00     0.027 H 
ATOM     56  H12 ILE d   1      15.923   4.234  -2.657  0.00  0.00     0.027 H 
ATOM     57  H13 ILE d   1      17.106   5.284  -3.509  0.00  0.00     0.027 H 
ENDBRANCH  51  54
ENDBRANCH  45  51
ENDBRANCH  39  45
ENDBRANCH  37  39
ENDBRANCH  33  35
BRANCH  33  58
ATOM     58  CB  GLU d   1      12.615   2.468 -10.170  0.00  0.00    -0.029 C 
ATOM     59  H16 GLU d   1      11.665   2.565 -10.716  0.00  0.00     0.037 H 
ATOM     60  H17 GLU d   1      12.906   1.408 -10.126  0.00  0.00     0.037 H 
BRANCH  58  61
ATOM     61  CG  GLU d   1      13.701   3.266 -10.890  0.00  0.00     0.018 C 
ATOM     62  H18 GLU d   1      14.636   3.212 -10.313  0.00  0.00     0.049 H 
ATOM     63  H19 GLU d   1      13.384   4.316 -10.978  0.00  0.00     0.049 H 
BRANCH  61  64
ATOM     64  CD  GLU d   1      13.933   2.692 -12.280  0.00  0.00     0.172 C 
ATOM     65  OE2 GLU d   1      14.798   3.201 -12.980  0.00  0.00    -0.648 OA
ATOM     66  OE1 GLU d   1      13.241   1.751 -12.640  0.00  0.00    -0.648 OA
ENDBRANCH  61  64
ENDBRANCH  58  61
ENDBRANCH  33  58
ENDBRANCH  31  33
ENDBRANCH  27  29
BRANCH  27  67
ATOM     67  CB  LEU d   1       8.914   3.467  -5.602  0.00  0.00    -0.035 C 
ATOM     68  H22 LEU d   1       8.038   3.042  -5.091  0.00  0.00     0.037 H 
ATOM     69  H23 LEU d   1       8.744   4.537  -5.792  0.00  0.00     0.037 H 
BRANCH  67  70
ATOM     70  CG  LEU d   1      10.164   3.296  -4.707  0.00  0.00    -0.059 C 
ATOM     71  H24 LEU d   1      11.057   3.242  -5.346  0.00  0.00     0.038 H 
BRANCH  70  72
ATOM     72  CD1 LEU d   1      10.304   4.482  -3.751  0.00  0.00    -0.073 C 
ATOM     73  H25 LEU d   1      11.197   4.344  -3.123  0.00  0.00     0.028 H 
ATOM     74  H26 LEU d   1       9.412   4.544  -3.111  0.00  0.00     0.028 H 
ATOM     75  H27 LEU d   1      10.404   5.411  -4.331  0.00  0.00     0.028 H 
ENDBRANCH  70  72
BRANCH  70  76
ATOM     76  CD2 LEU d   1      10.046   1.997  -3.889  0.00  0.00    -0.073 C 
ATOM     77  H28 LEU d   1       9.945   1.141  -4.573  0.00  0.00     0.028 H 
ATOM     78  H29 LEU d   1       9.161   2.053  -3.238  0.00  0.00     0.028 H 
ATOM     79  H30 LEU d   1      10.948   1.869  -3.272  0.00  0.00     0.028 H 
ENDBRANCH  70  76
ENDBRANCH  67  70
ENDBRANCH  27  67
ENDBRANCH  24  27
ENDBRANCH  11  13
ENDBRANCH   7   9
BRANCH   7  80
ATOM     80  CB  GLU d   1       2.658   6.043  -9.121  0.00  0.00    -0.029 C 
ATOM     81  H40 GLU d   1       2.263   5.682 -10.082  0.00  0.00     0.037 H 
ATOM     82  H41 GLU d   1       3.676   6.434  -9.266  0.00  0.00     0.037 H 
BRANCH  80  83
ATOM     83  CG  GLU d   1       1.755   7.155  -8.583  0.00  0.00     0.018 C 
ATOM     84  H42 GLU d   1       2.118   7.474  -7.595  0.00  0.00     0.049 H 
ATOM     85  H43 GLU d   1       0.726   6.777  -8.491  0.00  0.00     0.049 H 
BRANCH  83  86
ATOM     86  CD  GLU d   1       1.773   8.344  -9.536  0.00  0.00     0.172 C 
ATOM     87  OE2 GLU d   1       0.905   9.192  -9.409  0.00  0.00    -0.648 OA
ATOM     88  OE1 GLU d   1       2.655   8.391 -10.370  0.00  0.00    -0.648 OA
ENDBRANCH  83  86
ENDBRANCH  80  83
ENDBRANCH   7  80
ENDBRANCH   5   7
ENDBRANCH   1   3
BRANCH   1  89
ATOM     89  CB  VAL d   1      -1.154   4.411  -5.208  0.00  0.00    -0.033 C 
ATOM     90  H46 VAL d   1      -2.251   4.479  -5.249  0.00  0.00     0.042 H 
BRANCH  89  91
ATOM     91  CG2 VAL d   1      -0.565   5.790  -4.912  0.00  0.00    -0.071 C 
ATOM     92  H50 VAL d   1      -0.852   6.490  -5.710  0.00  0.00     0.028 H 
ATOM     93  H51 VAL d   1       0.532   5.718  -4.864  0.00  0.00     0.028 H 
ATOM     94  H52 VAL d   1      -0.951   6.154  -3.948  0.00  0.00     0.028 H 
ENDBRANCH  89  91
BRANCH  89  95
ATOM     95  CG1 VAL d   1      -0.745   3.441  -4.084  0.00  0.00    -0.071 C 
ATOM     96  H47 VAL d   1      -1.133   3.809  -3.123  0.00  0.00     0.028 H 
ATOM     97  H48 VAL d   1       0.352   3.377  -4.036  0.00  0.00     0.028 H 
ATOM     98  H49 VAL d   1      -1.162   2.444  -4.290  0.00  0.00     0.028 H 
ENDBRANCH  89  95
ENDBRANCH   1  89
BRANCH   1  99
ATOM     99  C   VAL d   1      -1.594   4.319  -7.687  0.00  0.00     0.243 C 
ATOM    100  O   VAL d   1      -1.536   5.440  -8.194  0.00  0.00    -0.271 OA
ATOM    101  N   PRO d   1      -2.489   3.435  -8.057  0.00  0.00    -0.337 N 
ATOM    102  CA  PRO d   1      -3.495   3.722  -9.121  0.00  0.00     0.091 C 
ATOM    103  CD  PRO d   1      -2.630   2.059  -7.542  0.00  0.00    -0.001 C 
ATOM    104  CB  PRO d   1      -4.034   2.332  -9.487  0.00  0.00    -0.036 C 
ATOM    105  H53 PRO d   1      -3.014   4.193  -9.991  0.00  0.00     0.087 H 
ATOM    106  CG  PRO d   1      -3.855   1.500  -8.259  0.00  0.00    -0.048 C 
ATOM    107  H54 PRO d   1      -3.464   1.907 -10.326  0.00  0.00     0.036 H 
ATOM    108  H55 PRO d   1      -5.098   2.392  -9.760  0.00  0.00     0.036 H 
ATOM    109  H56 PRO d   1      -4.743   1.576  -7.614  0.00  0.00     0.035 H 
ATOM    110  H57 PRO d   1      -3.690   0.447  -8.532  0.00  0.00     0.035 H 
ATOM    111  H58 PRO d   1      -2.788   2.067  -6.453  0.00  0.00     0.064 H 
ATOM    112  H59 PRO d   1      -1.736   1.463  -7.779  0.00  0.00     0.064 H 
BRANCH 102 113
ATOM    113  C   PRO d   1      -4.610   4.633  -8.616  0.00  0.00     0.241 C 
ATOM    114  O   PRO d   1      -5.321   4.294  -7.669  0.00  0.00    -0.271 OA
ATOM    115  N   SER d   1      -4.764   5.790  -9.256  0.00  0.00    -0.344 N 
ATOM    116  H60 SER d   1      -4.160   6.015 -10.020  0.00  0.00     0.163 HD
BRANCH 115 117
ATOM    117  CA  SER d   1      -5.800   6.731  -8.858  0.00  0.00     0.109 C 
ATOM    118  H61 SER d   1      -5.884   6.734  -7.761  0.00  0.00     0.090 H 
BRANCH 117 119
ATOM    119  CB  SER d   1      -5.433   8.134  -9.342  0.00  0.00     0.044 C 
ATOM    120  H62 SER d   1      -5.234   8.109 -10.423  0.00  0.00     0.077 H 
ATOM    121  H63 SER d   1      -4.535   8.482  -8.811  0.00  0.00     0.077 H 
BRANCH 119 122
ATOM    122  OG  SER d   1      -6.514   9.022  -9.079  0.00  0.00    -0.398 OA
ATOM    123  H64 SER d   1      -7.289   8.720  -9.538  0.00  0.00     0.209 HD
ENDBRANCH 119 122
ENDBRANCH 117 119
BRANCH 117 124
ATOM    124  C   SER d   1      -7.134   6.324  -9.461  0.00  0.00     0.243 C 
ATOM    125  O   SER d   1      -7.532   6.825 -10.510  0.00  0.00    -0.271 OA
ATOM    126  N   GLU d   1      -7.827   5.412  -8.784  0.00  0.00    -0.346 N 
ATOM    127  H65 GLU d   1      -7.453   5.040  -7.934  0.00  0.00     0.163 HD
BRANCH 126 128
ATOM    128  CA  GLU d   1      -9.123   4.946  -9.261  0.00  0.00     0.090 C 
ATOM    129  H66 GLU d   1      -9.123   4.968 -10.361  0.00  0.00     0.087 H 
BRANCH 128 130
ATOM    130  CB  GLU d   1      -9.371   3.509  -8.795  0.00  0.00    -0.029 C 
ATOM    131  H67 GLU d   1     -10.444   3.279  -8.873  0.00  0.00     0.037 H 
ATOM    132  H68 GLU d   1      -9.048   3.402  -7.749  0.00  0.00     0.037 H 
BRANCH 130 133
ATOM    133  CG  GLU d   1      -8.577   2.542  -9.675  0.00  0.00     0.018 C 
ATOM    134  H69 GLU d   1      -7.520   2.847  -9.690  0.00  0.00     0.049 H 
ATOM    135  H70 GLU d   1      -8.980   2.566 -10.698  0.00  0.00     0.049 H 
BRANCH 133 136
ATOM    136  CD  GLU d   1      -8.686   1.126  -9.123  0.00  0.00     0.172 C 
ATOM    137  OE2 GLU d   1      -7.819   0.742  -8.357  0.00  0.00    -0.648 OA
ATOM    138  OE1 GLU d   1      -9.637   0.447  -9.474  0.00  0.00    -0.648 OA
ENDBRANCH 133 136
ENDBRANCH 130 133
ENDBRANCH 128 130
BRANCH 128 139
ATOM    139  C   GLU d   1     -10.240   5.856  -8.749  0.00  0.00     0.243 C 
ATOM    140  O   GLU d   1     -10.040   6.649  -7.830  0.00  0.00    -0.271 OA
ATOM    141  N   PRO d   1     -11.430   5.740  -9.312  0.00  0.00    -0.337 N 
ATOM    142  CA  PRO d   1     -12.610   6.559  -8.885  0.00  0.00     0.091 C 
ATOM    143  CD  PRO d   1     -11.570   5.294 -10.710  0.00  0.00    -0.001 C 
ATOM    144  CB  PRO d   1     -13.410   6.741 -10.180  0.00  0.00    -0.036 C 
ATOM    145  H71 PRO d   1     -12.280   7.533  -8.494  0.00  0.00     0.087 H 
ATOM    146  CG  PRO d   1     -13.020   5.580 -11.040  0.00  0.00    -0.048 C 
ATOM    147  H72 PRO d   1     -13.145   7.690 -10.668  0.00  0.00     0.036 H 
ATOM    148  H73 PRO d   1     -14.490   6.724  -9.973  0.00  0.00     0.036 H 
ATOM    149  H74 PRO d   1     -13.646   4.705 -10.810  0.00  0.00     0.035 H 
ATOM    150  H75 PRO d   1     -13.127   5.838 -12.104  0.00  0.00     0.035 H 
ATOM    151  H76 PRO d   1     -11.352   4.220 -10.802  0.00  0.00     0.064 H 
ATOM    152  H77 PRO d   1     -10.899   5.862 -11.371  0.00  0.00     0.064 H 
BRANCH 142 153
ATOM    153  C   PRO d   1     -13.440   5.850  -7.815  0.00  0.00     0.241 C 
ATOM    154  O   PRO d   1     -14.660   5.732  -7.926  0.00  0.00    -0.271 OA
ATOM    155  N   LEU d   1     -12.770   5.364  -6.786  0.00  0.00    -0.346 N 
ATOM    156  H78 LEU d   1     -11.779   5.490  -6.746  0.00  0.00     0.163 HD
BRANCH 155 157
ATOM    157  CA  LEU d   1     -13.440   4.648  -5.707  0.00  0.00     0.090 C 
ATOM    158  H79 LEU d   1     -14.325   4.142  -6.120  0.00  0.00     0.087 H 
BRANCH 157 159
ATOM    159  CB  LEU d   1     -12.500   3.573  -5.097  0.00  0.00    -0.035 C 
ATOM    160  H80 LEU d   1     -12.883   2.572  -5.345  0.00  0.00     0.037 H 
ATOM    161  H81 LEU d   1     -12.470   3.694  -4.004  0.00  0.00     0.037 H 
BRANCH 159 162
ATOM    162  CG  LEU d   1     -11.090   3.729  -5.662  0.00  0.00    -0.059 C 
ATOM    163  H82 LEU d   1     -11.139   3.807  -6.758  0.00  0.00     0.038 H 
BRANCH 162 164
ATOM    164  CD1 LEU d   1     -10.450   5.001  -5.088  0.00  0.00    -0.073 C 
ATOM    165  H83 LEU d   1      -9.434   5.115  -5.494  0.00  0.00     0.028 H 
ATOM    166  H84 LEU d   1     -10.400   4.924  -3.992  0.00  0.00     0.028 H 
ATOM    167  H85 LEU d   1     -11.057   5.875  -5.367  0.00  0.00     0.028 H 
ENDBRANCH 162 164
BRANCH 162 168
ATOM    168  CD2 LEU d   1     -10.260   2.510  -5.277  0.00  0.00    -0.073 C 
ATOM    169  H86 LEU d   1     -10.725   1.604  -5.692  0.00  0.00     0.028 H 
ATOM    170  H87 LEU d   1     -10.214   2.429  -4.181  0.00  0.00     0.028 H 
ATOM    171  H88 LEU d   1      -9.242   2.617  -5.680  0.00  0.00     0.028 H 
ENDBRANCH 162 168
ENDBRANCH 159 162
ENDBRANCH 157 159
BRANCH 157 172
ATOM    172  C   LEU d   1     -13.900   5.631  -4.629  0.00  0.00     0.243 C 
ATOM    173  O   LEU d   1     -13.330   6.716  -4.495  0.00  0.00    -0.271 OA
ATOM    174  N   PRO d   1     -14.890   5.259  -3.862  0.00  0.00    -0.336 N 
ATOM    175  CA  PRO d   1     -15.420   6.126  -2.770  0.00  0.00     0.095 C 
ATOM    176  CD  PRO d   1     -15.430   3.889  -3.788  0.00  0.00    -0.001 C 
ATOM    177  CB  PRO d   1     -16.010   5.121  -1.770  0.00  0.00    -0.035 C 
ATOM    178  H89 PRO d   1     -16.202   6.796  -3.157  0.00  0.00     0.089 H 
ATOM    179  CG  PRO d   1     -16.370   3.911  -2.578  0.00  0.00    -0.048 C 
ATOM    180  H90 PRO d   1     -16.905   5.540  -1.287  0.00  0.00     0.036 H 
ATOM    181  H91 PRO d   1     -15.266   4.862  -1.002  0.00  0.00     0.036 H 
ATOM    182  H92 PRO d   1     -16.234   3.000  -1.976  0.00  0.00     0.035 H 
ATOM    183  H93 PRO d   1     -17.416   3.977  -2.912  0.00  0.00     0.035 H 
ATOM    184  H94 PRO d   1     -14.620   3.160  -3.638  0.00  0.00     0.064 H 
ATOM    185  H95 PRO d   1     -15.983   3.639  -4.705  0.00  0.00     0.064 H 
BRANCH 175 186
ATOM    186  C   PRO d   1     -14.330   6.962  -2.115  0.00  0.00     0.163 C 
ATOM    187  O   PRO d   1     -13.250   6.459  -1.815  0.00  0.00    -0.648 OA
BRANCH 186 188
ATOM    188  O1  PRO d   1     -14.549   8.250  -1.865  0.00  0.00    -0.775 OA
ATOM    189  H96 PRO d   1     -15.423   8.483  -2.153  0.00  0.00     0.167 HD
ENDBRANCH 186 188
ENDBRANCH 175 186
ENDBRANCH 157 172
ENDBRANCH 155 157
ENDBRANCH 142 153
ENDBRANCH 128 139
ENDBRANCH 126 128
ENDBRANCH 117 124
ENDBRANCH 115 117
ENDBRANCH 102 113
ENDBRANCH   1  99
TORSDOF 47
