REMARK  12 active torsions:
REMARK  status: ('A' for Active; 'I' for Inactive)
REMARK    1  A    between atoms: C2_4  and  O2_1 
REMARK    2  A    between atoms: OA_3  and  C1_2 
REMARK    3  A    between atoms: C13_17  and  OA_3 
REMARK    4  A    between atoms: C3_5  and  O3_6 
REMARK    5  A    between atoms: C4_7  and  O4_8 
REMARK    6  A    between atoms: C5_9  and  C6_11 
REMARK    7  A    between atoms: C6_11  and  O6_12 
REMARK    8  A    between atoms: C11_13  and  O11_14 
REMARK    9  A    between atoms: C12_15  and  O12_16 
REMARK   10  A    between atoms: C14_18  and  O14_19 
REMARK   11  A    between atoms: C15_20  and  C16_22 
REMARK   12  A    between atoms: C16_22  and  O16_23 
ROOT
ATOM      1  OA  NGR d   1     -18.761  -5.586  -3.675  0.00  0.00    -0.348 OA
ENDROOT
BRANCH   1   2
ATOM      2  C1  NGR d   1     -18.050  -6.219  -4.756  0.00  0.00     0.159 C 
ATOM      3  C2  NGR d   1     -16.494  -6.075  -4.557  0.00  0.00     0.110 C 
ATOM      4  C3  NGR d   1     -16.025  -4.585  -4.833  0.00  0.00     0.092 C 
ATOM      5  H3  NGR d   1     -15.987  -6.738  -5.274  0.00  0.00     0.094 H 
ATOM      6  C4  NGR d   1     -16.512  -4.056  -6.236  0.00  0.00     0.090 C 
ATOM      7  H4  NGR d   1     -16.439  -3.935  -4.048  0.00  0.00     0.091 H 
ATOM      8  C5  NGR d   1     -18.075  -4.239  -6.383  0.00  0.00     0.089 C 
ATOM      9  H6  NGR d   1     -16.009  -4.628  -7.030  0.00  0.00     0.091 H 
ATOM     10  O5  NGR d   1     -18.447  -5.660  -6.081  0.00  0.00    -0.348 OA
ATOM     11  H8  NGR d   1     -18.569  -3.569  -5.664  0.00  0.00     0.090 H 
ATOM     12  H2  NGR d   1     -18.302  -7.290  -4.747  0.00  0.00     0.133 H 
BRANCH   3  13
ATOM     13  O2  NGR d   1     -16.136  -6.472  -3.240  0.00  0.00    -0.388 OA
ATOM     14  H1  NGR d   1     -16.585  -5.920  -2.611  0.00  0.00     0.210 HD
ENDBRANCH   3  13
BRANCH   4  15
ATOM     15  O3  NGR d   1     -14.604  -4.531  -4.788  0.00  0.00    -0.390 OA
ATOM     16  H5  NGR d   1     -14.317  -3.641  -4.953  0.00  0.00     0.210 HD
ENDBRANCH   4  15
BRANCH   6  17
ATOM     17  O4  NGR d   1     -16.171  -2.679  -6.364  0.00  0.00    -0.390 OA
ATOM     18  H7  NGR d   1     -15.229  -2.580  -6.296  0.00  0.00     0.210 HD
ENDBRANCH   6  17
BRANCH   8  19
ATOM     19  C6  NGR d   1     -18.600  -3.922  -7.792  0.00  0.00     0.043 C 
ATOM     20  H9  NGR d   1     -18.041  -3.046  -8.152  0.00  0.00     0.078 H 
ATOM     21  H10 NGR d   1     -19.663  -3.660  -7.686  0.00  0.00     0.078 H 
BRANCH  19  22
ATOM     22  O6  NGR d   1     -18.518  -4.910  -8.808  0.00  0.00    -0.398 OA
ATOM     23  H11 NGR d   1     -19.010  -5.678  -8.542  0.00  0.00     0.209 HD
ENDBRANCH  19  22
ENDBRANCH   8  19
ENDBRANCH   1   2
BRANCH   1  24
ATOM     24  C13 NGR d   1     -20.068  -6.121  -3.300  0.00  0.00     0.098 C 
ATOM     25  C12 NGR d   1     -21.076  -4.902  -3.126  0.00  0.00     0.110 C 
ATOM     26  C11 NGR d   1     -22.451  -5.418  -2.560  0.00  0.00     0.156 C 
ATOM     27  H14 NGR d   1     -20.645  -4.232  -2.368  0.00  0.00     0.094 H 
ATOM     28  O15 NGR d   1     -22.294  -6.293  -1.367  0.00  0.00    -0.349 OA
ATOM     29  H12 NGR d   1     -22.996  -4.537  -2.191  0.00  0.00     0.133 H 
ATOM     30  C15 NGR d   1     -21.369  -7.449  -1.528  0.00  0.00     0.089 C 
ATOM     31  C14 NGR d   1     -19.931  -6.987  -1.981  0.00  0.00     0.090 C 
ATOM     32  H19 NGR d   1     -21.782  -8.079  -2.329  0.00  0.00     0.090 H 
ATOM     33  H17 NGR d   1     -19.494  -6.364  -1.187  0.00  0.00     0.091 H 
ATOM     34  H16 NGR d   1     -20.438  -6.772  -4.106  0.00  0.00     0.091 H 
BRANCH  25  35
ATOM     35  O12 NGR d   1     -21.224  -4.129  -4.312  0.00  0.00    -0.388 OA
ATOM     36  H15 NGR d   1     -21.635  -4.659  -4.985  0.00  0.00     0.210 HD
ENDBRANCH  25  35
BRANCH  26  37
ATOM     37  O11 NGR d   1     -23.203  -5.904  -3.662  0.00  0.00    -0.369 OA
ATOM     38  H13 NGR d   1     -23.220  -5.246  -4.347  0.00  0.00     0.212 HD
ENDBRANCH  26  37
BRANCH  30  39
ATOM     39  C16 NGR d   1     -21.264  -8.323  -0.272  0.00  0.00     0.043 C 
ATOM     40  H20 NGR d   1     -20.924  -9.325  -0.574  0.00  0.00     0.078 H 
ATOM     41  H21 NGR d   1     -22.262  -8.396   0.184  0.00  0.00     0.078 H 
BRANCH  39  42
ATOM     42  O16 NGR d   1     -20.358  -7.816   0.706  0.00  0.00    -0.398 OA
ATOM     43  H22 NGR d   1     -19.488  -7.756   0.329  0.00  0.00     0.209 HD
ENDBRANCH  39  42
ENDBRANCH  30  39
BRANCH  31  44
ATOM     44  O14 NGR d   1     -19.068  -8.098  -2.207  0.00  0.00    -0.390 OA
ATOM     45  H18 NGR d   1     -18.209  -7.783  -2.463  0.00  0.00     0.210 HD
ENDBRANCH  31  44
ENDBRANCH   1  24
TORSDOF 12
