REMARK  23 active torsions:
REMARK  status: ('A' for Active; 'I' for Inactive)
REMARK    1  A    between atoms: O1_10  and  P1_1 
REMARK    2  A    between atoms: P1_1  and  OP1_37 
REMARK    3  A    between atoms: O4_16  and  P4_2 
REMARK    4  A    between atoms: O5_18  and  P5_3 
REMARK    5  A    between atoms: C3'_4  and  C2'_5 
REMARK    6  A    between atoms: OP1_37  and  C3'_4 
REMARK    7  A    between atoms: C2'_5  and  O2'_6 
REMARK    8  A    between atoms: C2'_5  and  C1'_7 
REMARK    9  A    between atoms: O2'_6  and  C7_21 
REMARK   10  A    between atoms: C1'_7  and  O1'_8 
REMARK   11  A    between atoms: O1'_8  and  C11_26 
REMARK   12  A    between atoms: C1_9  and  O1_10 
REMARK   13  A    between atoms: C2_11  and  O2_12 
REMARK   14  A    between atoms: C3_13  and  O3_14 
REMARK   15  A    between atoms: C4_15  and  O4_16 
REMARK   16  A    between atoms: C5_17  and  O5_18 
REMARK   17  A    between atoms: C6_19  and  O6_20 
REMARK   18  A    between atoms: C7_21  and  C8_23 
REMARK   19  A    between atoms: C8_23  and  C9_24 
REMARK   20  A    between atoms: C9_24  and  C10_25 
REMARK   21  A    between atoms: C11_26  and  C12_28 
REMARK   22  A    between atoms: C12_28  and  C13_29 
REMARK   23  A    between atoms: C13_29  and  C14_30 
ROOT
ATOM      1  C3' PBU d   1       9.681 -10.229   2.927  0.00  0.00     0.058 C 
ATOM      2  H1  PBU d   1       8.582 -10.267   2.899  0.00  0.00     0.079 H 
ATOM      3  H2  PBU d   1      10.003  -9.371   3.536  0.00  0.00     0.079 H 
ENDROOT
BRANCH   1   4
ATOM      4  C2' PBU d   1      10.215 -10.050   1.484  0.00  0.00     0.090 C 
ATOM      5  H3  PBU d   1      10.452  -8.988   1.320  0.00  0.00     0.090 H 
BRANCH   4   6
ATOM      6  O2' PBU d   1       9.205 -10.456   0.575  0.00  0.00    -0.312 OA
BRANCH   6   7
ATOM      7  C7  PBU d   1       8.101  -9.587   0.395  0.00  0.00     0.259 C 
ATOM      8  O7  PBU d   1       6.998  -9.910   0.777  0.00  0.00    -0.265 OA
BRANCH   7   9
ATOM      9  C8  PBU d   1       8.309  -8.218  -0.274  0.00  0.00     0.015 C 
ATOM     10  H15 PBU d   1       9.197  -8.261  -0.921  0.00  0.00     0.048 H 
ATOM     11  H16 PBU d   1       8.458  -7.453   0.502  0.00  0.00     0.048 H 
BRANCH   9  12
ATOM     12  C9  PBU d   1       7.079  -7.848  -1.123  0.00  0.00    -0.060 C 
ATOM     13  H17 PBU d   1       7.286  -6.927  -1.687  0.00  0.00     0.033 H 
ATOM     14  H18 PBU d   1       6.213  -7.687  -0.464  0.00  0.00     0.033 H 
BRANCH  12  15
ATOM     15  C10 PBU d   1       6.771  -8.993  -2.105  0.00  0.00    -0.076 C 
ATOM     16  H19 PBU d   1       5.892  -8.729  -2.712  0.00  0.00     0.027 H 
ATOM     17  H20 PBU d   1       6.564  -9.914  -1.541  0.00  0.00     0.027 H 
ATOM     18  H21 PBU d   1       7.637  -9.154  -2.764  0.00  0.00     0.027 H 
ENDBRANCH  12  15
ENDBRANCH   9  12
ENDBRANCH   7   9
ENDBRANCH   6   7
ENDBRANCH   4   6
BRANCH   4  19
ATOM     19  C1' PBU d   1      11.490 -10.892   1.230  0.00  0.00     0.055 C 
ATOM     20  H4  PBU d   1      11.923 -10.619   0.256  0.00  0.00     0.079 H 
ATOM     21  H5  PBU d   1      11.231 -11.961   1.229  0.00  0.00     0.079 H 
BRANCH  19  22
ATOM     22  O1' PBU d   1      12.429 -10.635   2.253  0.00  0.00    -0.319 OA
BRANCH  22  23
ATOM     23  C11 PBU d   1      13.795 -10.422   1.977  0.00  0.00     0.258 C 
ATOM     24  O11 PBU d   1      14.217  -9.634   1.152  0.00  0.00    -0.265 OA
BRANCH  23  25
ATOM     25  C12 PBU d   1      14.783 -11.322   2.770  0.00  0.00     0.015 C 
ATOM     26  H22 PBU d   1      14.485 -12.372   2.633  0.00  0.00     0.048 H 
ATOM     27  H23 PBU d   1      14.717 -11.058   3.836  0.00  0.00     0.048 H 
BRANCH  25  28
ATOM     28  C13 PBU d   1      16.245 -11.168   2.320  0.00  0.00    -0.060 C 
ATOM     29  H24 PBU d   1      16.266 -10.731   1.311  0.00  0.00     0.033 H 
ATOM     30  H25 PBU d   1      16.721 -12.159   2.300  0.00  0.00     0.033 H 
BRANCH  28  31
ATOM     31  C14 PBU d   1      17.028 -10.254   3.279  0.00  0.00    -0.076 C 
ATOM     32  H26 PBU d   1      18.068 -10.163   2.932  0.00  0.00     0.027 H 
ATOM     33  H27 PBU d   1      17.015 -10.687   4.290  0.00  0.00     0.027 H 
ATOM     34  H28 PBU d   1      16.560  -9.259   3.300  0.00  0.00     0.027 H 
ENDBRANCH  28  31
ENDBRANCH  25  28
ENDBRANCH  23  25
ENDBRANCH  22  23
ENDBRANCH  19  22
ENDBRANCH   4  19
ENDBRANCH   1   4
BRANCH   1  35
ATOM     35  OP1 PBU d   1      10.166 -11.418   3.516  0.00  0.00    -0.287 OA
BRANCH  35  36
ATOM     36  P1  PBU d   1       9.389 -12.688   3.339  0.00  0.00     0.408 P 
ATOM     37  OP2 PBU d   1       8.065 -12.714   4.107  0.00  0.00    -0.624 OA
ATOM     38  OP3 PBU d   1      10.294 -13.883   3.487  0.00  0.00    -0.624 OA
BRANCH  36  39
ATOM     39  O1  PBU d   1       8.904 -12.748   1.741  0.00  0.00    -0.279 OA
BRANCH  39  40
ATOM     40  C1  PBU d   1       7.682 -13.373   1.053  0.00  0.00     0.105 C 
ATOM     41  C2  PBU d   1       6.942 -14.481   1.877  0.00  0.00     0.090 C 
ATOM     42  C3  PBU d   1       5.761 -15.062   1.067  0.00  0.00     0.091 C 
ATOM     43  H7  PBU d   1       6.542 -14.009   2.786  0.00  0.00     0.091 H 
ATOM     44  C4  PBU d   1       6.243 -15.631  -0.323  0.00  0.00     0.106 C 
ATOM     45  H9  PBU d   1       5.034 -14.260   0.873  0.00  0.00     0.091 H 
ATOM     46  C5  PBU d   1       6.976 -14.477  -1.116  0.00  0.00     0.106 C 
ATOM     47  H11 PBU d   1       6.946 -16.460  -0.157  0.00  0.00     0.092 H 
ATOM     48  C6  PBU d   1       8.161 -13.871  -0.323  0.00  0.00     0.091 C 
ATOM     49  H12 PBU d   1       6.250 -13.678  -1.326  0.00  0.00     0.092 H 
ATOM     50  H13 PBU d   1       8.925 -14.650  -0.187  0.00  0.00     0.091 H 
ATOM     51  H6  PBU d   1       6.949 -12.570   0.888  0.00  0.00     0.092 H 
BRANCH  41  52
ATOM     52  O2  PBU d   1       7.799 -15.547   2.276  0.00  0.00    -0.390 OA
ATOM     53  H8  PBU d   1       8.499 -15.203   2.819  0.00  0.00     0.210 HD
ENDBRANCH  41  52
BRANCH  42  54
ATOM     54  O3  PBU d   1       5.132 -16.070   1.871  0.00  0.00    -0.390 OA
ATOM     55  H10 PBU d   1       5.762 -16.752   2.072  0.00  0.00     0.210 HD
ENDBRANCH  42  54
BRANCH  44  56
ATOM     56  O4  PBU d   1       5.045 -16.144  -1.102  0.00  0.00    -0.272 OA
BRANCH  56  57
ATOM     57  P4  PBU d   1       4.179 -15.464  -2.354  0.00  0.00     0.422 P 
ATOM     58  O41 PBU d   1       3.057 -16.495  -2.445  0.00  0.00    -0.617 OA
ATOM     59  O42 PBU d   1       3.747 -14.111  -1.857  0.00  0.00    -0.617 OA
ATOM     60  O43 PBU d   1       5.061 -15.343  -3.586  0.00  0.00    -0.617 OA
ENDBRANCH  56  57
ENDBRANCH  44  56
BRANCH  46  61
ATOM     61  O5  PBU d   1       7.476 -15.023  -2.380  0.00  0.00    -0.272 OA
BRANCH  61  62
ATOM     62  P5  PBU d   1       7.991 -14.337  -3.788  0.00  0.00     0.422 P 
ATOM     63  O51 PBU d   1       8.060 -15.561  -4.678  0.00  0.00    -0.617 OA
ATOM     64  O52 PBU d   1       6.914 -13.307  -4.091  0.00  0.00    -0.617 OA
ATOM     65  O53 PBU d   1       9.338 -13.759  -3.419  0.00  0.00    -0.617 OA
ENDBRANCH  61  62
ENDBRANCH  46  61
BRANCH  48  66
ATOM     66  O6  PBU d   1       8.749 -12.748  -0.996  0.00  0.00    -0.390 OA
ATOM     67  H14 PBU d   1       9.073 -13.023  -1.845  0.00  0.00     0.210 HD
ENDBRANCH  48  66
ENDBRANCH  39  40
ENDBRANCH  36  39
ENDBRANCH  35  36
ENDBRANCH   1  35
TORSDOF 23
