REMARK WARNING: 32 MAX_TORS EXCEEDED!!!
REMARK  97 active torsions:
REMARK  status: ('A' for Active; 'I' for Inactive)
REMARK    1  A    between atoms: N_1  and  CA_2 
REMARK    2  A    between atoms: CA_2  and  C_3 
REMARK    3  A    between atoms: CA_2  and  CB_5 
REMARK       I    between atoms: C_3  and  N_10 
REMARK    4  A    between atoms: CB_5  and  CG_6 
REMARK    5  A    between atoms: CG_6  and  CD_7 
REMARK    6  A    between atoms: N_10  and  CA_11 
REMARK    7  A    between atoms: CA_11  and  C_12 
REMARK    8  A    between atoms: CA_11  and  CB_14 
REMARK       I    between atoms: C_12  and  N_18 
REMARK    9  A    between atoms: CB_14  and  CG_15 
REMARK   10  A    between atoms: N_18  and  CA_19 
REMARK   11  A    between atoms: CA_19  and  CB_20 
REMARK   12  A    between atoms: CA_19  and  C_27 
REMARK   13  A    between atoms: CB_20  and  CG2_21 
REMARK   14  A    between atoms: CB_20  and  OG1_22 
REMARK   15  A    between atoms: OG1_22  and  P_23 
REMARK       I    between atoms: C_27  and  N_29 
REMARK   16  A    between atoms: N_29  and  CA_30 
REMARK   17  A    between atoms: CA_30  and  C_31 
REMARK   18  A    between atoms: CA_30  and  CB_33 
REMARK       I    between atoms: C_31  and  N_37 
REMARK   19  A    between atoms: CB_33  and  CG_34 
REMARK   20  A    between atoms: N_37  and  CA_38 
REMARK   21  A    between atoms: CA_38  and  C_39 
REMARK   22  A    between atoms: CA_38  and  CB_41 
REMARK       I    between atoms: C_39  and  N_46 
REMARK   23  A    between atoms: CB_41  and  CG_42 
REMARK   24  A    between atoms: CG_42  and  CD_43 
REMARK   25  A    between atoms: N_46  and  CA_47 
REMARK   26  A    between atoms: CA_47  and  C_48 
REMARK   27  A    between atoms: CA_47  and  CB_50 
REMARK       I    between atoms: C_48  and  N_54 
REMARK   28  A    between atoms: CB_50  and  CG_51 
REMARK   29  A    between atoms: N_54  and  CA_55 
REMARK   30  A    between atoms: CA_55  and  C_56 
REMARK   31  A    between atoms: CA_55  and  CB_58 
REMARK       I    between atoms: C_56  and  N_62 
REMARK   32  A    between atoms: CB_58  and  CG_59 
REMARK   33  A    between atoms: N_62  and  CA_63 
REMARK   34  A    between atoms: CA_63  and  C_64 
REMARK   35  A    between atoms: CA_63  and  CB_66 
REMARK       I    between atoms: C_64  and  N_72 
REMARK   36  A    between atoms: CB_66  and  CG_67 
REMARK   37  A    between atoms: N_72  and  CA_73 
REMARK   38  A    between atoms: CA_73  and  C_74 
REMARK   39  A    between atoms: CA_73  and  CB_76 
REMARK       I    between atoms: C_74  and  N_80 
REMARK   40  A    between atoms: CB_76  and  CG_77 
REMARK   41  A    between atoms: CG_77  and  CD1_78 
REMARK   42  A    between atoms: CG_77  and  CD2_79 
REMARK   43  A    between atoms: N_80  and  CA_81 
REMARK   44  A    between atoms: CA_81  and  C_82 
REMARK   45  A    between atoms: CA_81  and  CB_84 
REMARK       I    between atoms: C_82  and  N_88 
REMARK   46  A    between atoms: CB_84  and  CG1_85 
REMARK   47  A    between atoms: CB_84  and  CG2_86 
REMARK   48  A    between atoms: CG1_85  and  CD1_87 
REMARK   49  A    between atoms: N_88  and  CA_89 
REMARK   50  A    between atoms: CA_89  and  C_90 
REMARK   51  A    between atoms: CA_89  and  CB_92 
REMARK       I    between atoms: C_90  and  N_100 
REMARK   52  A    between atoms: CB_92  and  CG_93 
REMARK   53  A    between atoms: CZ_98  and  OH_99 
REMARK   54  A    between atoms: N_100  and  CA_101 
REMARK   55  A    between atoms: CA_101  and  C_102 
REMARK   56  A    between atoms: CA_101  and  CB_104 
REMARK       I    between atoms: C_102  and  N_108 
REMARK   57  A    between atoms: CB_104  and  CG_105 
REMARK   58  A    between atoms: CG_105  and  CD1_106 
REMARK   59  A    between atoms: CG_105  and  CD2_107 
REMARK   60  A    between atoms: N_108  and  CA_109 
REMARK   61  A    between atoms: CA_109  and  C_110 
REMARK   62  A    between atoms: CA_109  and  CB_112 
REMARK       I    between atoms: C_110  and  N_117 
REMARK   63  A    between atoms: CB_112  and  CG_113 
REMARK   64  A    between atoms: CG_113  and  CD_114 
REMARK   65  A    between atoms: N_117  and  CA_118 
REMARK   66  A    between atoms: CA_118  and  C_119 
REMARK   67  A    between atoms: CA_118  and  CB_121 
REMARK       I    between atoms: C_119  and  N_126 
REMARK   68  A    between atoms: CB_121  and  CG_122 
REMARK   69  A    between atoms: CG_122  and  CD_123 
REMARK   70  A    between atoms: N_126  and  CA_127 
REMARK   71  A    between atoms: CA_127  and  C_128 
REMARK   72  A    between atoms: CA_127  and  CB_130 
REMARK       I    between atoms: C_128  and  N_134 
REMARK   73  A    between atoms: CB_130  and  CG1_131 
REMARK   74  A    between atoms: CB_130  and  CG2_132 
REMARK   75  A    between atoms: CG1_131  and  CD1_133 
REMARK   76  A    between atoms: N_134  and  CA_135 
REMARK   77  A    between atoms: CA_135  and  C_136 
REMARK   78  A    between atoms: CA_135  and  CB_138 
REMARK       I    between atoms: C_136  and  N_142 
REMARK   79  A    between atoms: CB_138  and  CG_139 
REMARK   80  A    between atoms: CG_139  and  CD1_140 
REMARK   81  A    between atoms: CG_139  and  CD2_141 
REMARK   82  A    between atoms: N_142  and  CA_143 
REMARK   83  A    between atoms: CA_143  and  C_144 
REMARK   84  A    between atoms: CA_143  and  CB_146 
REMARK       I    between atoms: C_144  and  N_149 
REMARK   85  A    between atoms: CB_146  and  CG1_147 
REMARK   86  A    between atoms: CB_146  and  CG2_148 
REMARK   87  A    between atoms: N_149  and  CA_150 
REMARK   88  A    between atoms: CA_150  and  C_151 
REMARK   89  A    between atoms: CA_150  and  CB_153 
REMARK       I    between atoms: C_151  and  N_160 
REMARK   90  A    between atoms: CB_153  and  CG_154 
REMARK   91  A    between atoms: CG_154  and  CD_155 
REMARK   92  A    between atoms: CD_155  and  NE_156 
REMARK       I    between atoms: NE_156  and  CZ_157 
REMARK       I    between atoms: CZ_157  and  NH1_158 
REMARK   93  A    between atoms: N_160  and  CA_161 
REMARK   94  A    between atoms: CA_161  and  C_162 
REMARK   95  A    between atoms: CA_161  and  CB_164 
REMARK   96  A    between atoms: CB_164  and  CG1_165 
REMARK   97  A    between atoms: CB_164  and  CG2_166 
ROOT
ATOM      1  CA  TYR d   1       8.861  -4.437   6.581  0.00  0.00     0.093 C 
ATOM      2  H67 TYR d   1       9.925  -4.159   6.570  0.00  0.00     0.088 H 
ENDROOT
BRANCH   1   3
ATOM      3  N   TYR d   1       8.115  -3.343   7.198  0.00  0.00    -0.346 N 
ATOM      4  C   ILE d   1       8.233  -2.084   6.775  0.00  0.00     0.241 C 
ATOM      5  O   ILE d   1       8.970  -1.755   5.846  0.00  0.00    -0.271 OA
ATOM      6  H66 TYR d   1       7.498  -3.544   7.959  0.00  0.00     0.163 HD
BRANCH   4   7
ATOM      7  CA  ILE d   1       7.395  -1.042   7.518  0.00  0.00     0.092 C 
ATOM      8  H56 ILE d   1       7.115  -0.253   6.804  0.00  0.00     0.088 H 
BRANCH   7   9
ATOM      9  N   ILE d   1       6.177  -1.633   8.032  0.00  0.00    -0.346 N 
ATOM     10  C   LEU d   1       5.091  -1.730   7.283  0.00  0.00     0.241 C 
ATOM     11  O   LEU d   1       5.044  -1.323   6.124  0.00  0.00    -0.271 OA
ATOM     12  H55 ILE d   1       6.157  -1.974   8.972  0.00  0.00     0.163 HD
BRANCH  10  13
ATOM     13  CA  LEU d   1       3.875  -2.376   7.938  0.00  0.00     0.089 C 
ATOM     14  H45 LEU d   1       3.260  -2.840   7.153  0.00  0.00     0.087 H 
BRANCH  13  15
ATOM     15  N   LEU d   1       4.283  -3.413   8.879  0.00  0.00    -0.346 N 
ATOM     16  C   HIS d   1       5.046  -4.435   8.504  0.00  0.00     0.241 C 
ATOM     17  O   HIS d   1       5.456  -4.576   7.352  0.00  0.00    -0.271 OA
ATOM     18  H44 LEU d   1       3.981  -3.354   9.831  0.00  0.00     0.163 HD
BRANCH  16  19
ATOM     19  CA  HIS d   1       5.400  -5.447   9.588  0.00  0.00     0.094 C 
ATOM     20  H38 HIS d   1       6.445  -5.760   9.444  0.00  0.00     0.088 H 
BRANCH  19  21
ATOM     21  N   HIS d   1       5.274  -4.864  10.911  0.00  0.00    -0.346 N 
ATOM     22  C   ASP d   1       6.204  -4.077  11.418  0.00  0.00     0.241 C 
ATOM     23  O   ASP d   1       7.237  -3.779  10.818  0.00  0.00    -0.271 OA
ATOM     24  H37 HIS d   1       4.459  -5.064  11.454  0.00  0.00     0.163 HD
BRANCH  22  25
ATOM     25  CA  ASP d   1       5.928  -3.543  12.816  0.00  0.00     0.098 C 
ATOM     26  H34 ASP d   1       6.720  -2.824  13.073  0.00  0.00     0.088 H 
BRANCH  25  27
ATOM     27  N   ASP d   1       4.645  -2.852  12.884  0.00  0.00    -0.345 N 
ATOM     28  C   ASP d   1       4.316  -1.901  12.018  0.00  0.00     0.241 C 
ATOM     29  O   ASP d   1       5.061  -1.539  11.106  0.00  0.00    -0.271 OA
ATOM     30  H33 ASP d   1       3.996  -3.101  13.602  0.00  0.00     0.163 HD
BRANCH  28  31
ATOM     31  CA  ASP d   1       2.948  -1.253  12.211  0.00  0.00     0.098 C 
ATOM     32  H30 ASP d   1       2.511  -1.068  11.219  0.00  0.00     0.088 H 
BRANCH  31  33
ATOM     33  N   ASP d   1       2.046  -2.118  12.953  0.00  0.00    -0.346 N 
ATOM     34  C   GLU d   1       1.340  -3.073  12.362  0.00  0.00     0.241 C 
ATOM     35  O   GLU d   1       1.388  -3.296  11.154  0.00  0.00    -0.271 OA
ATOM     36  H29 ASP d   1       1.955  -1.989  13.941  0.00  0.00     0.163 HD
BRANCH  34  37
ATOM     37  CA  GLU d   1       0.430  -3.884  13.277  0.00  0.00     0.090 C 
ATOM     38  H24 GLU d   1       0.250  -4.864  12.812  0.00  0.00     0.087 H 
BRANCH  37  39
ATOM     39  N   GLU d   1       1.057  -4.096  14.571  0.00  0.00    -0.346 N 
ATOM     40  C   ASP d   1       1.886  -5.112  14.794  0.00  0.00     0.241 C 
ATOM     41  O   ASP d   1       2.182  -5.938  13.931  0.00  0.00    -0.271 OA
ATOM     42  H23 GLU d   1       0.859  -3.459  15.316  0.00  0.00     0.163 HD
BRANCH  40  43
ATOM     43  CA  ASP d   1       2.475  -5.198  16.200  0.00  0.00     0.098 C 
ATOM     44  H20 ASP d   1       3.179  -4.364  16.337  0.00  0.00     0.088 H 
BRANCH  43  45
ATOM     45  N   ASP d   1       1.431  -5.090  17.201  0.00  0.00    -0.345 N 
ATOM     46  C   TPO d   1       1.066  -3.910  17.692  0.00  0.00     0.243 C 
ATOM     47  O   TPO d   1       1.582  -2.851  17.335  0.00  0.00    -0.271 OA
ATOM     48  H19 ASP d   1       0.977  -5.919  17.528  0.00  0.00     0.163 HD
BRANCH  46  49
ATOM     49  CA  TPO d   1      -0.046  -3.919  18.737  0.00  0.00     0.114 C 
ATOM     50  H14 TPO d   1      -0.755  -4.723  18.492  0.00  0.00     0.091 H 
BRANCH  49  51
ATOM     51  N   TPO d   1       0.502  -4.168  20.065  0.00  0.00    -0.344 N 
ATOM     52  C   ASP d   1       1.137  -5.298  20.357  0.00  0.00     0.241 C 
ATOM     53  O   ASP d   1       1.306  -6.202  19.539  0.00  0.00    -0.271 OA
ATOM     54  H13 TPO d   1       0.397  -3.471  20.774  0.00  0.00     0.163 HD
BRANCH  52  55
ATOM     55  CA  ASP d   1       1.662  -5.426  21.783  0.00  0.00     0.098 C 
ATOM     56  H10 ASP d   1       1.881  -4.418  22.166  0.00  0.00     0.088 H 
BRANCH  55  57
ATOM     57  N   ASP d   1       0.666  -6.044  22.651  0.00  0.00    -0.345 N 
ATOM     58  C   GLU d   1      -0.519  -5.480  22.863  0.00  0.00     0.249 C 
ATOM     59  O   GLU d   1      -0.855  -4.413  22.350  0.00  0.00    -0.271 OA
ATOM     60  H9  ASP d   1       0.880  -6.913  23.097  0.00  0.00     0.163 HD
BRANCH  58  61
ATOM     61  CA  GLU d   1      -1.465  -6.233  23.793  0.00  0.00     0.176 C 
ATOM     62  H4  GLU d   1      -0.963  -6.383  24.760  0.00  0.00     0.099 H 
BRANCH  61  63
ATOM     63  N   GLU d   1      -2.721  -5.469  24.014  0.00  0.00    -0.066 N 
ATOM     64  H1  GLU d   1      -3.326  -5.988  24.631  0.00  0.00     0.275 HD
ATOM     65  H2  GLU d   1      -3.186  -5.324  23.131  0.00  0.00     0.275 HD
ATOM     66  H3  GLU d   1      -2.503  -4.577  24.430  0.00  0.00     0.275 HD
ENDBRANCH  61  63
BRANCH  61  67
ATOM     67  CB  GLU d   1      -1.821  -7.595  23.195  0.00  0.00    -0.021 C 
ATOM     68  H5  GLU d   1      -1.714  -7.534  22.102  0.00  0.00     0.037 H 
ATOM     69  H6  GLU d   1      -2.867  -7.824  23.448  0.00  0.00     0.037 H 
BRANCH  67  70
ATOM     70  CG  GLU d   1      -0.945  -8.729  23.701  0.00  0.00     0.018 C 
ATOM     71  H7  GLU d   1      -0.041  -8.299  24.157  0.00  0.00     0.049 H 
ATOM     72  H8  GLU d   1      -0.660  -9.362  22.848  0.00  0.00     0.049 H 
BRANCH  70  73
ATOM     73  CD  GLU d   1      -1.646  -9.591  24.733  0.00  0.00     0.172 C 
ATOM     74  OE1 GLU d   1      -2.505 -10.408  24.340  0.00  0.00    -0.648 OA
ATOM     75  OE2 GLU d   1      -1.335  -9.449  25.934  0.00  0.00    -0.648 OA
ENDBRANCH  70  73
ENDBRANCH  67  70
ENDBRANCH  61  67
ENDBRANCH  58  61
ENDBRANCH  55  57
BRANCH  55  76
ATOM     76  CB  ASP d   1       2.955  -6.244  21.792  0.00  0.00     0.043 C 
ATOM     77  H11 ASP d   1       3.462  -6.092  22.756  0.00  0.00     0.052 H 
ATOM     78  H12 ASP d   1       3.603  -5.888  20.977  0.00  0.00     0.052 H 
BRANCH  76  79
ATOM     79  CG  ASP d   1       2.705  -7.727  21.602  0.00  0.00     0.175 C 
ATOM     80  OD1 ASP d   1       1.603  -8.089  21.137  0.00  0.00    -0.648 OA
ATOM     81  OD2 ASP d   1       3.610  -8.527  21.918  0.00  0.00    -0.648 OA
ENDBRANCH  76  79
ENDBRANCH  55  76
ENDBRANCH  52  55
ENDBRANCH  49  51
BRANCH  49  82
ATOM     82  CB  TPO d   1      -0.789  -2.579  18.711  0.00  0.00     0.076 C 
ATOM     83  H15 TPO d   1      -0.141  -1.820  19.173  0.00  0.00     0.087 H 
BRANCH  82  84
ATOM     84  CG2 TPO d   1      -1.143  -2.110  17.312  0.00  0.00    -0.049 C 
ATOM     85  H16 TPO d   1      -1.672  -1.147  17.371  0.00  0.00     0.031 H 
ATOM     86  H17 TPO d   1      -1.792  -2.855  16.828  0.00  0.00     0.031 H 
ATOM     87  H18 TPO d   1      -0.223  -1.987  16.722  0.00  0.00     0.031 H 
ENDBRANCH  82  84
BRANCH  82  88
ATOM     88  OG1 TPO d   1      -1.989  -2.695  19.478  0.00  0.00    -0.275 OA
BRANCH  88  89
ATOM     89  P   TPO d   1      -2.291  -1.247  20.119  0.00  0.00     0.422 P 
ATOM     90  O1P TPO d   1      -3.715  -1.170  20.515  0.00  0.00    -0.617 OA
ATOM     91  O2P TPO d   1      -1.363  -1.031  21.416  0.00  0.00    -0.617 OA
ATOM     92  O3P TPO d   1      -1.974  -0.100  19.034  0.00  0.00    -0.617 OA
ENDBRANCH  88  89
ENDBRANCH  82  88
ENDBRANCH  49  82
ENDBRANCH  46  49
ENDBRANCH  43  45
BRANCH  43  93
ATOM     93  CB  ASP d   1       3.234  -6.515  16.373  0.00  0.00     0.043 C 
ATOM     94  H21 ASP d   1       2.722  -7.296  15.791  0.00  0.00     0.052 H 
ATOM     95  H22 ASP d   1       3.228  -6.788  17.439  0.00  0.00     0.052 H 
BRANCH  93  96
ATOM     96  CG  ASP d   1       4.672  -6.424  15.904  0.00  0.00     0.175 C 
ATOM     97  OD1 ASP d   1       5.455  -5.679  16.531  0.00  0.00    -0.648 OA
ATOM     98  OD2 ASP d   1       5.017  -7.099  14.912  0.00  0.00    -0.648 OA
ENDBRANCH  93  96
ENDBRANCH  43  93
ENDBRANCH  40  43
ENDBRANCH  37  39
BRANCH  37  99
ATOM     99  CB  GLU d   1      -0.913  -3.170  13.446  0.00  0.00    -0.029 C 
ATOM    100  H25 GLU d   1      -1.548  -3.776  14.109  0.00  0.00     0.037 H 
ATOM    101  H26 GLU d   1      -1.389  -3.086  12.458  0.00  0.00     0.037 H 
BRANCH  99 102
ATOM    102  CG  GLU d   1      -0.790  -1.777  14.040  0.00  0.00     0.018 C 
ATOM    103  H27 GLU d   1      -0.225  -1.144  13.340  0.00  0.00     0.049 H 
ATOM    104  H28 GLU d   1      -0.245  -1.847  14.993  0.00  0.00     0.049 H 
BRANCH 102 105
ATOM    105  CD  GLU d   1      -2.139  -1.133  14.298  0.00  0.00     0.172 C 
ATOM    106  OE1 GLU d   1      -3.040  -1.828  14.812  0.00  0.00    -0.648 OA
ATOM    107  OE2 GLU d   1      -2.293   0.067  13.985  0.00  0.00    -0.648 OA
ENDBRANCH 102 105
ENDBRANCH  99 102
ENDBRANCH  37  99
ENDBRANCH  34  37
ENDBRANCH  31  33
BRANCH  31 108
ATOM    108  CB  ASP d   1       3.097   0.084  12.936  0.00  0.00     0.043 C 
ATOM    109  H31 ASP d   1       4.092   0.123  13.403  0.00  0.00     0.052 H 
ATOM    110  H32 ASP d   1       2.323   0.151  13.715  0.00  0.00     0.052 H 
BRANCH 108 111
ATOM    111  CG  ASP d   1       2.951   1.269  12.002  0.00  0.00     0.175 C 
ATOM    112  OD1 ASP d   1       1.802   1.684  11.744  0.00  0.00    -0.648 OA
ATOM    113  OD2 ASP d   1       3.986   1.783  11.528  0.00  0.00    -0.648 OA
ENDBRANCH 108 111
ENDBRANCH  31 108
ENDBRANCH  28  31
ENDBRANCH  25  27
BRANCH  25 114
ATOM    114  CB  ASP d   1       5.962  -4.681  13.822  0.00  0.00     0.043 C 
ATOM    115  H35 ASP d   1       5.431  -5.545  13.395  0.00  0.00     0.052 H 
ATOM    116  H36 ASP d   1       5.453  -4.355  14.741  0.00  0.00     0.052 H 
BRANCH 114 117
ATOM    117  CG  ASP d   1       7.374  -5.105  14.174  0.00  0.00     0.175 C 
ATOM    118  OD1 ASP d   1       8.021  -5.767  13.335  0.00  0.00    -0.648 OA
ATOM    119  OD2 ASP d   1       7.833  -4.775  15.288  0.00  0.00    -0.648 OA
ENDBRANCH 114 117
ENDBRANCH  25 114
ENDBRANCH  22  25
ENDBRANCH  19  21
BRANCH  19 120
ATOM    120  CB  HIS d   1       4.501  -6.677   9.472  0.00  0.00     0.004 C 
ATOM    121  H39 HIS d   1       4.987  -7.512   9.998  0.00  0.00     0.046 H 
ATOM    122  H40 HIS d   1       4.394  -6.928   8.406  0.00  0.00     0.046 H 
BRANCH 120 123
ATOM    123  CG  HIS d   1       3.133  -6.489  10.051  0.00  0.00     0.053 A 
ATOM    124  ND1 HIS d   1       2.555  -7.387  10.922  0.00  0.00    -0.247 NA
ATOM    125  CE1 HIS d   1       1.351  -6.959  11.259  0.00  0.00     0.064 A 
ATOM    126  NE2 HIS d   1       1.129  -5.815  10.639  0.00  0.00    -0.359 N 
ATOM    127  H42 HIS d   1       0.660  -7.464  11.933  0.00  0.00     0.143 H 
ATOM    128  CD2 HIS d   1       2.227  -5.498   9.878  0.00  0.00     0.002 A 
ATOM    129  H43 HIS d   1       0.270  -5.251  10.714  0.00  0.00     0.166 HD
ATOM    130  H41 HIS d   1       2.347  -4.615   9.252  0.00  0.00     0.114 H 
ENDBRANCH 120 123
ENDBRANCH  19 120
ENDBRANCH  16  19
ENDBRANCH  13  15
BRANCH  13 131
ATOM    131  CB  LEU d   1       3.039  -1.310   8.648  0.00  0.00    -0.035 C 
ATOM    132  H46 LEU d   1       3.580  -0.999   9.554  0.00  0.00     0.037 H 
ATOM    133  H47 LEU d   1       2.078  -1.764   8.932  0.00  0.00     0.037 H 
BRANCH 131 134
ATOM    134  CG  LEU d   1       2.746  -0.059   7.818  0.00  0.00    -0.059 C 
ATOM    135  H48 LEU d   1       3.685   0.278   7.355  0.00  0.00     0.038 H 
BRANCH 134 136
ATOM    136  CD1 LEU d   1       1.754  -0.373   6.710  0.00  0.00    -0.073 C 
ATOM    137  H49 LEU d   1       1.557   0.538   6.126  0.00  0.00     0.028 H 
ATOM    138  H50 LEU d   1       0.814  -0.736   7.151  0.00  0.00     0.028 H 
ATOM    139  H51 LEU d   1       2.173  -1.148   6.051  0.00  0.00     0.028 H 
ENDBRANCH 134 136
BRANCH 134 140
ATOM    140  CD2 LEU d   1       2.225   1.057   8.709  0.00  0.00    -0.073 C 
ATOM    141  H52 LEU d   1       2.958   1.266   9.502  0.00  0.00     0.028 H 
ATOM    142  H53 LEU d   1       1.272   0.749   9.164  0.00  0.00     0.028 H 
ATOM    143  H54 LEU d   1       2.068   1.964   8.107  0.00  0.00     0.028 H 
ENDBRANCH 134 140
ENDBRANCH 131 134
ENDBRANCH  13 131
ENDBRANCH  10  13
ENDBRANCH   7   9
BRANCH   7 144
ATOM    144  CB  ILE d   1       8.228  -0.396   8.644  0.00  0.00    -0.030 C 
ATOM    145  H57 ILE d   1       8.425  -1.156   9.414  0.00  0.00     0.043 H 
BRANCH 144 146
ATOM    146  CG1 ILE d   1       7.440   0.752   9.281  0.00  0.00    -0.063 C 
ATOM    147  H58 ILE d   1       6.493   0.350   9.671  0.00  0.00     0.033 H 
ATOM    148  H59 ILE d   1       7.228   1.502   8.504  0.00  0.00     0.033 H 
BRANCH 146 149
ATOM    149  CD1 ILE d   1       8.174   1.433  10.416  0.00  0.00    -0.076 C 
ATOM    150  H63 ILE d   1       7.550   2.243  10.822  0.00  0.00     0.027 H 
ATOM    151  H64 ILE d   1       9.120   1.851  10.042  0.00  0.00     0.027 H 
ATOM    152  H65 ILE d   1       8.385   0.700  11.208  0.00  0.00     0.027 H 
ENDBRANCH 146 149
ENDBRANCH 144 146
BRANCH 144 153
ATOM    153  CG2 ILE d   1       9.564   0.106   8.109  0.00  0.00    -0.071 C 
ATOM    154  H60 ILE d   1      10.115  -0.731   7.656  0.00  0.00     0.028 H 
ATOM    155  H61 ILE d   1      10.154   0.529   8.935  0.00  0.00     0.028 H 
ATOM    156  H62 ILE d   1       9.387   0.882   7.350  0.00  0.00     0.028 H 
ENDBRANCH 144 153
ENDBRANCH   7 144
ENDBRANCH   4   7
ENDBRANCH   1   3
BRANCH   1 157
ATOM    157  C   TYR d   1       8.423  -4.667   5.142  0.00  0.00     0.241 C 
ATOM    158  O   TYR d   1       9.250  -4.847   4.251  0.00  0.00    -0.271 OA
ATOM    159  N   LEU d   1       7.124  -4.661   4.921  0.00  0.00    -0.346 N 
ATOM    160  H75 LEU d   1       6.496  -4.511   5.684  0.00  0.00     0.163 HD
BRANCH 159 161
ATOM    161  CA  LEU d   1       6.590  -4.869   3.585  0.00  0.00     0.089 C 
ATOM    162  H76 LEU d   1       7.162  -5.682   3.113  0.00  0.00     0.087 H 
BRANCH 161 163
ATOM    163  C   LEU d   1       6.783  -3.614   2.745  0.00  0.00     0.241 C 
ATOM    164  O   LEU d   1       6.711  -3.653   1.518  0.00  0.00    -0.271 OA
ATOM    165  N   GLU d   1       7.025  -2.499   3.415  0.00  0.00    -0.346 N 
ATOM    166  H86 GLU d   1       7.067  -2.526   4.414  0.00  0.00     0.163 HD
BRANCH 165 167
ATOM    167  CA  GLU d   1       7.230  -1.240   2.730  0.00  0.00     0.090 C 
ATOM    168  H87 GLU d   1       6.359  -1.048   2.086  0.00  0.00     0.087 H 
BRANCH 167 169
ATOM    169  C   GLU d   1       8.476  -1.298   1.846  0.00  0.00     0.241 C 
ATOM    170  O   GLU d   1       8.552  -0.626   0.818  0.00  0.00    -0.271 OA
ATOM    171  N   GLU d   1       9.457  -2.092   2.269  0.00  0.00    -0.346 N 
ATOM    172  H92 GLU d   1       9.331  -2.614   3.113  0.00  0.00     0.163 HD
BRANCH 171 173
ATOM    173  CA  GLU d   1      10.713  -2.222   1.534  0.00  0.00     0.090 C 
ATOM    174  H93 GLU d   1      10.946  -1.238   1.101  0.00  0.00     0.087 H 
BRANCH 173 175
ATOM    175  C   GLU d   1      10.619  -3.219   0.385  0.00  0.00     0.241 C 
ATOM    176  O   GLU d   1      11.104  -2.952  -0.715  0.00  0.00    -0.271 OA
ATOM    177  N   ILE d   1      10.001  -4.362   0.634  0.00  0.00    -0.346 N 
ATOM    178  H98 ILE d   1       9.626  -4.529   1.546  0.00  0.00     0.163 HD
BRANCH 177 179
ATOM    179  CA  ILE d   1       9.857  -5.388  -0.404  0.00  0.00     0.092 C 
ATOM    180  H99 ILE d   1      10.862  -5.774  -0.627  0.00  0.00     0.088 H 
BRANCH 179 181
ATOM    181  C   ILE d   1       9.279  -4.801  -1.682  0.00  0.00     0.241 C 
ATOM    182  O   ILE d   1       9.517  -5.308  -2.778  0.00  0.00    -0.271 OA
ATOM    183  N   LEU d   1       8.523  -3.728  -1.532  0.00  0.00    -0.346 N 
ATOM    184 9H10 LEU d   1       8.369  -3.367  -0.612  0.00  0.00     0.163 HD
BRANCH 183 185
ATOM    185  CA  LEU d   1       7.910  -3.058  -2.665  0.00  0.00     0.089 C 
ATOM    186 0H11 LEU d   1       7.417  -3.816  -3.292  0.00  0.00     0.087 H 
BRANCH 185 187
ATOM    187  C   LEU d   1       8.934  -2.326  -3.504  0.00  0.00     0.241 C 
ATOM    188  O   LEU d   1       9.383  -2.813  -4.541  0.00  0.00    -0.271 OA
ATOM    189  N   VAL d   1       9.259  -1.133  -3.053  0.00  0.00    -0.346 N 
ATOM    190 0H12 VAL d   1       8.851  -0.810  -2.199  0.00  0.00     0.163 HD
BRANCH 189 191
ATOM    191  CA  VAL d   1      10.184  -0.280  -3.751  0.00  0.00     0.092 C 
ATOM    192 1H12 VAL d   1      10.818  -0.905  -4.397  0.00  0.00     0.088 H 
BRANCH 191 193
ATOM    193  C   VAL d   1      11.069   0.465  -2.770  0.00  0.00     0.241 C 
ATOM    194  O   VAL d   1      11.503   1.587  -3.030  0.00  0.00    -0.271 OA
ATOM    195  N   ARG d   1      11.322  -0.167  -1.637  0.00  0.00    -0.346 N 
ATOM    196 9H12 ARG d   1      10.937  -1.078  -1.488  0.00  0.00     0.163 HD
BRANCH 195 197
ATOM    197  CA  ARG d   1      12.147   0.434  -0.605  0.00  0.00     0.089 C 
ATOM    198 0H13 ARG d   1      12.775   1.206  -1.074  0.00  0.00     0.087 H 
BRANCH 197 199
ATOM    199  C   ARG d   1      13.064  -0.600   0.040  0.00  0.00     0.241 C 
ATOM    200  O   ARG d   1      13.261  -0.599   1.255  0.00  0.00    -0.271 OA
ATOM    201  N   VAL d   1      13.626  -1.480  -0.784  0.00  0.00    -0.344 N 
ATOM    202 2H14 VAL d   1      13.427  -1.427  -1.763  0.00  0.00     0.163 HD
BRANCH 201 203
ATOM    203  CA  VAL d   1      14.524  -2.520  -0.297  0.00  0.00     0.099 C 
ATOM    204 3H14 VAL d   1      13.966  -3.151   0.410  0.00  0.00     0.090 H 
BRANCH 203 205
ATOM    205  C   VAL d   1      15.721  -1.916   0.430  0.00  0.00     0.197 C 
ATOM    206  O   VAL d   1      16.023  -2.373   1.553  0.00  0.00    -0.646 OA
ATOM    207  OXT VAL d   1      16.348  -0.992  -0.130  0.00  0.00    -0.646 OA
ENDBRANCH 203 205
BRANCH 203 208
ATOM    208  CB  VAL d   1      15.033  -3.407  -1.448  0.00  0.00    -0.032 C 
ATOM    209 4H14 VAL d   1      15.758  -4.125  -1.036  0.00  0.00     0.042 H 
BRANCH 208 210
ATOM    210  CG1 VAL d   1      13.886  -4.191  -2.066  0.00  0.00    -0.071 C 
ATOM    211 5H14 VAL d   1      14.269  -4.817  -2.885  0.00  0.00     0.028 H 
ATOM    212 6H14 VAL d   1      13.134  -3.491  -2.461  0.00  0.00     0.028 H 
ATOM    213 7H14 VAL d   1      13.425  -4.831  -1.300  0.00  0.00     0.028 H 
ENDBRANCH 208 210
BRANCH 208 214
ATOM    214  CG2 VAL d   1      15.741  -2.565  -2.499  0.00  0.00    -0.071 C 
ATOM    215 8H14 VAL d   1      16.565  -2.008  -2.029  0.00  0.00     0.028 H 
ATOM    216 9H14 VAL d   1      15.027  -1.856  -2.943  0.00  0.00     0.028 H 
ATOM    217 0H15 VAL d   1      16.143  -3.221  -3.285  0.00  0.00     0.028 H 
ENDBRANCH 208 214
ENDBRANCH 203 208
ENDBRANCH 201 203
ENDBRANCH 197 199
BRANCH 197 218
ATOM    218  CB  ARG d   1      11.271   1.105   0.455  0.00  0.00    -0.036 C 
ATOM    219 1H13 ARG d   1      11.880   1.272   1.355  0.00  0.00     0.036 H 
ATOM    220 2H13 ARG d   1      10.437   0.429   0.697  0.00  0.00     0.036 H 
BRANCH 218 221
ATOM    221  CG  ARG d   1      10.696   2.438   0.009  0.00  0.00    -0.048 C 
ATOM    222 3H13 ARG d   1       9.805   2.254  -0.609  0.00  0.00     0.035 H 
ATOM    223 4H13 ARG d   1      11.451   2.972  -0.586  0.00  0.00     0.035 H 
BRANCH 221 224
ATOM    224  CD  ARG d   1      10.303   3.301   1.197  0.00  0.00     0.009 C 
ATOM    225 5H13 ARG d   1      10.010   2.646   2.030  0.00  0.00     0.064 H 
ATOM    226 6H13 ARG d   1       9.450   3.933   0.910  0.00  0.00     0.064 H 
BRANCH 224 227
ATOM    227  NE  ARG d   1      11.400   4.160   1.636  0.00  0.00    -0.227 N 
ATOM    228  CZ  ARG d   1      11.458   4.736   2.835  0.00  0.00     0.665 C 
ATOM    229  NH1 ARG d   1      10.483   4.548   3.716  0.00  0.00    -0.235 N 
ATOM    230  NH2 ARG d   1      12.492   5.502   3.153  0.00  0.00    -0.235 N 
ATOM    231 8H13 ARG d   1      10.533   4.996   4.642  0.00  0.00     0.174 HD
ATOM    232 9H13 ARG d   1       9.677   3.954   3.473  0.00  0.00     0.174 HD
ATOM    233 0H14 ARG d   1      13.251   5.651   2.473  0.00  0.00     0.174 HD
ATOM    234 1H14 ARG d   1      12.536   5.948   4.080  0.00  0.00     0.174 HD
ATOM    235 7H13 ARG d   1      12.175   4.330   0.979  0.00  0.00     0.177 HD
ENDBRANCH 224 227
ENDBRANCH 221 224
ENDBRANCH 218 221
ENDBRANCH 197 218
ENDBRANCH 195 197
ENDBRANCH 191 193
BRANCH 191 236
ATOM    236  CB  VAL d   1       9.430   0.735  -4.629  0.00  0.00    -0.033 C 
ATOM    237 2H12 VAL d   1      10.172   1.345  -5.164  0.00  0.00     0.042 H 
BRANCH 236 238
ATOM    238  CG1 VAL d   1       8.559   0.031  -5.662  0.00  0.00    -0.071 C 
ATOM    239 3H12 VAL d   1       8.035   0.781  -6.272  0.00  0.00     0.028 H 
ATOM    240 4H12 VAL d   1       7.822  -0.604  -5.149  0.00  0.00     0.028 H 
ATOM    241 5H12 VAL d   1       9.191  -0.592  -6.311  0.00  0.00     0.028 H 
ENDBRANCH 236 238
BRANCH 236 242
ATOM    242  CG2 VAL d   1       8.587   1.657  -3.762  0.00  0.00    -0.071 C 
ATOM    243 6H12 VAL d   1       9.231   2.156  -3.023  0.00  0.00     0.028 H 
ATOM    244 7H12 VAL d   1       7.819   1.068  -3.240  0.00  0.00     0.028 H 
ATOM    245 8H12 VAL d   1       8.101   2.414  -4.396  0.00  0.00     0.028 H 
ENDBRANCH 236 242
ENDBRANCH 191 236
ENDBRANCH 189 191
ENDBRANCH 185 187
BRANCH 185 246
ATOM    246  CB  LEU d   1       6.864  -2.059  -2.179  0.00  0.00    -0.035 C 
ATOM    247 1H11 LEU d   1       7.261  -1.555  -1.286  0.00  0.00     0.037 H 
ATOM    248 2H11 LEU d   1       5.955  -2.618  -1.911  0.00  0.00     0.037 H 
BRANCH 246 249
ATOM    249  CG  LEU d   1       6.478  -0.983  -3.203  0.00  0.00    -0.059 C 
ATOM    250 3H11 LEU d   1       7.389  -0.438  -3.490  0.00  0.00     0.038 H 
BRANCH 249 251
ATOM    251  CD1 LEU d   1       5.892  -1.616  -4.453  0.00  0.00    -0.073 C 
ATOM    252 4H11 LEU d   1       5.623  -0.828  -5.172  0.00  0.00     0.028 H 
ATOM    253 5H11 LEU d   1       4.993  -2.191  -4.186  0.00  0.00     0.028 H 
ATOM    254 6H11 LEU d   1       6.635  -2.288  -4.907  0.00  0.00     0.028 H 
ENDBRANCH 249 251
BRANCH 249 255
ATOM    255  CD2 LEU d   1       5.504   0.009  -2.590  0.00  0.00    -0.073 C 
ATOM    256 7H11 LEU d   1       5.951   0.452  -1.688  0.00  0.00     0.028 H 
ATOM    257 8H11 LEU d   1       4.573  -0.510  -2.320  0.00  0.00     0.028 H 
ATOM    258 9H11 LEU d   1       5.283   0.803  -3.318  0.00  0.00     0.028 H 
ENDBRANCH 249 255
ENDBRANCH 246 249
ENDBRANCH 185 246
ENDBRANCH 183 185
ENDBRANCH 179 181
BRANCH 179 259
ATOM    259  CB  ILE d   1       8.981  -6.578   0.046  0.00  0.00    -0.030 C 
ATOM    260 0H10 ILE d   1       8.662  -7.130  -0.851  0.00  0.00     0.043 H 
BRANCH 259 261
ATOM    261  CG1 ILE d   1       7.735  -6.092   0.779  0.00  0.00    -0.063 C 
ATOM    262 1H10 ILE d   1       7.934  -5.084   1.173  0.00  0.00     0.033 H 
ATOM    263 2H10 ILE d   1       7.533  -6.779   1.614  0.00  0.00     0.033 H 
BRANCH 261 264
ATOM    264  CD1 ILE d   1       6.506  -6.029  -0.095  0.00  0.00    -0.076 C 
ATOM    265 6H10 ILE d   1       5.652  -5.672   0.499  0.00  0.00     0.027 H 
ATOM    266 7H10 ILE d   1       6.285  -7.032  -0.489  0.00  0.00     0.027 H 
ATOM    267 8H10 ILE d   1       6.686  -5.337  -0.931  0.00  0.00     0.027 H 
ENDBRANCH 261 264
ENDBRANCH 259 261
BRANCH 259 268
ATOM    268  CG2 ILE d   1       9.776  -7.521   0.932  0.00  0.00    -0.071 C 
ATOM    269 3H10 ILE d   1      10.671  -7.864   0.392  0.00  0.00     0.028 H 
ATOM    270 4H10 ILE d   1       9.153  -8.388   1.197  0.00  0.00     0.028 H 
ATOM    271 5H10 ILE d   1      10.080  -6.994   1.849  0.00  0.00     0.028 H 
ENDBRANCH 259 268
ENDBRANCH 179 259
ENDBRANCH 177 179
ENDBRANCH 173 175
BRANCH 173 272
ATOM    272  CB  GLU d   1      11.856  -2.603   2.480  0.00  0.00    -0.029 C 
ATOM    273  H94 GLU d   1      12.039  -1.756   3.158  0.00  0.00     0.037 H 
ATOM    274  H95 GLU d   1      12.756  -2.791   1.876  0.00  0.00     0.037 H 
BRANCH 272 275
ATOM    275  CG  GLU d   1      11.583  -3.837   3.323  0.00  0.00     0.018 C 
ATOM    276  H96 GLU d   1      11.020  -4.561   2.716  0.00  0.00     0.049 H 
ATOM    277  H97 GLU d   1      10.981  -3.542   4.195  0.00  0.00     0.049 H 
BRANCH 275 278
ATOM    278  CD  GLU d   1      12.857  -4.499   3.812  0.00  0.00     0.172 C 
ATOM    279  OE1 GLU d   1      13.431  -5.311   3.057  0.00  0.00    -0.648 OA
ATOM    280  OE2 GLU d   1      13.279  -4.206   4.951  0.00  0.00    -0.648 OA
ENDBRANCH 275 278
ENDBRANCH 272 275
ENDBRANCH 173 272
ENDBRANCH 171 173
ENDBRANCH 167 169
BRANCH 167 281
ATOM    281  CB  GLU d   1       7.339  -0.098   3.754  0.00  0.00    -0.029 C 
ATOM    282  H88 GLU d   1       7.004  -0.479   4.730  0.00  0.00     0.037 H 
ATOM    283  H89 GLU d   1       6.675   0.717   3.431  0.00  0.00     0.037 H 
BRANCH 281 284
ATOM    284  CG  GLU d   1       8.742   0.470   3.921  0.00  0.00     0.018 C 
ATOM    285  H90 GLU d   1       9.053   0.925   2.969  0.00  0.00     0.049 H 
ATOM    286  H91 GLU d   1       9.427  -0.352   4.176  0.00  0.00     0.049 H 
BRANCH 284 287
ATOM    287  CD  GLU d   1       8.819   1.522   5.011  0.00  0.00     0.172 C 
ATOM    288  OE1 GLU d   1       7.760   2.068   5.385  0.00  0.00    -0.648 OA
ATOM    289  OE2 GLU d   1       9.939   1.799   5.490  0.00  0.00    -0.648 OA
ENDBRANCH 284 287
ENDBRANCH 281 284
ENDBRANCH 167 281
ENDBRANCH 165 167
ENDBRANCH 161 163
BRANCH 161 290
ATOM    290  CB  LEU d   1       5.115  -5.307   3.638  0.00  0.00    -0.035 C 
ATOM    291  H77 LEU d   1       4.950  -5.799   4.608  0.00  0.00     0.037 H 
ATOM    292  H78 LEU d   1       4.955  -6.032   2.827  0.00  0.00     0.037 H 
BRANCH 290 293
ATOM    293  CG  LEU d   1       4.055  -4.208   3.491  0.00  0.00    -0.059 C 
ATOM    294  H79 LEU d   1       3.068  -4.666   3.651  0.00  0.00     0.038 H 
BRANCH 293 295
ATOM    295  CD1 LEU d   1       4.250  -3.138   4.543  0.00  0.00    -0.073 C 
ATOM    296  H80 LEU d   1       3.482  -2.360   4.421  0.00  0.00     0.028 H 
ATOM    297  H81 LEU d   1       5.248  -2.689   4.429  0.00  0.00     0.028 H 
ATOM    298  H82 LEU d   1       4.162  -3.587   5.543  0.00  0.00     0.028 H 
ENDBRANCH 293 295
BRANCH 293 299
ATOM    299  CD2 LEU d   1       4.068  -3.608   2.093  0.00  0.00    -0.073 C 
ATOM    300  H83 LEU d   1       3.925  -4.406   1.350  0.00  0.00     0.028 H 
ATOM    301  H84 LEU d   1       5.034  -3.112   1.916  0.00  0.00     0.028 H 
ATOM    302  H85 LEU d   1       3.255  -2.872   2.002  0.00  0.00     0.028 H 
ENDBRANCH 293 299
ENDBRANCH 290 293
ENDBRANCH 161 290
ENDBRANCH 159 161
ENDBRANCH   1 157
BRANCH   1 303
ATOM    303  CB  TYR d   1       8.710  -5.724   7.415  0.00  0.00    -0.014 C 
ATOM    304  H68 TYR d   1       7.893  -5.574   8.136  0.00  0.00     0.043 H 
ATOM    305  H69 TYR d   1       9.651  -5.896   7.957  0.00  0.00     0.043 H 
BRANCH 303 306
ATOM    306  CG  TYR d   1       8.400  -6.962   6.598  0.00  0.00    -0.056 A 
ATOM    307  CD1 TYR d   1       7.146  -7.140   6.033  0.00  0.00    -0.074 A 
ATOM    308  CE1 TYR d   1       6.857  -8.249   5.272  0.00  0.00    -0.051 A 
ATOM    309  H70 TYR d   1       6.379  -6.391   6.194  0.00  0.00     0.084 H 
ATOM    310  CZ  TYR d   1       7.826  -9.207   5.065  0.00  0.00     0.065 A 
ATOM    311  H72 TYR d   1       5.871  -8.369   4.837  0.00  0.00     0.087 H 
ATOM    312  CE2 TYR d   1       9.082  -9.056   5.616  0.00  0.00    -0.051 A 
ATOM    313  CD2 TYR d   1       9.365  -7.937   6.376  0.00  0.00    -0.074 A 
ATOM    314  H73 TYR d   1       9.843  -9.811   5.454  0.00  0.00     0.087 H 
ATOM    315  H71 TYR d   1      10.353  -7.818   6.805  0.00  0.00     0.084 H 
BRANCH 310 316
ATOM    316  OH  TYR d   1       7.541 -10.317   4.303  0.00  0.00    -0.361 OA
ATOM    317  H74 TYR d   1       6.642 -10.270   4.000  0.00  0.00     0.217 HD
ENDBRANCH 310 316
ENDBRANCH 303 306
ENDBRANCH   1 303
TORSDOF 97
