REMARK  7 active torsions:
REMARK  status: ('A' for Active; 'I' for Inactive)
REMARK    1  A    between atoms: C5_3  and  C6_4 
REMARK    2  A    between atoms: C6_4  and  C7_5 
REMARK    3  A    between atoms: C10_13  and  C11_14 
REMARK    4  A    between atoms: C11_14  and  C12_15 
REMARK    5  A    between atoms: C8_18  and  C9_19 
REMARK    6  A    between atoms: C2_22  and  S_23 
REMARK    7  A    between atoms: S_23  and  C1_25 
ROOT
ATOM      1  C7  SUZ d   1      -1.092  -2.798  -8.122  0.00  0.00    -0.002 A 
ATOM      2  C18 SUZ d   1      -0.709  -3.866  -7.068  0.00  0.00    -0.039 A 
ATOM      3  C17 SUZ d   1       0.339  -4.799  -6.902  0.00  0.00    -0.072 A 
ATOM      4  C16 SUZ d   1       0.339  -5.594  -5.808  0.00  0.00    -0.045 A 
ATOM      5  C15 SUZ d   1      -0.677  -5.508  -4.848  0.00  0.00     0.117 A 
ATOM      6  F   SUZ d   1      -0.643  -6.315  -3.777  0.00  0.00    -0.206 F 
ATOM      7  C14 SUZ d   1      -1.716  -4.603  -4.996  0.00  0.00    -0.035 A 
ATOM      8  C13 SUZ d   1      -1.723  -3.795  -6.098  0.00  0.00    -0.019 A 
ATOM      9  C10 SUZ d   1      -2.707  -2.714  -6.540  0.00  0.00    -0.035 A 
ATOM     10  C8  SUZ d   1      -2.363  -2.131  -7.711  0.00  0.00    -0.067 A 
ATOM     11  H5  SUZ d   1      -1.623  -3.526  -8.753  0.00  0.00     0.054 H 
ATOM     12  H6  SUZ d   1       1.130  -4.876  -7.639  0.00  0.00     0.084 H 
ATOM     13  H7  SUZ d   1       1.140  -6.311  -5.672  0.00  0.00     0.088 H 
ATOM     14  H8  SUZ d   1      -2.505  -4.538  -4.255  0.00  0.00     0.089 H 
ENDROOT
BRANCH   1  15
ATOM     15  C6  SUZ d   1      -0.243  -2.439  -9.267  0.00  0.00    -0.030 C 
ATOM     16  H3  SUZ d   1      -0.851  -2.631 -10.163  0.00  0.00     0.041 H 
ATOM     17  H4  SUZ d   1      -0.056  -1.359  -9.175  0.00  0.00     0.041 H 
BRANCH  15  18
ATOM     18  C5  SUZ d   1       1.108  -3.072  -9.540  0.00  0.00    -0.057 A 
ATOM     19  C19 SUZ d   1       2.168  -2.874  -8.596  0.00  0.00    -0.075 A 
ATOM     20  C20 SUZ d   1       3.242  -3.753  -8.555  0.00  0.00    -0.064 A 
ATOM     21  H2  SUZ d   1       2.131  -2.034  -7.911  0.00  0.00     0.084 H 
ATOM     22  C2  SUZ d   1       3.298  -4.857  -9.450  0.00  0.00     0.031 A 
ATOM     23  H1  SUZ d   1       4.040  -3.597  -7.838  0.00  0.00     0.085 H 
ATOM     24  C3  SUZ d   1       2.269  -5.056 -10.359  0.00  0.00    -0.064 A 
ATOM     25  C4  SUZ d   1       1.170  -4.155 -10.401  0.00  0.00    -0.075 A 
ATOM     26  H15 SUZ d   1       2.303  -5.900 -11.038  0.00  0.00     0.085 H 
ATOM     27  H14 SUZ d   1       0.371  -4.318 -11.115  0.00  0.00     0.084 H 
BRANCH  22  28
ATOM     28  S   SUZ d   1       4.661  -5.937  -9.370  0.00  0.00     0.045 S 
ATOM     29  O1  SUZ d   1       4.299  -7.251  -8.925  0.00  0.00    -0.253 OA
BRANCH  28  30
ATOM     30  C1  SUZ d   1       5.675  -5.182  -8.133  0.00  0.00    -0.004 C 
ATOM     31  H16 SUZ d   1       6.585  -5.782  -7.988  0.00  0.00     0.045 H 
ATOM     32  H17 SUZ d   1       5.118  -5.127  -7.186  0.00  0.00     0.045 H 
ATOM     33  H18 SUZ d   1       5.952  -4.168  -8.455  0.00  0.00     0.045 H 
ENDBRANCH  28  30
ENDBRANCH  22  28
ENDBRANCH  15  18
ENDBRANCH   1  15
BRANCH  10  34
ATOM     34  C9  SUZ d   1      -3.102  -1.060  -8.416  0.00  0.00    -0.053 C 
ATOM     35  H11 SUZ d   1      -4.001  -0.795  -7.840  0.00  0.00     0.033 H 
ATOM     36  H12 SUZ d   1      -3.398  -1.415  -9.415  0.00  0.00     0.033 H 
ATOM     37  H13 SUZ d   1      -2.457  -0.175  -8.517  0.00  0.00     0.033 H 
ENDBRANCH  10  34
BRANCH   9  38
ATOM     38  C11 SUZ d   1      -3.885  -2.326  -5.587  0.00  0.00     0.041 C 
ATOM     39  H9  SUZ d   1      -3.747  -1.284  -5.262  0.00  0.00     0.056 H 
ATOM     40  H10 SUZ d   1      -3.861  -2.990  -4.710  0.00  0.00     0.056 H 
BRANCH  38  41
ATOM     41  C12 SUZ d   1      -5.250  -2.451  -6.257  0.00  0.00     0.177 C 
ATOM     42  O3  SUZ d   1      -5.508  -1.702  -7.317  0.00  0.00    -0.648 OA
ATOM     43  O2  SUZ d   1      -6.126  -3.214  -5.822  0.00  0.00    -0.648 OA
ENDBRANCH  38  41
ENDBRANCH   9  38
TORSDOF 7
