REMARK WARNING: 32 MAX_TORS EXCEEDED!!!
REMARK  88 active torsions:
REMARK  status: ('A' for Active; 'I' for Inactive)
REMARK    1  A    between atoms: N_1  and  CA_2 
REMARK    2  A    between atoms: CA_2  and  C_3 
REMARK    3  A    between atoms: CA_2  and  CB_5 
REMARK       I    between atoms: C_3  and  N_9 
REMARK    4  A    between atoms: CB_5  and  CG_6 
REMARK    5  A    between atoms: N_9  and  CA_10 
REMARK    6  A    between atoms: CA_10  and  C_11 
REMARK    7  A    between atoms: CA_10  and  CB_13 
REMARK       I    between atoms: C_11  and  N_17 
REMARK    8  A    between atoms: CB_13  and  CG_14 
REMARK    9  A    between atoms: N_17  and  CA_18 
REMARK   10  A    between atoms: CA_18  and  C_19 
REMARK   11  A    between atoms: CA_18  and  CB_21 
REMARK       I    between atoms: C_19  and  N_25 
REMARK   12  A    between atoms: CB_21  and  CG_22 
REMARK   13  A    between atoms: N_25  and  CA_26 
REMARK   14  A    between atoms: CA_26  and  C_27 
REMARK   15  A    between atoms: CA_26  and  CB_29 
REMARK       I    between atoms: C_27  and  N_36 
REMARK   16  A    between atoms: CB_29  and  CG_30 
REMARK   17  A    between atoms: CG_30  and  CD_31 
REMARK   18  A    between atoms: CD_31  and  NE_32 
REMARK       I    between atoms: NE_32  and  CZ_33 
REMARK       I    between atoms: CZ_33  and  NH1_34 
REMARK       I    between atoms: CZ_33  and  NH2_35 
REMARK   19  A    between atoms: N_36  and  CA_37 
REMARK   20  A    between atoms: CA_37  and  C_38 
REMARK   21  A    between atoms: CA_37  and  CB_40 
REMARK       I    between atoms: C_38  and  N_48 
REMARK   22  A    between atoms: CB_40  and  CG_41 
REMARK   23  A    between atoms: CZ_46  and  OH_47 
REMARK   24  A    between atoms: N_48  and  CA_49 
REMARK   25  A    between atoms: CA_49  and  C_50 
REMARK   26  A    between atoms: CA_49  and  CB_52 
REMARK       I    between atoms: C_50  and  N_56 
REMARK   27  A    between atoms: CB_52  and  CG_53 
REMARK   28  A    between atoms: CG_53  and  CD1_54 
REMARK   29  A    between atoms: CG_53  and  CD2_55 
REMARK   30  A    between atoms: N_56  and  CA_57 
REMARK   31  A    between atoms: CA_57  and  C_58 
REMARK   32  A    between atoms: CA_57  and  CB_60 
REMARK       I    between atoms: C_58  and  N_67 
REMARK   33  A    between atoms: CB_60  and  CG_61 
REMARK   34  A    between atoms: CG_61  and  CD_62 
REMARK   35  A    between atoms: CD_62  and  NE_63 
REMARK       I    between atoms: NE_63  and  CZ_64 
REMARK       I    between atoms: CZ_64  and  NH1_65 
REMARK   36  A    between atoms: N_67  and  CA_68 
REMARK   37  A    between atoms: CA_68  and  C_69 
REMARK   38  A    between atoms: CA_68  and  CB_71 
REMARK       I    between atoms: C_69  and  N_76 
REMARK   39  A    between atoms: CB_71  and  CG_72 
REMARK   40  A    between atoms: CG_72  and  CD_73 
REMARK   41  A    between atoms: N_76  and  CA_77 
REMARK   42  A    between atoms: CA_77  and  C_78 
REMARK   43  A    between atoms: CA_77  and  CB_80 
REMARK       I    between atoms: C_78  and  N_81 
REMARK   44  A    between atoms: N_81  and  CA_82 
REMARK   45  A    between atoms: CA_82  and  C_83 
REMARK   46  A    between atoms: CA_82  and  CB_85 
REMARK       I    between atoms: C_83  and  N_89 
REMARK   47  A    between atoms: CB_85  and  CG1_86 
REMARK   48  A    between atoms: CB_85  and  CG2_87 
REMARK   49  A    between atoms: CG1_86  and  CD1_88 
REMARK   50  A    between atoms: N_89  and  CA_90 
REMARK   51  A    between atoms: CA_90  and  C_91 
REMARK   52  A    between atoms: CA_90  and  CB_93 
REMARK       I    between atoms: C_91  and  N_98 
REMARK   53  A    between atoms: CB_93  and  CG_94 
REMARK   54  A    between atoms: CG_94  and  CD_95 
REMARK       I    between atoms: CD_95  and  NE2_97 
REMARK   55  A    between atoms: N_98  and  CA_99 
REMARK   56  A    between atoms: CA_99  and  C_100 
REMARK   57  A    between atoms: CA_99  and  CB_102 
REMARK       I    between atoms: C_100  and  N_107 
REMARK   58  A    between atoms: CB_102  and  CG_103 
REMARK   59  A    between atoms: CG_103  and  CD_104 
REMARK   60  A    between atoms: N_107  and  CA_108 
REMARK   61  A    between atoms: CA_108  and  C_109 
REMARK   62  A    between atoms: CA_108  and  CB_111 
REMARK       I    between atoms: C_109  and  N_119 
REMARK   63  A    between atoms: CB_111  and  CG_112 
REMARK   64  A    between atoms: CZ_117  and  OH_118 
REMARK   65  A    between atoms: N_119  and  CA_120 
REMARK   66  A    between atoms: CA_120  and  C_121 
REMARK   67  A    between atoms: CA_120  and  CB_123 
REMARK       I    between atoms: C_121  and  N_127 
REMARK   68  A    between atoms: CB_123  and  CG_124 
REMARK   69  A    between atoms: N_127  and  CA_128 
REMARK   70  A    between atoms: CA_128  and  C_129 
REMARK   71  A    between atoms: CA_128  and  CB_131 
REMARK       I    between atoms: C_129  and  N_135 
REMARK   72  A    between atoms: CB_131  and  CG_132 
REMARK       I    between atoms: CG_132  and  ND2_134 
REMARK   73  A    between atoms: N_135  and  CA_136 
REMARK   74  A    between atoms: CA_136  and  C_137 
REMARK   75  A    between atoms: CA_136  and  CB_139 
REMARK       I    between atoms: C_137  and  N_143 
REMARK   76  A    between atoms: CB_139  and  CG1_140 
REMARK   77  A    between atoms: CB_139  and  CG2_141 
REMARK   78  A    between atoms: CG1_140  and  CD1_142 
REMARK   79  A    between atoms: N_143  and  CA_144 
REMARK   80  A    between atoms: CA_144  and  C_145 
REMARK   81  A    between atoms: CA_144  and  CB_147 
REMARK       I    between atoms: C_145  and  N_148 
REMARK   82  A    between atoms: N_148  and  CA_149 
REMARK   83  A    between atoms: CA_149  and  C_150 
REMARK   84  A    between atoms: CA_149  and  CB_152 
REMARK   85  A    between atoms: CB_152  and  CG_153 
REMARK   86  A    between atoms: CG_153  and  CD_154 
REMARK   87  A    between atoms: CD_154  and  CE_155 
REMARK   88  A    between atoms: CE_155  and  NZ_156 
ROOT
ATOM      1  C   ALA d   1      -9.026  -2.384   4.893  0.00  0.00     0.240 C 
ATOM      2  O   ALA d   1      -9.507  -3.506   5.054  0.00  0.00    -0.271 OA
ATOM      3  N   ILE d   1      -8.003  -1.924   5.606  0.00  0.00    -0.346 N 
ATOM      4  H72 ILE d   1      -7.659  -1.003   5.425  0.00  0.00     0.163 HD
ENDROOT
BRANCH   1   5
ATOM      5  CA  ALA d   1      -9.590  -1.435   3.840  0.00  0.00     0.086 C 
ATOM      6  H68 ALA d   1     -10.601  -1.775   3.574  0.00  0.00     0.086 H 
BRANCH   5   7
ATOM      7  N   ALA d   1      -9.685  -0.076   4.360  0.00  0.00    -0.346 N 
ATOM      8  C   GLU d   1     -10.603   0.263   5.258  0.00  0.00     0.241 C 
ATOM      9  O   GLU d   1     -11.427  -0.533   5.709  0.00  0.00    -0.271 OA
ATOM     10  H67 ALA d   1      -9.043   0.618   4.032  0.00  0.00     0.163 HD
BRANCH   8  11
ATOM     11  CA  GLU d   1     -10.590   1.717   5.722  0.00  0.00     0.090 C 
ATOM     12  H62 GLU d   1     -11.357   1.843   6.501  0.00  0.00     0.087 H 
BRANCH  11  13
ATOM     13  N   GLU d   1      -9.292   2.068   6.288  0.00  0.00    -0.346 N 
ATOM     14  C   ARG d   1      -8.775   1.398   7.314  0.00  0.00     0.241 C 
ATOM     15  O   ARG d   1      -9.350   0.452   7.851  0.00  0.00    -0.271 OA
ATOM     16  H61 GLU d   1      -8.779   2.831   5.895  0.00  0.00     0.163 HD
BRANCH  14  17
ATOM     17  CA  ARG d   1      -7.411   1.867   7.806  0.00  0.00     0.089 C 
ATOM     18  H49 ARG d   1      -6.880   1.006   8.239  0.00  0.00     0.087 H 
BRANCH  17  19
ATOM     19  N   ARG d   1      -6.618   2.391   6.702  0.00  0.00    -0.346 N 
ATOM     20  C   LEU d   1      -6.240   1.622   5.686  0.00  0.00     0.241 C 
ATOM     21  O   LEU d   1      -6.527   0.427   5.608  0.00  0.00    -0.271 OA
ATOM     22  H48 ARG d   1      -6.351   3.355   6.709  0.00  0.00     0.163 HD
BRANCH  20  23
ATOM     23  CA  LEU d   1      -5.419   2.301   4.595  0.00  0.00     0.089 C 
ATOM     24  H38 LEU d   1      -5.311   1.602   3.752  0.00  0.00     0.087 H 
BRANCH  23  25
ATOM     25  N   LEU d   1      -6.092   3.503   4.116  0.00  0.00    -0.346 N 
ATOM     26  C   TYR d   1      -7.304   3.452   3.572  0.00  0.00     0.241 C 
ATOM     27  O   TYR d   1      -7.933   2.401   3.438  0.00  0.00    -0.271 OA
ATOM     28  H37 LEU d   1      -5.631   4.386   4.199  0.00  0.00     0.163 HD
BRANCH  26  29
ATOM     29  CA  TYR d   1      -7.899   4.779   3.112  0.00  0.00     0.093 C 
ATOM     30  H29 TYR d   1      -8.994   4.717   3.195  0.00  0.00     0.088 H 
BRANCH  29  31
ATOM     31  N   TYR d   1      -7.434   5.879   3.950  0.00  0.00    -0.346 N 
ATOM     32  C   ARG d   1      -7.875   6.040   5.194  0.00  0.00     0.241 C 
ATOM     33  O   ARG d   1      -8.692   5.284   5.719  0.00  0.00    -0.271 OA
ATOM     34  H28 TYR d   1      -6.768   6.527   3.580  0.00  0.00     0.163 HD
BRANCH  32  35
ATOM     35  CA  ARG d   1      -7.310   7.233   5.960  0.00  0.00     0.089 C 
ATOM     36  H16 ARG d   1      -7.529   7.097   7.029  0.00  0.00     0.087 H 
BRANCH  35  37
ATOM     37  N   ARG d   1      -5.863   7.322   5.792  0.00  0.00    -0.346 N 
ATOM     38  C   ASP d   1      -5.097   7.943   6.684  0.00  0.00     0.241 C 
ATOM     39  O   ASP d   1      -5.547   8.475   7.697  0.00  0.00    -0.271 OA
ATOM     40  H15 ARG d   1      -5.438   6.907   4.988  0.00  0.00     0.163 HD
BRANCH  38  41
ATOM     41  CA  ASP d   1      -3.599   7.961   6.384  0.00  0.00     0.098 C 
ATOM     42  H12 ASP d   1      -3.202   6.947   6.539  0.00  0.00     0.088 H 
BRANCH  41  43
ATOM     43  N   ASP d   1      -3.350   8.347   4.999  0.00  0.00    -0.345 N 
ATOM     44  C   ASP d   1      -3.720   9.535   4.531  0.00  0.00     0.241 C 
ATOM     45  O   ASP d   1      -4.287  10.381   5.221  0.00  0.00    -0.271 OA
ATOM     46  H11 ASP d   1      -2.890   7.703   4.388  0.00  0.00     0.163 HD
BRANCH  44  47
ATOM     47  CA  ASP d   1      -3.399   9.810   3.065  0.00  0.00     0.098 C 
ATOM     48  H8  ASP d   1      -3.280   8.848   2.546  0.00  0.00     0.088 H 
BRANCH  47  49
ATOM     49  N   ASP d   1      -4.481  10.549   2.427  0.00  0.00    -0.345 N 
ATOM     50  C   ASP d   1      -4.854  10.298   1.175  0.00  0.00     0.249 C 
ATOM     51  O   ASP d   1      -4.319   9.436   0.478  0.00  0.00    -0.271 OA
ATOM     52  H7  ASP d   1      -4.955  11.262   2.943  0.00  0.00     0.163 HD
BRANCH  50  53
ATOM     53  CA  ASP d   1      -6.000  11.148   0.632  0.00  0.00     0.185 C 
ATOM     54  H4  ASP d   1      -6.901  10.939   1.228  0.00  0.00     0.100 H 
BRANCH  53  55
ATOM     55  N   ASP d   1      -5.694  12.567   0.743  0.00  0.00    -0.066 N 
ATOM     56  H1  ASP d   1      -6.464  13.106   0.379  0.00  0.00     0.275 HD
ATOM     57  H2  ASP d   1      -4.860  12.773   0.215  0.00  0.00     0.275 HD
ATOM     58  H3  ASP d   1      -5.546  12.804   1.712  0.00  0.00     0.275 HD
ENDBRANCH  53  55
BRANCH  53  59
ATOM     59  CB  ASP d   1      -6.283  10.778  -0.825  0.00  0.00     0.050 C 
ATOM     60  H5  ASP d   1      -7.203  11.288  -1.147  0.00  0.00     0.052 H 
ATOM     61  H6  ASP d   1      -6.425   9.689  -0.892  0.00  0.00     0.052 H 
BRANCH  59  62
ATOM     62  CG  ASP d   1      -5.154  11.179  -1.753  0.00  0.00     0.175 C 
ATOM     63  OD1 ASP d   1      -3.983  11.138  -1.318  0.00  0.00    -0.648 OA
ATOM     64  OD2 ASP d   1      -5.437  11.535  -2.915  0.00  0.00    -0.648 OA
ENDBRANCH  59  62
ENDBRANCH  53  59
ENDBRANCH  50  53
ENDBRANCH  47  49
BRANCH  47  65
ATOM     65  CB  ASP d   1      -2.088  10.591   2.956  0.00  0.00     0.043 C 
ATOM     66  H9  ASP d   1      -1.792  10.638   1.898  0.00  0.00     0.052 H 
ATOM     67  H10 ASP d   1      -1.313  10.062   3.530  0.00  0.00     0.052 H 
BRANCH  65  68
ATOM     68  CG  ASP d   1      -2.210  12.004   3.490  0.00  0.00     0.175 C 
ATOM     69  OD1 ASP d   1      -3.051  12.766   2.968  0.00  0.00    -0.648 OA
ATOM     70  OD2 ASP d   1      -1.466  12.349   4.432  0.00  0.00    -0.648 OA
ENDBRANCH  65  68
ENDBRANCH  47  65
ENDBRANCH  44  47
ENDBRANCH  41  43
BRANCH  41  71
ATOM     71  CB  ASP d   1      -2.877   8.918   7.338  0.00  0.00     0.043 C 
ATOM     72  H13 ASP d   1      -3.591   9.262   8.101  0.00  0.00     0.052 H 
ATOM     73  H14 ASP d   1      -2.511   9.781   6.763  0.00  0.00     0.052 H 
BRANCH  71  74
ATOM     74  CG  ASP d   1      -1.701   8.263   8.033  0.00  0.00     0.175 C 
ATOM     75  OD1 ASP d   1      -1.927   7.319   8.820  0.00  0.00    -0.648 OA
ATOM     76  OD2 ASP d   1      -0.552   8.691   7.792  0.00  0.00    -0.648 OA
ENDBRANCH  71  74
ENDBRANCH  41  71
ENDBRANCH  38  41
ENDBRANCH  35  37
BRANCH  35  77
ATOM     77  CB  ARG d   1      -7.980   8.523   5.484  0.00  0.00    -0.036 C 
ATOM     78  H17 ARG d   1      -7.898   8.574   4.388  0.00  0.00     0.036 H 
ATOM     79  H18 ARG d   1      -7.449   9.376   5.932  0.00  0.00     0.036 H 
BRANCH  77  80
ATOM     80  CG  ARG d   1      -9.450   8.619   5.861  0.00  0.00    -0.048 C 
ATOM     81  H19 ARG d   1      -9.841   7.606   6.037  0.00  0.00     0.035 H 
ATOM     82  H20 ARG d   1     -10.002   9.086   5.032  0.00  0.00     0.035 H 
BRANCH  80  83
ATOM     83  CD  ARG d   1      -9.650   9.450   7.118  0.00  0.00     0.009 C 
ATOM     84  H21 ARG d   1      -9.440  10.504   6.884  0.00  0.00     0.064 H 
ATOM     85  H22 ARG d   1      -8.951   9.099   7.891  0.00  0.00     0.064 H 
BRANCH  83  86
ATOM     86  NE  ARG d   1     -11.013   9.344   7.632  0.00  0.00    -0.227 N 
ATOM     87  CZ  ARG d   1     -11.366   9.672   8.873  0.00  0.00     0.665 C 
ATOM     88  NH1 ARG d   1     -10.458  10.124   9.732  0.00  0.00    -0.235 N 
ATOM     89  NH2 ARG d   1     -12.627   9.546   9.259  0.00  0.00    -0.235 N 
ATOM     90  H24 ARG d   1     -10.737  10.376  10.691  0.00  0.00     0.174 HD
ATOM     91  H25 ARG d   1      -9.476  10.222   9.439  0.00  0.00     0.174 HD
ATOM     92  H26 ARG d   1     -13.335   9.196   8.598  0.00  0.00     0.174 HD
ATOM     93  H27 ARG d   1     -12.899   9.798  10.220  0.00  0.00     0.174 HD
ATOM     94  H23 ARG d   1     -11.745   8.995   6.997  0.00  0.00     0.177 HD
ENDBRANCH  83  86
ENDBRANCH  80  83
ENDBRANCH  77  80
ENDBRANCH  35  77
ENDBRANCH  32  35
ENDBRANCH  29  31
BRANCH  29  95
ATOM     95  CB  TYR d   1      -7.533   5.040   1.650  0.00  0.00    -0.014 C 
ATOM     96  H30 TYR d   1      -7.759   4.134   1.068  0.00  0.00     0.043 H 
ATOM     97  H31 TYR d   1      -6.455   5.252   1.594  0.00  0.00     0.043 H 
BRANCH  95  98
ATOM     98  CG  TYR d   1      -8.281   6.202   1.035  0.00  0.00    -0.056 A 
ATOM     99  CD1 TYR d   1      -7.895   7.511   1.288  0.00  0.00    -0.074 A 
ATOM    100  CE1 TYR d   1      -8.576   8.577   0.729  0.00  0.00    -0.051 A 
ATOM    101  H32 TYR d   1      -7.046   7.701   1.934  0.00  0.00     0.084 H 
ATOM    102  CZ  TYR d   1      -9.657   8.339  -0.093  0.00  0.00     0.065 A 
ATOM    103  H34 TYR d   1      -8.262   9.594   0.936  0.00  0.00     0.087 H 
ATOM    104  CE2 TYR d   1     -10.058   7.048  -0.359  0.00  0.00    -0.051 A 
ATOM    105  CD2 TYR d   1      -9.373   5.988   0.204  0.00  0.00    -0.074 A 
ATOM    106  H35 TYR d   1     -10.907   6.864  -1.007  0.00  0.00     0.087 H 
ATOM    107  H33 TYR d   1      -9.693   4.974  -0.006  0.00  0.00     0.084 H 
BRANCH 102 108
ATOM    108  OH  TYR d   1     -10.336   9.396  -0.653  0.00  0.00    -0.361 OA
ATOM    109  H36 TYR d   1     -11.243   9.373  -0.372  0.00  0.00     0.217 HD
ENDBRANCH 102 108
ENDBRANCH  95  98
ENDBRANCH  29  95
ENDBRANCH  26  29
ENDBRANCH  23  25
BRANCH  23 110
ATOM    110  CB  LEU d   1      -4.026   2.646   5.126  0.00  0.00    -0.035 C 
ATOM    111  H39 LEU d   1      -4.110   2.837   6.206  0.00  0.00     0.037 H 
ATOM    112  H40 LEU d   1      -3.684   3.560   4.618  0.00  0.00     0.037 H 
BRANCH 110 113
ATOM    113  CG  LEU d   1      -2.966   1.562   4.917  0.00  0.00    -0.059 C 
ATOM    114  H41 LEU d   1      -3.479   0.602   4.755  0.00  0.00     0.038 H 
BRANCH 113 115
ATOM    115  CD1 LEU d   1      -2.124   1.869   3.690  0.00  0.00    -0.073 C 
ATOM    116  H42 LEU d   1      -1.369   1.080   3.557  0.00  0.00     0.028 H 
ATOM    117  H43 LEU d   1      -1.621   2.838   3.823  0.00  0.00     0.028 H 
ATOM    118  H44 LEU d   1      -2.772   1.911   2.802  0.00  0.00     0.028 H 
ENDBRANCH 113 115
BRANCH 113 119
ATOM    119  CD2 LEU d   1      -2.083   1.432   6.151  0.00  0.00    -0.073 C 
ATOM    120  H45 LEU d   1      -2.709   1.210   7.028  0.00  0.00     0.028 H 
ATOM    121  H46 LEU d   1      -1.542   2.376   6.316  0.00  0.00     0.028 H 
ATOM    122  H47 LEU d   1      -1.360   0.617   6.000  0.00  0.00     0.028 H 
ENDBRANCH 113 119
ENDBRANCH 110 113
ENDBRANCH  23 110
ENDBRANCH  20  23
ENDBRANCH  17  19
BRANCH  17 123
ATOM    123  CB  ARG d   1      -7.581   2.931   8.892  0.00  0.00    -0.036 C 
ATOM    124  H50 ARG d   1      -8.615   2.886   9.265  0.00  0.00     0.036 H 
ATOM    125  H51 ARG d   1      -7.395   3.918   8.444  0.00  0.00     0.036 H 
BRANCH 123 126
ATOM    126  CG  ARG d   1      -6.637   2.752  10.070  0.00  0.00    -0.048 C 
ATOM    127  H52 ARG d   1      -5.603   2.895   9.723  0.00  0.00     0.035 H 
ATOM    128  H53 ARG d   1      -6.753   1.733  10.469  0.00  0.00     0.035 H 
BRANCH 126 129
ATOM    129  CD  ARG d   1      -6.928   3.752  11.179  0.00  0.00     0.009 C 
ATOM    130  H54 ARG d   1      -7.494   4.596  10.757  0.00  0.00     0.064 H 
ATOM    131  H55 ARG d   1      -5.974   4.118  11.587  0.00  0.00     0.064 H 
BRANCH 129 132
ATOM    132  NE  ARG d   1      -7.707   3.155  12.263  0.00  0.00    -0.227 N 
ATOM    133  CZ  ARG d   1      -9.039   3.136  12.302  0.00  0.00     0.665 C 
ATOM    134  NH1 ARG d   1      -9.750   3.694  11.330  0.00  0.00    -0.235 N 
ATOM    135  NH2 ARG d   1      -9.661   2.562  13.322  0.00  0.00    -0.235 N 
ATOM    136  H57 ARG d   1     -10.779   3.675  11.368  0.00  0.00     0.174 HD
ATOM    137  H58 ARG d   1      -9.273   4.146  10.537  0.00  0.00     0.174 HD
ATOM    138  H59 ARG d   1      -9.115   2.127  14.079  0.00  0.00     0.174 HD
ATOM    139  H60 ARG d   1     -10.690   2.551  13.357  0.00  0.00     0.174 HD
ATOM    140  H56 ARG d   1      -7.194   2.722  13.045  0.00  0.00     0.177 HD
ENDBRANCH 129 132
ENDBRANCH 126 129
ENDBRANCH 123 126
ENDBRANCH  17 123
ENDBRANCH  14  17
ENDBRANCH  11  13
BRANCH  11 141
ATOM    141  CB  GLU d   1     -10.925   2.644   4.550  0.00  0.00    -0.029 C 
ATOM    142  H63 GLU d   1     -11.477   2.065   3.795  0.00  0.00     0.037 H 
ATOM    143  H64 GLU d   1      -9.983   3.010   4.115  0.00  0.00     0.037 H 
BRANCH 141 144
ATOM    144  CG  GLU d   1     -11.770   3.845   4.947  0.00  0.00     0.018 C 
ATOM    145  H65 GLU d   1     -12.024   4.413   4.040  0.00  0.00     0.049 H 
ATOM    146  H66 GLU d   1     -11.182   4.481   5.625  0.00  0.00     0.049 H 
BRANCH 144 147
ATOM    147  CD  GLU d   1     -13.054   3.447   5.646  0.00  0.00     0.172 C 
ATOM    148  OE1 GLU d   1     -13.957   2.912   4.969  0.00  0.00    -0.648 OA
ATOM    149  OE2 GLU d   1     -13.158   3.672   6.870  0.00  0.00    -0.648 OA
ENDBRANCH 144 147
ENDBRANCH 141 144
ENDBRANCH  11 141
ENDBRANCH   8  11
ENDBRANCH   5   7
BRANCH   5 150
ATOM    150  CB  ALA d   1      -8.727  -1.461   2.586  0.00  0.00    -0.049 C 
ATOM    151  H69 ALA d   1      -8.664  -2.491   2.205  0.00  0.00     0.030 H 
ATOM    152  H70 ALA d   1      -7.717  -1.097   2.828  0.00  0.00     0.030 H 
ATOM    153  H71 ALA d   1      -9.176  -0.813   1.819  0.00  0.00     0.030 H 
ENDBRANCH   5 150
ENDBRANCH   1   5
BRANCH   3 154
ATOM    154  CA  ILE d   1      -7.369  -2.727   6.646  0.00  0.00     0.092 C 
ATOM    155  H73 ILE d   1      -6.942  -3.625   6.176  0.00  0.00     0.088 H 
BRANCH 154 156
ATOM    156  C   ILE d   1      -8.391  -3.169   7.694  0.00  0.00     0.241 C 
ATOM    157  O   ILE d   1      -8.543  -4.362   7.966  0.00  0.00    -0.271 OA
ATOM    158  N   GLN d   1      -9.088  -2.203   8.280  0.00  0.00    -0.346 N 
ATOM    159  H83 GLN d   1      -8.921  -1.252   8.020  0.00  0.00     0.163 HD
BRANCH 158 160
ATOM    160  CA  GLN d   1     -10.091  -2.498   9.294  0.00  0.00     0.090 C 
ATOM    161  H84 GLN d   1      -9.625  -3.124  10.069  0.00  0.00     0.087 H 
BRANCH 160 162
ATOM    162  C   GLN d   1     -11.258  -3.267   8.692  0.00  0.00     0.241 C 
ATOM    163  O   GLN d   1     -11.867  -4.107   9.355  0.00  0.00    -0.271 OA
ATOM    164  N   GLU d   1     -11.561  -2.989   7.426  0.00  0.00    -0.346 N 
ATOM    165  H91 GLU d   1     -11.032  -2.297   6.935  0.00  0.00     0.163 HD
BRANCH 164 166
ATOM    166  CA  GLU d   1     -12.651  -3.677   6.743  0.00  0.00     0.090 C 
ATOM    167  H92 GLU d   1     -13.596  -3.426   7.247  0.00  0.00     0.087 H 
BRANCH 166 168
ATOM    168  C   GLU d   1     -12.441  -5.182   6.820  0.00  0.00     0.241 C 
ATOM    169  O   GLU d   1     -13.367  -5.941   7.105  0.00  0.00    -0.271 OA
ATOM    170  N   TYR d   1     -11.204  -5.600   6.590  0.00  0.00    -0.346 N 
ATOM    171  H97 TYR d   1     -10.495  -4.932   6.364  0.00  0.00     0.163 HD
BRANCH 170 172
ATOM    172  CA  TYR d   1     -10.857  -7.011   6.659  0.00  0.00     0.093 C 
ATOM    173  H98 TYR d   1     -11.607  -7.588   6.099  0.00  0.00     0.088 H 
BRANCH 172 174
ATOM    174  C   TYR d   1     -10.871  -7.463   8.109  0.00  0.00     0.241 C 
ATOM    175  O   TYR d   1     -11.258  -8.589   8.417  0.00  0.00    -0.271 OA
ATOM    176  N   ASP d   1     -10.469  -6.561   9.004  0.00  0.00    -0.345 N 
ATOM    177 6H10 ASP d   1     -10.165  -5.661   8.692  0.00  0.00     0.163 HD
BRANCH 176 178
ATOM    178  CA  ASP d   1     -10.464  -6.863  10.426  0.00  0.00     0.098 C 
ATOM    179 7H10 ASP d   1      -9.808  -7.728  10.603  0.00  0.00     0.088 H 
BRANCH 178 180
ATOM    180  C   ASP d   1     -11.876  -7.212  10.884  0.00  0.00     0.241 C 
ATOM    181  O   ASP d   1     -12.066  -7.998  11.812  0.00  0.00    -0.271 OA
ATOM    182  N   ASN d   1     -12.865  -6.627  10.211  0.00  0.00    -0.346 N 
ATOM    183 0H11 ASN d   1     -12.641  -5.999   9.466  0.00  0.00     0.163 HD
BRANCH 182 184
ATOM    184  CA  ASN d   1     -14.263  -6.877  10.530  0.00  0.00     0.097 C 
ATOM    185 1H11 ASN d   1     -14.361  -6.976  11.621  0.00  0.00     0.088 H 
BRANCH 184 186
ATOM    186  C   ASN d   1     -14.740  -8.170   9.878  0.00  0.00     0.241 C 
ATOM    187  O   ASN d   1     -15.541  -8.908  10.451  0.00  0.00    -0.271 OA
ATOM    188  N   ILE d   1     -14.241  -8.440   8.673  0.00  0.00    -0.346 N 
ATOM    189 6H11 ILE d   1     -13.593  -7.801   8.258  0.00  0.00     0.163 HD
BRANCH 188 190
ATOM    190  CA  ILE d   1     -14.618  -9.644   7.946  0.00  0.00     0.092 C 
ATOM    191 7H11 ILE d   1     -15.716  -9.700   7.922  0.00  0.00     0.088 H 
BRANCH 190 192
ATOM    192  C   ILE d   1     -14.084 -10.895   8.641  0.00  0.00     0.241 C 
ATOM    193  O   ILE d   1     -14.742 -11.935   8.659  0.00  0.00    -0.271 OA
ATOM    194  N   ALA d   1     -12.889 -10.784   9.210  0.00  0.00    -0.346 N 
ATOM    195 7H12 ALA d   1     -12.404  -9.911   9.160  0.00  0.00     0.163 HD
BRANCH 194 196
ATOM    196  CA  ALA d   1     -12.266 -11.905   9.907  0.00  0.00     0.086 C 
ATOM    197 8H12 ALA d   1     -11.251 -11.604  10.204  0.00  0.00     0.086 H 
BRANCH 196 198
ATOM    198  C   ALA d   1     -12.155 -13.127   9.001  0.00  0.00     0.240 C 
ATOM    199  O   ALA d   1     -12.315 -14.261   9.451  0.00  0.00    -0.271 OA
ATOM    200  N   LYS d   1     -11.880 -12.887   7.723  0.00  0.00    -0.345 N 
ATOM    201 2H13 LYS d   1     -11.759 -11.942   7.419  0.00  0.00     0.163 HD
BRANCH 200 202
ATOM    202  CA  LYS d   1     -11.750 -13.969   6.754  0.00  0.00     0.096 C 
ATOM    203 3H13 LYS d   1     -12.370 -14.814   7.090  0.00  0.00     0.089 H 
BRANCH 202 204
ATOM    204  C   LYS d   1     -10.302 -14.440   6.655  0.00  0.00     0.196 C 
ATOM    205  O   LYS d   1     -10.051 -15.429   5.933  0.00  0.00    -0.646 OA
ATOM    206  OXT LYS d   1      -9.432 -13.816   7.297  0.00  0.00    -0.646 OA
ENDBRANCH 202 204
BRANCH 202 207
ATOM    207  CB  LYS d   1     -12.248 -13.514   5.381  0.00  0.00    -0.037 C 
ATOM    208 4H13 LYS d   1     -11.628 -13.994   4.609  0.00  0.00     0.036 H 
ATOM    209 5H13 LYS d   1     -12.135 -12.422   5.314  0.00  0.00     0.036 H 
BRANCH 207 210
ATOM    210  CG  LYS d   1     -13.703 -13.864   5.115  0.00  0.00    -0.061 C 
ATOM    211 6H13 LYS d   1     -14.094 -13.195   4.334  0.00  0.00     0.033 H 
ATOM    212 7H13 LYS d   1     -14.280 -13.723   6.041  0.00  0.00     0.033 H 
BRANCH 210 213
ATOM    213  CD  LYS d   1     -13.855 -15.305   4.653  0.00  0.00    -0.043 C 
ATOM    214 8H13 LYS d   1     -12.877 -15.676   4.311  0.00  0.00     0.035 H 
ATOM    215 9H13 LYS d   1     -14.572 -15.339   3.819  0.00  0.00     0.035 H 
BRANCH 213 216
ATOM    216  CE  LYS d   1     -14.358 -16.200   5.773  0.00  0.00     0.080 C 
ATOM    217 0H14 LYS d   1     -15.279 -15.766   6.189  0.00  0.00     0.075 H 
ATOM    218 1H14 LYS d   1     -13.590 -16.252   6.559  0.00  0.00     0.075 H 
BRANCH 216 219
ATOM    219  NZ  LYS d   1     -14.650 -17.579   5.294  0.00  0.00    -0.079 N 
ATOM    220 2H14 LYS d   1     -14.980 -18.139   6.064  0.00  0.00     0.274 HD
ATOM    221 3H14 LYS d   1     -13.810 -17.988   4.916  0.00  0.00     0.274 HD
ATOM    222 4H14 LYS d   1     -15.358 -17.543   4.577  0.00  0.00     0.274 HD
ENDBRANCH 216 219
ENDBRANCH 213 216
ENDBRANCH 210 213
ENDBRANCH 207 210
ENDBRANCH 202 207
ENDBRANCH 200 202
ENDBRANCH 196 198
BRANCH 196 223
ATOM    223  CB  ALA d   1     -13.051 -12.247  11.163  0.00  0.00    -0.049 C 
ATOM    224 9H12 ALA d   1     -12.570 -13.092  11.677  0.00  0.00     0.030 H 
ATOM    225 0H13 ALA d   1     -14.080 -12.522  10.889  0.00  0.00     0.030 H 
ATOM    226 1H13 ALA d   1     -13.071 -11.374  11.832  0.00  0.00     0.030 H 
ENDBRANCH 196 223
ENDBRANCH 194 196
ENDBRANCH 190 192
BRANCH 190 227
ATOM    227  CB  ILE d   1     -14.099  -9.605   6.494  0.00  0.00    -0.030 C 
ATOM    228 8H11 ILE d   1     -13.000  -9.565   6.517  0.00  0.00     0.043 H 
BRANCH 227 229
ATOM    229  CG1 ILE d   1     -14.616  -8.354   5.782  0.00  0.00    -0.063 C 
ATOM    230 9H11 ILE d   1     -14.777  -7.567   6.534  0.00  0.00     0.033 H 
ATOM    231 0H12 ILE d   1     -15.572  -8.600   5.297  0.00  0.00     0.033 H 
BRANCH 229 232
ATOM    232  CD1 ILE d   1     -13.667  -7.823   4.729  0.00  0.00    -0.076 C 
ATOM    233 4H12 ILE d   1     -14.102  -6.928   4.261  0.00  0.00     0.027 H 
ATOM    234 5H12 ILE d   1     -13.502  -8.594   3.962  0.00  0.00     0.027 H 
ATOM    235 6H12 ILE d   1     -12.707  -7.562   5.199  0.00  0.00     0.027 H 
ENDBRANCH 229 232
ENDBRANCH 227 229
BRANCH 227 236
ATOM    236  CG2 ILE d   1     -14.520 -10.859   5.741  0.00  0.00    -0.071 C 
ATOM    237 1H12 ILE d   1     -14.140 -11.747   6.267  0.00  0.00     0.028 H 
ATOM    238 2H12 ILE d   1     -14.106 -10.831   4.722  0.00  0.00     0.028 H 
ATOM    239 3H12 ILE d   1     -15.618 -10.905   5.690  0.00  0.00     0.028 H 
ENDBRANCH 227 236
ENDBRANCH 190 227
ENDBRANCH 188 190
ENDBRANCH 184 186
BRANCH 184 240
ATOM    240  CB  ASN d   1     -15.133  -5.708  10.064  0.00  0.00     0.036 C 
ATOM    241 2H11 ASN d   1     -16.188  -5.958  10.248  0.00  0.00     0.051 H 
ATOM    242 3H11 ASN d   1     -14.974  -5.558   8.986  0.00  0.00     0.051 H 
BRANCH 240 243
ATOM    243  CG  ASN d   1     -14.805  -4.417  10.789  0.00  0.00     0.217 C 
ATOM    244  OD1 ASN d   1     -14.217  -3.502  10.214  0.00  0.00    -0.274 OA
ATOM    245  ND2 ASN d   1     -15.185  -4.338  12.059  0.00  0.00    -0.370 N 
ATOM    246 4H11 ASN d   1     -14.995  -3.510  12.587  0.00  0.00     0.159 HD
ATOM    247 5H11 ASN d   1     -15.661  -5.106  12.487  0.00  0.00     0.159 HD
ENDBRANCH 240 243
ENDBRANCH 184 240
ENDBRANCH 182 184
ENDBRANCH 178 180
BRANCH 178 248
ATOM    248  CB  ASP d   1      -9.932  -5.671  11.225  0.00  0.00     0.043 C 
ATOM    249 8H10 ASP d   1     -10.761  -4.974  11.414  0.00  0.00     0.052 H 
ATOM    250 9H10 ASP d   1      -9.156  -5.166  10.631  0.00  0.00     0.052 H 
BRANCH 248 251
ATOM    251  CG  ASP d   1      -9.334  -6.087  12.554  0.00  0.00     0.175 C 
ATOM    252  OD1 ASP d   1      -8.644  -7.127  12.596  0.00  0.00    -0.648 OA
ATOM    253  OD2 ASP d   1      -9.555  -5.372  13.555  0.00  0.00    -0.648 OA
ENDBRANCH 248 251
ENDBRANCH 178 248
ENDBRANCH 176 178
ENDBRANCH 172 174
BRANCH 172 254
ATOM    254  CB  TYR d   1      -9.484  -7.262   6.036  0.00  0.00    -0.014 C 
ATOM    255  H99 TYR d   1      -8.720  -6.810   6.686  0.00  0.00     0.043 H 
ATOM    256 0H10 TYR d   1      -9.457  -6.779   5.048  0.00  0.00     0.043 H 
BRANCH 254 257
ATOM    257  CG  TYR d   1      -9.155  -8.728   5.860  0.00  0.00    -0.056 A 
ATOM    258  CD1 TYR d   1      -9.909  -9.533   5.016  0.00  0.00    -0.074 A 
ATOM    259  CE1 TYR d   1      -9.612 -10.872   4.853  0.00  0.00    -0.051 A 
ATOM    260 1H10 TYR d   1     -10.745  -9.103   4.476  0.00  0.00     0.084 H 
ATOM    261  CZ  TYR d   1      -8.549 -11.424   5.537  0.00  0.00     0.065 A 
ATOM    262 3H10 TYR d   1     -10.211 -11.486   4.191  0.00  0.00     0.087 H 
ATOM    263  CE2 TYR d   1      -7.786 -10.645   6.381  0.00  0.00    -0.051 A 
ATOM    264  CD2 TYR d   1      -8.091  -9.306   6.539  0.00  0.00    -0.074 A 
ATOM    265 4H10 TYR d   1      -6.951 -11.081   6.918  0.00  0.00     0.087 H 
ATOM    266 2H10 TYR d   1      -7.489  -8.697   7.204  0.00  0.00     0.084 H 
BRANCH 261 267
ATOM    267  OH  TYR d   1      -8.249 -12.757   5.377  0.00  0.00    -0.361 OA
ATOM    268 5H10 TYR d   1      -8.310 -13.197   6.217  0.00  0.00     0.217 HD
ENDBRANCH 261 267
ENDBRANCH 254 257
ENDBRANCH 172 254
ENDBRANCH 170 172
ENDBRANCH 166 168
BRANCH 166 269
ATOM    269  CB  GLU d   1     -12.744  -3.229   5.285  0.00  0.00    -0.029 C 
ATOM    270  H93 GLU d   1     -11.796  -3.474   4.785  0.00  0.00     0.037 H 
ATOM    271  H94 GLU d   1     -12.898  -2.140   5.265  0.00  0.00     0.037 H 
BRANCH 269 272
ATOM    272  CG  GLU d   1     -13.877  -3.889   4.517  0.00  0.00     0.018 C 
ATOM    273  H95 GLU d   1     -14.166  -4.813   5.040  0.00  0.00     0.049 H 
ATOM    274  H96 GLU d   1     -13.521  -4.136   3.506  0.00  0.00     0.049 H 
BRANCH 272 275
ATOM    275  CD  GLU d   1     -15.096  -2.997   4.398  0.00  0.00     0.172 C 
ATOM    276  OE1 GLU d   1     -14.929  -1.759   4.394  0.00  0.00    -0.648 OA
ATOM    277  OE2 GLU d   1     -16.220  -3.536   4.308  0.00  0.00    -0.648 OA
ENDBRANCH 272 275
ENDBRANCH 269 272
ENDBRANCH 166 269
ENDBRANCH 164 166
ENDBRANCH 160 162
BRANCH 160 278
ATOM    278  CB  GLN d   1     -10.589  -1.209   9.948  0.00  0.00    -0.030 C 
ATOM    279  H85 GLN d   1     -11.486  -0.869   9.409  0.00  0.00     0.037 H 
ATOM    280  H86 GLN d   1      -9.799  -0.448   9.863  0.00  0.00     0.037 H 
BRANCH 278 281
ATOM    281  CG  GLN d   1     -10.944  -1.371  11.418  0.00  0.00     0.011 C 
ATOM    282  H87 GLN d   1     -10.051  -1.153  12.022  0.00  0.00     0.047 H 
ATOM    283  H88 GLN d   1     -11.259  -2.410  11.592  0.00  0.00     0.047 H 
BRANCH 281 284
ATOM    284  CD  GLN d   1     -12.062  -0.446  11.853  0.00  0.00     0.215 C 
ATOM    285  OE1 GLN d   1     -11.997   0.767  11.653  0.00  0.00    -0.274 OA
ATOM    286  NE2 GLN d   1     -13.100  -1.015  12.456  0.00  0.00    -0.370 N 
ATOM    287  H89 GLN d   1     -13.868  -0.454  12.765  0.00  0.00     0.159 HD
ATOM    288  H90 GLN d   1     -13.114  -2.004  12.601  0.00  0.00     0.159 HD
ENDBRANCH 281 284
ENDBRANCH 278 281
ENDBRANCH 160 278
ENDBRANCH 158 160
ENDBRANCH 154 156
BRANCH 154 289
ATOM    289  CB  ILE d   1      -6.225  -1.940   7.328  0.00  0.00    -0.030 C 
ATOM    290  H74 ILE d   1      -6.587  -0.925   7.547  0.00  0.00     0.043 H 
BRANCH 289 291
ATOM    291  CG1 ILE d   1      -5.022  -1.834   6.389  0.00  0.00    -0.063 C 
ATOM    292  H75 ILE d   1      -5.370  -1.449   5.419  0.00  0.00     0.033 H 
ATOM    293  H76 ILE d   1      -4.597  -2.839   6.253  0.00  0.00     0.033 H 
BRANCH 291 294
ATOM    294  CD1 ILE d   1      -3.933  -0.920   6.904  0.00  0.00    -0.076 C 
ATOM    295  H80 ILE d   1      -3.105  -0.893   6.181  0.00  0.00     0.027 H 
ATOM    296  H81 ILE d   1      -3.564  -1.296   7.870  0.00  0.00     0.027 H 
ATOM    297  H82 ILE d   1      -4.338   0.094   7.036  0.00  0.00     0.027 H 
ENDBRANCH 291 294
ENDBRANCH 289 291
BRANCH 289 298
ATOM    298  CG2 ILE d   1      -5.811  -2.594   8.641  0.00  0.00    -0.071 C 
ATOM    299  H77 ILE d   1      -6.684  -2.664   9.307  0.00  0.00     0.028 H 
ATOM    300  H78 ILE d   1      -5.030  -1.987   9.123  0.00  0.00     0.028 H 
ATOM    301  H79 ILE d   1      -5.420  -3.603   8.441  0.00  0.00     0.028 H 
ENDBRANCH 289 298
ENDBRANCH 154 289
ENDBRANCH   3 154
TORSDOF 88
