REMARK  10 active torsions:
REMARK  status: ('A' for Active; 'I' for Inactive)
REMARK    1  A    between atoms: C2_2  and  CM2_3 
REMARK    2  A    between atoms: C9_13  and  C6_9 
REMARK    3  A    between atoms: N10_14  and  C9_13 
REMARK    4  A    between atoms: N10_14  and  CP1_32 
REMARK    5  A    between atoms: C11_15  and  C_20 
REMARK       I    between atoms: C_20  and  N_22 
REMARK    6  A    between atoms: N_22  and  CA_23 
REMARK    7  A    between atoms: CA_23  and  CB_24 
REMARK    8  A    between atoms: CA_23  and  CT_29 
REMARK    9  A    between atoms: CB_24  and  CG_25 
REMARK   10  A    between atoms: CG_25  and  CD_26 
ROOT
ATOM      1  N10 D16 d   1      16.993  13.902  32.800  0.00  0.00    -0.375 N 
ATOM      2  C11 D16 d   1      14.471  13.314  35.560  0.00  0.00     0.074 A 
ATOM      3  S13 D16 d   1      14.557  13.329  33.869  0.00  0.00    -0.067 SA
ATOM      4  C14 D16 d   1      16.246  13.612  33.880  0.00  0.00     0.072 A 
ATOM      5  C15 D16 d   1      16.703  13.711  35.182  0.00  0.00    -0.049 A 
ATOM      6  C16 D16 d   1      15.710  13.542  36.121  0.00  0.00    -0.058 A 
ATOM      7  H10 D16 d   1      17.744  13.903  35.439  0.00  0.00     0.087 H 
ATOM      8  H11 D16 d   1      15.885  13.584  37.195  0.00  0.00     0.086 H 
ENDROOT
BRANCH   1   9
ATOM      9  C9  D16 d   1      16.425  14.113  31.449  0.00  0.00     0.019 C 
ATOM     10  H8  D16 d   1      17.256  14.072  30.730  0.00  0.00     0.071 H 
ATOM     11  H9  D16 d   1      15.727  13.287  31.250  0.00  0.00     0.071 H 
BRANCH   9  12
ATOM     12  C6  D16 d   1      15.688  15.392  31.215  0.00  0.00    -0.039 A 
ATOM     13  C5  D16 d   1      15.494  16.371  32.221  0.00  0.00    -0.059 A 
ATOM     14  C4A D16 d   1      14.648  17.474  31.968  0.00  0.00     0.047 A 
ATOM     15  H5  D16 d   1      15.992  16.274  33.179  0.00  0.00     0.086 H 
ATOM     16  C4  D16 d   1      14.403  18.472  32.915  0.00  0.00     0.192 C 
ATOM     17  C8A D16 d   1      13.984  17.603  30.727  0.00  0.00     0.073 A 
ATOM     18  N3  D16 d   1      13.443  19.386  32.711  0.00  0.00    -0.322 N 
ATOM     19  O4  D16 d   1      15.167  18.559  34.048  0.00  0.00    -0.171 OA
ATOM     20  C2  D16 d   1      12.801  19.464  31.535  0.00  0.00     0.102 C 
ATOM     21  H1  D16 d   1      13.202  20.019  33.447  0.00  0.00     0.169 HD
ATOM     22  N1  D16 d   1      13.094  18.602  30.536  0.00  0.00    -0.235 NA
ATOM     23  C8  D16 d   1      14.217  16.645  29.729  0.00  0.00    -0.054 A 
ATOM     24  C7  D16 d   1      15.060  15.557  29.971  0.00  0.00    -0.073 A 
ATOM     25  H7  D16 d   1      13.739  16.750  28.762  0.00  0.00     0.087 H 
ATOM     26  H6  D16 d   1      15.231  14.829  29.186  0.00  0.00     0.084 H 
BRANCH  20  27
ATOM     27  CM2 D16 d   1      11.802  20.519  31.357  0.00  0.00    -0.021 C 
ATOM     28  H2  D16 d   1      11.717  21.104  32.285  0.00  0.00     0.037 H 
ATOM     29  H3  D16 d   1      10.828  20.066  31.119  0.00  0.00     0.037 H 
ATOM     30  H4  D16 d   1      12.110  21.180  30.533  0.00  0.00     0.037 H 
ENDBRANCH  20  27
ENDBRANCH   9  12
ENDBRANCH   1   9
BRANCH   1  31
ATOM     31  CP1 D16 d   1      18.442  14.000  32.935  0.00  0.00    -0.018 C 
ATOM     32  H18 D16 d   1      18.725  13.823  33.983  0.00  0.00     0.056 H 
ATOM     33  H19 D16 d   1      18.771  15.004  32.631  0.00  0.00     0.056 H 
ATOM     34  H20 D16 d   1      18.922  13.247  32.293  0.00  0.00     0.056 H 
ENDBRANCH   1  31
BRANCH   2  35
ATOM     35  C   D16 d   1      13.329  12.847  36.317  0.00  0.00     0.259 C 
ATOM     36  O   D16 d   1      12.259  12.645  35.739  0.00  0.00    -0.267 OA
ATOM     37  N   D16 d   1      13.474  12.649  37.623  0.00  0.00    -0.342 N 
ATOM     38  H12 D16 d   1      14.331  12.940  38.049  0.00  0.00     0.163 HD
BRANCH  37  39
ATOM     39  CA  D16 d   1      12.452  12.028  38.483  0.00  0.00     0.097 C 
ATOM     40  H13 D16 d   1      11.453  12.141  38.037  0.00  0.00     0.089 H 
BRANCH  39  41
ATOM     41  CB  D16 d   1      12.721  10.567  38.818  0.00  0.00    -0.028 C 
ATOM     42  H14 D16 d   1      11.829  10.208  39.352  0.00  0.00     0.037 H 
ATOM     43  H15 D16 d   1      13.583  10.565  39.501  0.00  0.00     0.037 H 
BRANCH  41  44
ATOM     44  CG  D16 d   1      13.020   9.535  37.770  0.00  0.00     0.018 C 
ATOM     45  H16 D16 d   1      13.798   9.910  37.089  0.00  0.00     0.049 H 
ATOM     46  H17 D16 d   1      12.108   9.310  37.197  0.00  0.00     0.049 H 
BRANCH  44  47
ATOM     47  CD  D16 d   1      13.512   8.275  38.473  0.00  0.00     0.172 C 
ATOM     48  OE1 D16 d   1      12.698   7.515  38.997  0.00  0.00    -0.648 OA
ATOM     49  OE2 D16 d   1      14.722   8.069  38.580  0.00  0.00    -0.648 OA
ENDBRANCH  44  47
ENDBRANCH  41  44
ENDBRANCH  39  41
BRANCH  39  50
ATOM     50  CT  D16 d   1      12.584  12.766  39.812  0.00  0.00     0.196 C 
ATOM     51  O1  D16 d   1      13.713  13.068  40.223  0.00  0.00    -0.646 OA
ATOM     52  O2  D16 d   1      11.565  13.029  40.447  0.00  0.00    -0.646 OA
ENDBRANCH  39  50
ENDBRANCH  37  39
ENDBRANCH   2  35
TORSDOF 10
