REMARK  12 active torsions:
REMARK  status: ('A' for Active; 'I' for Inactive)
REMARK    1  A    between atoms: C3_2  and  O1_1 
REMARK    2  A    between atoms: C6_3  and  O7_4 
REMARK    3  A    between atoms: C9_5  and  O10_6 
REMARK    4  A    between atoms: C15_9  and  C14_8 
REMARK    5  A    between atoms: C24_12  and  O02_23 
REMARK    6  A    between atoms: C29_14  and  O03_24 
REMARK    7  A    between atoms: O35_26  and  C33_16 
REMARK    8  A    between atoms: C36_17  and  C38_18 
REMARK    9  A    between atoms: C36_17  and  O35_26 
REMARK   10  A    between atoms: C43_28  and  O44_29 
REMARK   11  A    between atoms: C46_30  and  O47_31 
REMARK   12  A    between atoms: C49_32  and  O50_33 
ROOT
ATOM      1  C15 KDH d   1       8.719  10.612  -6.366  0.00  0.00     0.096 C 
ATOM      2  C20 KDH d   1       9.945   9.810  -4.326  0.00  0.00     0.081 C 
ATOM      3  C21 KDH d   1      10.313   8.717  -3.459  0.00  0.00    -0.018 C 
ATOM      4  C24 KDH d   1      11.025   8.988  -2.241  0.00  0.00     0.071 C 
ATOM      5  C26 KDH d   1      11.317  10.337  -1.839  0.00  0.00    -0.018 C 
ATOM      6  C29 KDH d   1      10.914  11.440  -2.687  0.00  0.00     0.077 C 
ATOM      7  C31 KDH d   1      10.167  11.192  -3.898  0.00  0.00     0.011 C 
ATOM      8  C33 KDH d   1       9.439  11.981  -6.199  0.00  0.00     0.081 C 
ATOM      9  C01 KDH d   1       9.629  12.273  -4.676  0.00  0.00    -0.008 C 
ATOM     10  O01 KDH d   1       9.389   9.543  -5.573  0.00  0.00    -0.338 OA
ATOM     11  H   KDH d   1       7.720  10.721  -5.944  0.00  0.00     0.096 H 
ATOM     12  H   KDH d   1      10.053   7.693  -3.726  0.00  0.00     0.092 H 
ATOM     13  H   KDH d   1      11.839  10.529  -0.901  0.00  0.00     0.092 H 
ATOM     14  H   KDH d   1       8.820  12.759  -6.646  0.00  0.00     0.089 H 
ATOM     15  H   KDH d   1      10.346  13.091  -4.605  0.00  0.00     0.044 H 
ATOM     16  H   KDH d   1       8.637  12.479  -4.275  0.00  0.00     0.044 H 
ENDROOT
BRANCH   8  17
ATOM     17  O35 KDH d   1      10.710  12.011  -6.896  0.00  0.00    -0.309 OA
BRANCH  17  18
ATOM     18  C36 KDH d   1      10.685  12.527  -8.165  0.00  0.00     0.294 C 
ATOM     19  O37 KDH d   1       9.822  13.307  -8.588  0.00  0.00    -0.259 OA
BRANCH  18  20
ATOM     20  C38 KDH d   1      11.728  12.110  -8.989  0.00  0.00     0.045 A 
ATOM     21  C39 KDH d   1      12.201  12.995 -10.038  0.00  0.00    -0.032 A 
ATOM     22  C49 KDH d   1      13.270  12.566 -10.903  0.00  0.00     0.102 A 
ATOM     23  H   KDH d   1      11.750  13.978 -10.170  0.00  0.00     0.089 H 
ATOM     24  C46 KDH d   1      13.856  11.252 -10.719  0.00  0.00     0.132 A 
ATOM     25  C43 KDH d   1      13.389  10.379  -9.669  0.00  0.00     0.102 A 
ATOM     26  C41 KDH d   1      12.327  10.812  -8.797  0.00  0.00    -0.032 A 
ATOM     27  H   KDH d   1      11.978  10.161  -7.995  0.00  0.00     0.089 H 
BRANCH  22  28
ATOM     28  O50 KDH d   1      13.752  13.369 -11.898  0.00  0.00    -0.358 OA
ATOM     29  H   KDH d   1      13.271  14.200 -11.898  0.00  0.00     0.217 HD
ENDBRANCH  22  28
BRANCH  24  30
ATOM     30  O47 KDH d   1      14.857  10.843 -11.549  0.00  0.00    -0.356 OA
ATOM     31  H   KDH d   1      15.046  11.536 -12.186  0.00  0.00     0.218 HD
ENDBRANCH  24  30
BRANCH  25  32
ATOM     32  O44 KDH d   1      13.974   9.149  -9.527  0.00  0.00    -0.358 OA
ATOM     33  H   KDH d   1      14.656   9.041 -10.194  0.00  0.00     0.217 HD
ENDBRANCH  25  32
ENDBRANCH  18  20
ENDBRANCH  17  18
ENDBRANCH   8  17
BRANCH   1  34
ATOM     34  C14 KDH d   1       8.491  10.269  -7.706  0.00  0.00    -0.021 A 
ATOM     35  C12 KDH d   1       7.407  10.940  -8.390  0.00  0.00    -0.039 A 
ATOM     36  C9  KDH d   1       7.112  10.605  -9.764  0.00  0.00     0.102 A 
ATOM     37  H   KDH d   1       6.816  11.695  -7.871  0.00  0.00     0.088 H 
ATOM     38  C6  KDH d   1       7.912   9.610 -10.446  0.00  0.00     0.132 A 
ATOM     39  C3  KDH d   1       8.999   8.949  -9.774  0.00  0.00     0.102 A 
ATOM     40  C4  KDH d   1       9.299   9.278  -8.401  0.00  0.00    -0.039 A 
ATOM     41  H   KDH d   1      10.126   8.787  -7.888  0.00  0.00     0.088 H 
BRANCH  36  42
ATOM     42  O10 KDH d   1       6.091  11.210 -10.436  0.00  0.00    -0.358 OA
ATOM     43  H   KDH d   1       5.657  11.840  -9.856  0.00  0.00     0.217 HD
ENDBRANCH  36  42
BRANCH  38  44
ATOM     44  O7  KDH d   1       7.629   9.295 -11.747  0.00  0.00    -0.356 OA
ATOM     45  H   KDH d   1       6.883   9.819 -12.047  0.00  0.00     0.218 HD
ENDBRANCH  38  44
BRANCH  39  46
ATOM     46  O1  KDH d   1       9.729   8.020 -10.452  0.00  0.00    -0.358 OA
ATOM     47  H   KDH d   1      10.413   7.670  -9.877  0.00  0.00     0.217 HD
ENDBRANCH  39  46
ENDBRANCH   1  34
BRANCH   6  48
ATOM     48  O03 KDH d   1      11.242  12.715  -2.336  0.00  0.00    -0.360 OA
ATOM     49  H   KDH d   1      11.734  12.702  -1.512  0.00  0.00     0.217 HD
ENDBRANCH   6  48
BRANCH   4  50
ATOM     50  O02 KDH d   1      11.431   7.951  -1.450  0.00  0.00    -0.361 OA
ATOM     51  H   KDH d   1      11.164   7.121  -1.851  0.00  0.00     0.217 HD
ENDBRANCH   4  50
TORSDOF 12
