REMARK WARNING: 32 MAX_TORS EXCEEDED!!!
REMARK  51 active torsions:
REMARK  status: ('A' for Active; 'I' for Inactive)
REMARK    1  A    between atoms: N_1  and  CA_2 
REMARK    2  A    between atoms: CA_2  and  C_3 
REMARK    3  A    between atoms: CA_2  and  CB_5 
REMARK       I    between atoms: C_3  and  N_6 
REMARK    4  A    between atoms: N_6  and  CA_7 
REMARK    5  A    between atoms: CA_7  and  C_8 
REMARK    6  A    between atoms: CA_7  and  CB_10 
REMARK       I    between atoms: C_8  and  N_17 
REMARK    7  A    between atoms: CB_10  and  CG_11 
REMARK    8  A    between atoms: CG_11  and  CD_12 
REMARK    9  A    between atoms: CD_12  and  NE_13 
REMARK       I    between atoms: NE_13  and  CZ_14 
REMARK       I    between atoms: CZ_14  and  NH1_15 
REMARK       I    between atoms: CZ_14  and  NH2_16 
REMARK   10  A    between atoms: N_17  and  CA_18 
REMARK   11  A    between atoms: CA_18  and  C_19 
REMARK   12  A    between atoms: CA_18  and  CB_21 
REMARK       I    between atoms: C_19  and  N_24 
REMARK   13  A    between atoms: CB_21  and  OG1_22 
REMARK   14  A    between atoms: CB_21  and  CG2_23 
REMARK   15  A    between atoms: N_24  and  CA_25 
REMARK   16  A    between atoms: CA_25  and  C_26 
REMARK   17  A    between atoms: CA_25  and  CB_28 
REMARK       I    between atoms: C_26  and  N_33 
REMARK   18  A    between atoms: CB_28  and  CG_29 
REMARK   19  A    between atoms: CG_29  and  CD_30 
REMARK   20  A    between atoms: CD_30  and  CE_31 
REMARK   21  A    between atoms: CE_31  and  NZ_32 
REMARK   22  A    between atoms: N_33  and  CA_34 
REMARK   23  A    between atoms: CA_34  and  C_35 
REMARK   24  A    between atoms: CA_34  and  CB_37 
REMARK       I    between atoms: C_35  and  N_42 
REMARK   25  A    between atoms: CB_37  and  CG_38 
REMARK   26  A    between atoms: CG_38  and  CD_39 
REMARK       I    between atoms: CD_39  and  NE2_41 
REMARK   27  A    between atoms: N_42  and  CA_43 
REMARK   28  A    between atoms: CA_43  and  C_44 
REMARK   29  A    between atoms: CA_43  and  CB_46 
REMARK       I    between atoms: C_44  and  N_49 
REMARK   30  A    between atoms: CB_46  and  OG1_47 
REMARK   31  A    between atoms: CB_46  and  CG2_48 
REMARK   32  A    between atoms: N_49  and  CA_50 
REMARK   33  A    between atoms: CA_50  and  C_51 
REMARK   34  A    between atoms: CA_50  and  CB_53 
REMARK       I    between atoms: C_51  and  N_54 
REMARK   35  A    between atoms: N_54  and  CA_55 
REMARK   36  A    between atoms: CA_55  and  C_56 
REMARK   37  A    between atoms: CA_55  and  CB_58 
REMARK       I    between atoms: C_56  and  N_65 
REMARK   38  A    between atoms: CB_58  and  CG_59 
REMARK   39  A    between atoms: CG_59  and  CD_60 
REMARK   40  A    between atoms: CD_60  and  NE_61 
REMARK       I    between atoms: NE_61  and  CZ_62 
REMARK       I    between atoms: CZ_62  and  NH1_63 
REMARK   41  A    between atoms: N_65  and  CA_66 
REMARK   42  A    between atoms: CA_66  and  C_67 
REMARK   43  A    between atoms: CA_66  and  CB_69 
REMARK       I    between atoms: C_67  and  N_74 
REMARK   44  A    between atoms: CB_69  and  CG_70 
REMARK   45  A    between atoms: CG_70  and  CD_71 
REMARK   46  A    between atoms: CD_71  and  CE_72 
REMARK   47  A    between atoms: CE_72  and  NZ_73 
REMARK   48  A    between atoms: N_74  and  CA_75 
REMARK   49  A    between atoms: CA_75  and  C_76 
REMARK   50  A    between atoms: CA_75  and  CB_78 
REMARK   51  A    between atoms: CB_78  and  OG_79 
ROOT
ATOM      1  CA  GLN d   1      13.024  -0.256   5.483  0.00  0.00     0.090 C 
ATOM      2  H42 GLN d   1      12.694   0.625   4.912  0.00  0.00     0.087 H 
ENDROOT
BRANCH   1   3
ATOM      3  N   GLN d   1      11.927  -1.208   5.529  0.00  0.00    -0.346 N 
ATOM      4  C   LYS d   1      10.707  -0.871   5.151  0.00  0.00     0.241 C 
ATOM      5  O   LYS d   1      10.404   0.273   4.823  0.00  0.00    -0.271 OA
ATOM      6  H41 GLN d   1      12.099  -2.138   5.854  0.00  0.00     0.163 HD
BRANCH   4   7
ATOM      7  CA  LYS d   1       9.666  -1.978   5.141  0.00  0.00     0.089 C 
ATOM      8  H29 LYS d   1       9.899  -2.710   5.928  0.00  0.00     0.087 H 
BRANCH   7   9
ATOM      9  N   LYS d   1       8.352  -1.406   5.396  0.00  0.00    -0.346 N 
ATOM     10  C   THR d   1       7.519  -1.902   6.295  0.00  0.00     0.243 C 
ATOM     11  O   THR d   1       7.776  -2.890   6.987  0.00  0.00    -0.271 OA
ATOM     12  H28 LYS d   1       8.068  -0.605   4.870  0.00  0.00     0.163 HD
BRANCH  10  13
ATOM     13  CA  THR d   1       6.186  -1.166   6.436  0.00  0.00     0.113 C 
ATOM     14  H22 THR d   1       5.988  -0.617   5.503  0.00  0.00     0.091 H 
BRANCH  13  15
ATOM     15  N   THR d   1       5.095  -2.090   6.666  0.00  0.00    -0.344 N 
ATOM     16  C   ARG d   1       4.588  -2.827   5.700  0.00  0.00     0.241 C 
ATOM     17  O   ARG d   1       5.046  -2.841   4.558  0.00  0.00    -0.271 OA
ATOM     18  H21 THR d   1       4.715  -2.171   7.587  0.00  0.00     0.163 HD
BRANCH  16  19
ATOM     19  CA  ARG d   1       3.357  -3.647   6.074  0.00  0.00     0.089 C 
ATOM     20  H9  ARG d   1       3.579  -4.228   6.981  0.00  0.00     0.087 H 
BRANCH  19  21
ATOM     21  N   ARG d   1       2.244  -2.746   6.348  0.00  0.00    -0.346 N 
ATOM     22  C   ALA d   1       2.127  -2.124   7.518  0.00  0.00     0.248 C 
ATOM     23  O   ALA d   1       2.930  -2.275   8.438  0.00  0.00    -0.271 OA
ATOM     24  H8  ARG d   1       1.554  -2.592   5.641  0.00  0.00     0.163 HD
BRANCH  22  25
ATOM     25  CA  ALA d   1       0.930  -1.201   7.691  0.00  0.00     0.172 C 
ATOM     26  H4  ALA d   1       0.087  -1.606   7.112  0.00  0.00     0.098 H 
BRANCH  25  27
ATOM     27  N   ALA d   1       0.542  -1.141   9.119  0.00  0.00    -0.067 N 
ATOM     28  H1  ALA d   1      -0.251  -0.528   9.226  0.00  0.00     0.275 HD
ATOM     29  H2  ALA d   1       1.314  -0.789   9.663  0.00  0.00     0.275 HD
ATOM     30  H3  ALA d   1       0.298  -2.065   9.440  0.00  0.00     0.275 HD
ENDBRANCH  25  27
BRANCH  25  31
ATOM     31  CB  ALA d   1       1.247   0.195   7.174  0.00  0.00    -0.042 C 
ATOM     32  H5  ALA d   1       1.534   0.137   6.114  0.00  0.00     0.030 H 
ATOM     33  H6  ALA d   1       2.078   0.622   7.755  0.00  0.00     0.030 H 
ATOM     34  H7  ALA d   1       0.359   0.836   7.279  0.00  0.00     0.030 H 
ENDBRANCH  25  31
ENDBRANCH  22  25
ENDBRANCH  19  21
BRANCH  19  35
ATOM     35  CB  ARG d   1       2.988  -4.619   4.947  0.00  0.00    -0.036 C 
ATOM     36  H10 ARG d   1       2.990  -4.063   3.998  0.00  0.00     0.036 H 
ATOM     37  H11 ARG d   1       1.978  -5.007   5.143  0.00  0.00     0.036 H 
BRANCH  35  38
ATOM     38  CG  ARG d   1       3.936  -5.803   4.809  0.00  0.00    -0.048 C 
ATOM     39  H12 ARG d   1       3.922  -6.381   5.745  0.00  0.00     0.035 H 
ATOM     40  H13 ARG d   1       4.953  -5.426   4.626  0.00  0.00     0.035 H 
BRANCH  38  41
ATOM     41  CD  ARG d   1       3.535  -6.715   3.660  0.00  0.00     0.009 C 
ATOM     42  H14 ARG d   1       4.034  -7.686   3.793  0.00  0.00     0.064 H 
ATOM     43  H15 ARG d   1       3.868  -6.258   2.717  0.00  0.00     0.064 H 
BRANCH  41  44
ATOM     44  NE  ARG d   1       2.090  -6.938   3.586  0.00  0.00    -0.227 N 
ATOM     45  CZ  ARG d   1       1.406  -7.732   4.412  0.00  0.00     0.665 C 
ATOM     46  NH1 ARG d   1       2.028  -8.398   5.374  0.00  0.00    -0.235 N 
ATOM     47  NH2 ARG d   1       0.096  -7.874   4.261  0.00  0.00    -0.235 N 
ATOM     48  H17 ARG d   1       1.492  -9.009   6.007  0.00  0.00     0.174 HD
ATOM     49  H18 ARG d   1       3.047  -8.305   5.489  0.00  0.00     0.174 HD
ATOM     50  H19 ARG d   1      -0.395  -7.360   3.516  0.00  0.00     0.174 HD
ATOM     51  H20 ARG d   1      -0.430  -8.498   4.889  0.00  0.00     0.174 HD
ATOM     52  H16 ARG d   1       1.566  -6.449   2.846  0.00  0.00     0.177 HD
ENDBRANCH  41  44
ENDBRANCH  38  41
ENDBRANCH  35  38
ENDBRANCH  19  35
ENDBRANCH  16  19
ENDBRANCH  13  15
BRANCH  13  53
ATOM     53  CB  THR d   1       6.272  -0.162   7.594  0.00  0.00     0.060 C 
ATOM     54  H23 THR d   1       6.837  -0.619   8.420  0.00  0.00     0.086 H 
BRANCH  53  55
ATOM     55  OG1 THR d   1       4.949   0.157   8.043  0.00  0.00    -0.393 OA
ATOM     56  H24 THR d   1       4.517  -0.635   8.340  0.00  0.00     0.210 HD
ENDBRANCH  53  55
BRANCH  53  57
ATOM     57  CG2 THR d   1       6.972   1.115   7.165  0.00  0.00    -0.050 C 
ATOM     58  H25 THR d   1       7.017   1.812   8.015  0.00  0.00     0.031 H 
ATOM     59  H26 THR d   1       6.413   1.580   6.339  0.00  0.00     0.031 H 
ATOM     60  H27 THR d   1       7.993   0.879   6.830  0.00  0.00     0.031 H 
ENDBRANCH  53  57
ENDBRANCH  13  53
ENDBRANCH  10  13
ENDBRANCH   7   9
BRANCH   7  61
ATOM     61  CB  LYS d   1       9.703  -2.676   3.775  0.00  0.00    -0.038 C 
ATOM     62  H30 LYS d   1      10.714  -3.082   3.625  0.00  0.00     0.036 H 
ATOM     63  H31 LYS d   1       9.491  -1.924   3.001  0.00  0.00     0.036 H 
BRANCH  61  64
ATOM     64  CG  LYS d   1       8.709  -3.814   3.613  0.00  0.00    -0.061 C 
ATOM     65  H32 LYS d   1       7.726  -3.486   3.981  0.00  0.00     0.033 H 
ATOM     66  H33 LYS d   1       9.053  -4.677   4.202  0.00  0.00     0.033 H 
BRANCH  64  67
ATOM     67  CD  LYS d   1       8.579  -4.230   2.153  0.00  0.00    -0.043 C 
ATOM     68  H34 LYS d   1       8.174  -3.384   1.579  0.00  0.00     0.035 H 
ATOM     69  H35 LYS d   1       7.887  -5.082   2.088  0.00  0.00     0.035 H 
BRANCH  67  70
ATOM     70  CE  LYS d   1       9.917  -4.638   1.547  0.00  0.00     0.080 C 
ATOM     71  H36 LYS d   1      10.631  -3.812   1.683  0.00  0.00     0.075 H 
ATOM     72  H37 LYS d   1       9.774  -4.826   0.473  0.00  0.00     0.075 H 
BRANCH  70  73
ATOM     73  NZ  LYS d   1      10.483  -5.862   2.172  0.00  0.00    -0.079 N 
ATOM     74  H38 LYS d   1      11.364  -6.086   1.736  0.00  0.00     0.274 HD
ATOM     75  H39 LYS d   1       9.842  -6.630   2.048  0.00  0.00     0.274 HD
ATOM     76  H40 LYS d   1      10.627  -5.701   3.156  0.00  0.00     0.274 HD
ENDBRANCH  70  73
ENDBRANCH  67  70
ENDBRANCH  64  67
ENDBRANCH  61  64
ENDBRANCH   7  61
ENDBRANCH   4   7
ENDBRANCH   1   3
BRANCH   1  77
ATOM     77  C   GLN d   1      14.216  -0.871   4.768  0.00  0.00     0.241 C 
ATOM     78  O   GLN d   1      15.190  -1.292   5.396  0.00  0.00    -0.271 OA
ATOM     79  N   THR d   1      14.125  -0.932   3.451  0.00  0.00    -0.344 N 
ATOM     80  H49 THR d   1      13.308  -0.568   3.003  0.00  0.00     0.163 HD
BRANCH  79  81
ATOM     81  CA  THR d   1      15.177  -1.513   2.635  0.00  0.00     0.113 C 
ATOM     82  H50 THR d   1      15.687  -2.287   3.228  0.00  0.00     0.091 H 
BRANCH  81  83
ATOM     83  C   THR d   1      16.200  -0.453   2.236  0.00  0.00     0.243 C 
ATOM     84  O   THR d   1      16.151   0.685   2.713  0.00  0.00    -0.271 OA
ATOM     85  N   ALA d   1      17.138  -0.831   1.387  0.00  0.00    -0.346 N 
ATOM     86  H56 ALA d   1      17.180  -1.787   1.097  0.00  0.00     0.163 HD
BRANCH  85  87
ATOM     87  CA  ALA d   1      18.109   0.113   0.866  0.00  0.00     0.086 C 
ATOM     88  H57 ALA d   1      18.383   0.812   1.669  0.00  0.00     0.086 H 
BRANCH  87  89
ATOM     89  C   ALA d   1      17.512   0.908  -0.286  0.00  0.00     0.240 C 
ATOM     90  O   ALA d   1      16.824   0.350  -1.143  0.00  0.00    -0.271 OA
ATOM     91  N   ARG d   1      17.756   2.213  -0.287  0.00  0.00    -0.346 N 
ATOM     92  H61 ARG d   1      18.252   2.617   0.482  0.00  0.00     0.163 HD
BRANCH  91  93
ATOM     93  CA  ARG d   1      17.319   3.071  -1.381  0.00  0.00     0.089 C 
ATOM     94  H62 ARG d   1      16.253   2.886  -1.578  0.00  0.00     0.087 H 
BRANCH  93  95
ATOM     95  C   ARG d   1      18.123   2.743  -2.626  0.00  0.00     0.241 C 
ATOM     96  O   ARG d   1      19.313   2.435  -2.541  0.00  0.00    -0.271 OA
ATOM     97  N   LYS d   1      17.472   2.805  -3.768  0.00  0.00    -0.346 N 
ATOM     98  H74 LYS d   1      16.510   3.079  -3.764  0.00  0.00     0.163 HD
BRANCH  97  99
ATOM     99  CA  LYS d   1      18.108   2.488  -5.033  0.00  0.00     0.089 C 
ATOM    100  H75 LYS d   1      19.034   1.927  -4.839  0.00  0.00     0.087 H 
BRANCH  99 101
ATOM    101  C   LYS d   1      18.449   3.775  -5.768  0.00  0.00     0.241 C 
ATOM    102  O   LYS d   1      19.509   3.886  -6.383  0.00  0.00    -0.271 OA
ATOM    103  N   SER d   1      17.534   4.740  -5.681  0.00  0.00    -0.343 N 
ATOM    104  H87 SER d   1      16.697   4.557  -5.166  0.00  0.00     0.163 HD
BRANCH 103 105
ATOM    105  CA  SER d   1      17.695   6.050  -6.300  0.00  0.00     0.116 C 
ATOM    106  H88 SER d   1      16.758   6.608  -6.159  0.00  0.00     0.093 H 
BRANCH 105 107
ATOM    107  C   SER d   1      17.942   5.929  -7.804  0.00  0.00     0.198 C 
ATOM    108  O   SER d   1      19.112   5.996  -8.236  0.00  0.00    -0.646 OA
ATOM    109  OXT SER d   1      16.955   5.755  -8.547  0.00  0.00    -0.646 OA
ENDBRANCH 105 107
BRANCH 105 110
ATOM    110  CB  SER d   1      18.817   6.832  -5.611  0.00  0.00     0.045 C 
ATOM    111  H89 SER d   1      18.969   7.786  -6.137  0.00  0.00     0.077 H 
ATOM    112  H90 SER d   1      19.744   6.241  -5.647  0.00  0.00     0.077 H 
BRANCH 110 113
ATOM    113  OG  SER d   1      18.482   7.095  -4.254  0.00  0.00    -0.398 OA
ATOM    114  H91 SER d   1      19.188   7.580  -3.843  0.00  0.00     0.209 HD
ENDBRANCH 110 113
ENDBRANCH 105 110
ENDBRANCH 103 105
ENDBRANCH  99 101
BRANCH  99 115
ATOM    115  CB  LYS d   1      17.176   1.631  -5.892  0.00  0.00    -0.038 C 
ATOM    116  H76 LYS d   1      17.746   1.256  -6.755  0.00  0.00     0.036 H 
ATOM    117  H77 LYS d   1      16.349   2.265  -6.246  0.00  0.00     0.036 H 
BRANCH 115 118
ATOM    118  CG  LYS d   1      16.585   0.440  -5.153  0.00  0.00    -0.061 C 
ATOM    119  H78 LYS d   1      15.961  -0.137  -5.852  0.00  0.00     0.033 H 
ATOM    120  H79 LYS d   1      15.962   0.810  -4.325  0.00  0.00     0.033 H 
BRANCH 118 121
ATOM    121  CD  LYS d   1      17.661  -0.475  -4.586  0.00  0.00    -0.043 C 
ATOM    122  H80 LYS d   1      18.306   0.105  -3.909  0.00  0.00     0.035 H 
ATOM    123  H81 LYS d   1      18.265  -0.876  -5.414  0.00  0.00     0.035 H 
BRANCH 121 124
ATOM    124  CE  LYS d   1      17.044  -1.632  -3.815  0.00  0.00     0.080 C 
ATOM    125  H82 LYS d   1      16.384  -1.227  -3.034  0.00  0.00     0.075 H 
ATOM    126  H83 LYS d   1      17.850  -2.217  -3.347  0.00  0.00     0.075 H 
BRANCH 124 127
ATOM    127  NZ  LYS d   1      16.250  -2.528  -4.697  0.00  0.00    -0.079 N 
ATOM    128  H84 LYS d   1      15.860  -3.279  -4.149  0.00  0.00     0.274 HD
ATOM    129  H85 LYS d   1      16.848  -2.910  -5.413  0.00  0.00     0.274 HD
ATOM    130  H86 LYS d   1      15.505  -2.003  -5.126  0.00  0.00     0.274 HD
ENDBRANCH 124 127
ENDBRANCH 121 124
ENDBRANCH 118 121
ENDBRANCH 115 118
ENDBRANCH  99 115
ENDBRANCH  97  99
ENDBRANCH  93  95
BRANCH  93 131
ATOM    131  CB  ARG d   1      17.511   4.547  -1.024  0.00  0.00    -0.036 C 
ATOM    132  H63 ARG d   1      17.196   5.153  -1.887  0.00  0.00     0.036 H 
ATOM    133  H64 ARG d   1      18.580   4.717  -0.827  0.00  0.00     0.036 H 
BRANCH 131 134
ATOM    134  CG  ARG d   1      16.725   5.009   0.193  0.00  0.00    -0.048 C 
ATOM    135  H65 ARG d   1      17.183   5.931   0.580  0.00  0.00     0.035 H 
ATOM    136  H66 ARG d   1      16.772   4.225   0.963  0.00  0.00     0.035 H 
BRANCH 134 137
ATOM    137  CD  ARG d   1      15.266   5.287  -0.132  0.00  0.00     0.009 C 
ATOM    138  H67 ARG d   1      14.758   5.623   0.784  0.00  0.00     0.064 H 
ATOM    139  H68 ARG d   1      14.800   4.357  -0.489  0.00  0.00     0.064 H 
BRANCH 137 140
ATOM    140  NE  ARG d   1      15.110   6.316  -1.161  0.00  0.00    -0.227 N 
ATOM    141  CZ  ARG d   1      14.603   7.528  -0.936  0.00  0.00     0.665 C 
ATOM    142  NH1 ARG d   1      14.115   7.844   0.261  0.00  0.00    -0.235 N 
ATOM    143  NH2 ARG d   1      14.545   8.415  -1.925  0.00  0.00    -0.235 N 
ATOM    144  H70 ARG d   1      13.725   8.783   0.427  0.00  0.00     0.174 HD
ATOM    145  H71 ARG d   1      14.127   7.150   1.022  0.00  0.00     0.174 HD
ATOM    146  H72 ARG d   1      14.921   8.176  -2.854  0.00  0.00     0.174 HD
ATOM    147  H73 ARG d   1      14.124   9.341  -1.762  0.00  0.00     0.174 HD
ATOM    148  H69 ARG d   1      15.411   6.089  -2.120  0.00  0.00     0.177 HD
ENDBRANCH 137 140
ENDBRANCH 134 137
ENDBRANCH 131 134
ENDBRANCH  93 131
ENDBRANCH  91  93
ENDBRANCH  87  89
BRANCH  87 149
ATOM    149  CB  ALA d   1      19.363  -0.615   0.409  0.00  0.00    -0.049 C 
ATOM    150  H58 ALA d   1      20.088   0.114   0.017  0.00  0.00     0.030 H 
ATOM    151  H59 ALA d   1      19.102  -1.334  -0.382  0.00  0.00     0.030 H 
ATOM    152  H60 ALA d   1      19.806  -1.152   1.261  0.00  0.00     0.030 H 
ENDBRANCH  87 149
ENDBRANCH  85  87
ENDBRANCH  81  83
BRANCH  81 153
ATOM    153  CB  THR d   1      14.590  -2.172   1.369  0.00  0.00     0.060 C 
ATOM    154  H51 THR d   1      15.415  -2.402   0.679  0.00  0.00     0.086 H 
BRANCH 153 155
ATOM    155  OG1 THR d   1      13.683  -1.266   0.723  0.00  0.00    -0.393 OA
ATOM    156  H52 THR d   1      13.326  -1.678  -0.055  0.00  0.00     0.210 HD
ENDBRANCH 153 155
BRANCH 153 157
ATOM    157  CG2 THR d   1      13.864  -3.467   1.709  0.00  0.00    -0.050 C 
ATOM    158  H53 THR d   1      13.458  -3.912   0.789  0.00  0.00     0.031 H 
ATOM    159  H54 THR d   1      13.041  -3.254   2.407  0.00  0.00     0.031 H 
ATOM    160  H55 THR d   1      14.569  -4.171   2.176  0.00  0.00     0.031 H 
ENDBRANCH 153 157
ENDBRANCH  81 153
ENDBRANCH  79  81
ENDBRANCH   1  77
BRANCH   1 161
ATOM    161  CB  GLN d   1      13.412   0.206   6.891  0.00  0.00    -0.030 C 
ATOM    162  H43 GLN d   1      14.408   0.671   6.843  0.00  0.00     0.037 H 
ATOM    163  H44 GLN d   1      13.451  -0.675   7.548  0.00  0.00     0.037 H 
BRANCH 161 164
ATOM    164  CG  GLN d   1      12.439   1.211   7.490  0.00  0.00     0.011 C 
ATOM    165  H45 GLN d   1      11.470   0.713   7.639  0.00  0.00     0.047 H 
ATOM    166  H46 GLN d   1      12.318   2.045   6.783  0.00  0.00     0.047 H 
BRANCH 164 167
ATOM    167  CD  GLN d   1      12.903   1.771   8.821  0.00  0.00     0.215 C 
ATOM    168  OE1 GLN d   1      12.640   2.931   9.140  0.00  0.00    -0.274 OA
ATOM    169  NE2 GLN d   1      13.574   0.954   9.618  0.00  0.00    -0.370 N 
ATOM    170  H47 GLN d   1      13.900   1.278  10.506  0.00  0.00     0.159 HD
ATOM    171  H48 GLN d   1      13.754   0.013   9.332  0.00  0.00     0.159 HD
ENDBRANCH 164 167
ENDBRANCH 161 164
ENDBRANCH   1 161
TORSDOF 51
