REMARK  9 active torsions:
REMARK  status: ('A' for Active; 'I' for Inactive)
REMARK    1  A    between atoms: S1_1  and  N1_4 
REMARK    2  A    between atoms: C1_8  and  S1_1 
REMARK    3  A    between atoms: N1_4  and  C11_16 
REMARK    4  A    between atoms: C11_16  and  C12_17 
REMARK    5  A    between atoms: C12_17  and  C13_19 
REMARK    6  A    between atoms: C13_19  and  C14_18 
REMARK    7  A    between atoms: C14_18  and  C15_20 
REMARK    8  A    between atoms: C15_20  and  C16_21 
REMARK    9  A    between atoms: C16_21  and  N2_22 
ROOT
ATOM      1  N1  WW7 d   1      79.172   2.468  -4.424  0.00  0.00    -0.315 N 
ATOM      2  H1  WW7 d   1      79.277   1.477  -4.503  0.00  0.00     0.172 HD
ENDROOT
BRANCH   1   3
ATOM      3  S1  WW7 d   1      80.512   3.546  -4.684  0.00  0.00     0.259 S 
ATOM      4  O1  WW7 d   1      81.122   3.144  -5.908  0.00  0.00    -0.201 OA
ATOM      5  O2  WW7 d   1      80.001   4.894  -4.624  0.00  0.00    -0.201 OA
BRANCH   3   6
ATOM      6  C1  WW7 d   1      81.658   3.338  -3.357  0.00  0.00     0.090 A 
ATOM      7  C2  WW7 d   1      81.780   4.397  -2.363  0.00  0.00    -0.059 A 
ATOM      8  C3  WW7 d   1      82.707   4.262  -1.239  0.00  0.00    -0.081 A 
ATOM      9  H4  WW7 d   1      81.178   5.293  -2.457  0.00  0.00     0.085 H 
ATOM     10  C4  WW7 d   1      83.531   3.074  -1.090  0.00  0.00    -0.070 A 
ATOM     11  H3  WW7 d   1      82.780   5.059  -0.508  0.00  0.00     0.083 H 
ATOM     12  C10 WW7 d   1      83.433   2.003  -2.075  0.00  0.00    -0.003 A 
ATOM     13  H2  WW7 d   1      84.214   2.985  -0.253  0.00  0.00     0.084 H 
ATOM     14  C9  WW7 d   1      82.473   2.137  -3.240  0.00  0.00    -0.001 A 
ATOM     15  C5  WW7 d   1      84.236   0.793  -1.953  0.00  0.00     0.045 A 
ATOM     16  C8  WW7 d   1      82.369   1.060  -4.218  0.00  0.00    -0.071 A 
ATOM     17  C7  WW7 d   1      83.188  -0.134  -4.065  0.00  0.00    -0.081 A 
ATOM     18  H7  WW7 d   1      81.685   1.148  -5.055  0.00  0.00     0.084 H 
ATOM     19  C6  WW7 d   1      84.116  -0.270  -2.940  0.00  0.00    -0.061 A 
ATOM     20  H6  WW7 d   1      83.110  -0.933  -4.793  0.00  0.00     0.083 H 
ATOM     21  H5  WW7 d   1      84.717  -1.167  -2.842  0.00  0.00     0.086 H 
ATOM     22 CL1  WW7 d   1      85.340   0.544  -0.648  0.00  0.00    -0.083 Cl
ENDBRANCH   3   6
ENDBRANCH   1   3
BRANCH   1  23
ATOM     23  C11 WW7 d   1      77.886   3.073  -4.085  0.00  0.00     0.003 C 
ATOM     24  H8  WW7 d   1      77.117   2.644  -4.745  0.00  0.00     0.065 H 
ATOM     25  H9  WW7 d   1      77.956   4.157  -4.260  0.00  0.00     0.065 H 
BRANCH  23  26
ATOM     26  C12 WW7 d   1      77.457   2.847  -2.636  0.00  0.00    -0.050 C 
ATOM     27  H10 WW7 d   1      77.600   1.788  -2.375  0.00  0.00     0.035 H 
ATOM     28  H11 WW7 d   1      76.395   3.112  -2.525  0.00  0.00     0.035 H 
BRANCH  26  29
ATOM     29  C13 WW7 d   1      78.296   3.717  -1.700  0.00  0.00    -0.064 C 
ATOM     30  H14 WW7 d   1      77.629   4.288  -1.037  0.00  0.00     0.033 H 
ATOM     31  H15 WW7 d   1      78.904   4.413  -2.296  0.00  0.00     0.033 H 
BRANCH  29  32
ATOM     32  C14 WW7 d   1      79.217   2.836  -0.856  0.00  0.00    -0.064 C 
ATOM     33  H12 WW7 d   1      80.233   2.862  -1.276  0.00  0.00     0.033 H 
ATOM     34  H13 WW7 d   1      78.843   1.802  -0.865  0.00  0.00     0.033 H 
BRANCH  32  35
ATOM     35  C15 WW7 d   1      79.249   3.353   0.586  0.00  0.00    -0.043 C 
ATOM     36  H16 WW7 d   1      78.521   2.793   1.190  0.00  0.00     0.035 H 
ATOM     37  H17 WW7 d   1      78.989   4.422   0.596  0.00  0.00     0.035 H 
BRANCH  35  38
ATOM     38  C16 WW7 d   1      80.650   3.166   1.177  0.00  0.00     0.080 C 
ATOM     39  H18 WW7 d   1      81.289   2.686   0.421  0.00  0.00     0.075 H 
ATOM     40  H19 WW7 d   1      80.575   2.515   2.061  0.00  0.00     0.075 H 
BRANCH  38  41
ATOM     41  N2  WW7 d   1      81.266   4.421   1.576  0.00  0.00    -0.079 N 
ATOM     42  H20 WW7 d   1      82.182   4.240   1.956  0.00  0.00     0.274 HD
ATOM     43  H21 WW7 d   1      80.694   4.869   2.275  0.00  0.00     0.274 HD
ATOM     44  H22 WW7 d   1      81.349   5.025   0.773  0.00  0.00     0.274 HD
ENDBRANCH  38  41
ENDBRANCH  35  38
ENDBRANCH  32  35
ENDBRANCH  29  32
ENDBRANCH  26  29
ENDBRANCH  23  26
ENDBRANCH   1  23
TORSDOF 9
