REMARK WARNING: 32 MAX_TORS EXCEEDED!!!
REMARK  50 active torsions:
REMARK  status: ('A' for Active; 'I' for Inactive)
REMARK    1  A    between atoms: N_1  and  CA_2 
REMARK    2  A    between atoms: CA_2  and  C_3 
REMARK    3  A    between atoms: CA_2  and  CB_5 
REMARK       I    between atoms: C_3  and  N_6 
REMARK    4  A    between atoms: N_6  and  CA_7 
REMARK    5  A    between atoms: CA_7  and  C_8 
REMARK    6  A    between atoms: CA_7  and  CB_10 
REMARK       I    between atoms: C_8  and  N_17 
REMARK    7  A    between atoms: CB_10  and  CG_11 
REMARK    8  A    between atoms: CG_11  and  CD_12 
REMARK    9  A    between atoms: CD_12  and  NE_13 
REMARK       I    between atoms: NE_13  and  CZ_14 
REMARK       I    between atoms: CZ_14  and  NH1_15 
REMARK       I    between atoms: CZ_14  and  NH2_16 
REMARK   10  A    between atoms: N_17  and  CA_18 
REMARK   11  A    between atoms: CA_18  and  C_19 
REMARK   12  A    between atoms: CA_18  and  CB_21 
REMARK       I    between atoms: C_19  and  N_24 
REMARK   13  A    between atoms: CB_21  and  OG1_22 
REMARK   14  A    between atoms: CB_21  and  CG2_23 
REMARK   15  A    between atoms: N_24  and  CA_25 
REMARK   16  A    between atoms: CA_25  and  CB_26 
REMARK   17  A    between atoms: CA_25  and  C_31 
REMARK   18  A    between atoms: CB_26  and  CG_27 
REMARK   19  A    between atoms: CG_27  and  CD_28 
REMARK   20  A    between atoms: CD_28  and  CE_29 
REMARK   21  A    between atoms: CE_29  and  NZ_30 
REMARK   22  A    between atoms: NZ_30  and  CM1_33 
REMARK   23  A    between atoms: NZ_30  and  CM2_34 
REMARK   24  A    between atoms: NZ_30  and  CM3_35 
REMARK       I    between atoms: C_31  and  N_36 
REMARK   25  A    between atoms: N_36  and  CA_37 
REMARK   26  A    between atoms: CA_37  and  C_38 
REMARK   27  A    between atoms: CA_37  and  CB_40 
REMARK       I    between atoms: C_38  and  N_45 
REMARK   28  A    between atoms: CB_40  and  CG_41 
REMARK   29  A    between atoms: CG_41  and  CD_42 
REMARK       I    between atoms: CD_42  and  NE2_44 
REMARK   30  A    between atoms: N_45  and  CA_46 
REMARK   31  A    between atoms: CA_46  and  C_47 
REMARK   32  A    between atoms: CA_46  and  CB_49 
REMARK       I    between atoms: C_47  and  N_52 
REMARK   33  A    between atoms: CB_49  and  OG1_50 
REMARK   34  A    between atoms: CB_49  and  CG2_51 
REMARK   35  A    between atoms: N_52  and  CA_53 
REMARK   36  A    between atoms: CA_53  and  C_54 
REMARK   37  A    between atoms: CA_53  and  CB_56 
REMARK       I    between atoms: C_54  and  N_57 
REMARK   38  A    between atoms: N_57  and  CA_58 
REMARK   39  A    between atoms: CA_58  and  C_59 
REMARK   40  A    between atoms: CA_58  and  CB_61 
REMARK       I    between atoms: C_59  and  N_68 
REMARK   41  A    between atoms: CB_61  and  CG_62 
REMARK   42  A    between atoms: CG_62  and  CD_63 
REMARK   43  A    between atoms: CD_63  and  NE_64 
REMARK       I    between atoms: NE_64  and  CZ_65 
REMARK       I    between atoms: CZ_65  and  NH1_66 
REMARK   44  A    between atoms: N_68  and  CA_69 
REMARK   45  A    between atoms: CA_69  and  C_70 
REMARK   46  A    between atoms: CA_69  and  CB_71 
REMARK   47  A    between atoms: CB_71  and  CG_72 
REMARK   48  A    between atoms: CG_72  and  CD_73 
REMARK   49  A    between atoms: CD_73  and  CE_74 
REMARK   50  A    between atoms: CE_74  and  NZ_75 
ROOT
ATOM      1  CA  GLN d   1      -8.351   2.440  -0.220  0.00  0.00     0.090 C 
ATOM      2  H48 GLN d   1      -7.610   1.798   0.278  0.00  0.00     0.087 H 
ENDROOT
BRANCH   1   3
ATOM      3  N   GLN d   1      -7.714   3.193  -1.254  0.00  0.00    -0.346 N 
ATOM      4  C   M3L d   1      -6.438   3.462  -1.244  0.00  0.00     0.241 C 
ATOM      5  O   M3L d   1      -5.660   3.108  -0.347  0.00  0.00    -0.271 OA
ATOM      6  H47 GLN d   1      -8.269   3.527  -2.016  0.00  0.00     0.163 HD
BRANCH   4   7
ATOM      7  CA  M3L d   1      -5.936   4.228  -2.430  0.00  0.00     0.089 C 
ATOM      8  H29 M3L d   1      -6.596   5.090  -2.611  0.00  0.00     0.087 H 
BRANCH   7   9
ATOM      9  N   M3L d   1      -4.575   4.720  -2.176  0.00  0.00    -0.346 N 
ATOM     10  C   THR d   1      -3.991   5.623  -2.950  0.00  0.00     0.243 C 
ATOM     11  O   THR d   1      -4.514   6.082  -3.981  0.00  0.00    -0.271 OA
ATOM     12  H28 M3L d   1      -4.071   4.360  -1.391  0.00  0.00     0.163 HD
BRANCH  10  13
ATOM     13  CA  THR d   1      -2.603   6.067  -2.524  0.00  0.00     0.113 C 
ATOM     14  H22 THR d   1      -1.985   5.167  -2.393  0.00  0.00     0.091 H 
BRANCH  13  15
ATOM     15  N   THR d   1      -1.973   6.892  -3.527  0.00  0.00    -0.344 N 
ATOM     16  C   ARG d   1      -0.950   6.473  -4.213  0.00  0.00     0.241 C 
ATOM     17  O   ARG d   1      -0.458   5.365  -4.049  0.00  0.00    -0.271 OA
ATOM     18  H21 THR d   1      -2.332   7.809  -3.699  0.00  0.00     0.163 HD
BRANCH  16  19
ATOM     19  CA  ARG d   1      -0.327   7.467  -5.180  0.00  0.00     0.089 C 
ATOM     20  H9  ARG d   1      -0.937   8.383  -5.197  0.00  0.00     0.087 H 
BRANCH  19  21
ATOM     21  N   ARG d   1       0.978   7.762  -4.713  0.00  0.00    -0.346 N 
ATOM     22  C   ALA d   1       1.304   8.888  -4.184  0.00  0.00     0.248 C 
ATOM     23  O   ALA d   1       0.529   9.860  -4.130  0.00  0.00    -0.271 OA
ATOM     24  H8  ARG d   1       1.683   7.058  -4.799  0.00  0.00     0.163 HD
BRANCH  22  25
ATOM     25  CA  ALA d   1       2.728   8.956  -3.665  0.00  0.00     0.172 C 
ATOM     26  H4  ALA d   1       3.417   8.896  -4.521  0.00  0.00     0.098 H 
BRANCH  25  27
ATOM     27  N   ALA d   1       2.983  10.239  -2.957  0.00  0.00    -0.067 N 
ATOM     28  H1  ALA d   1       3.934  10.256  -2.624  0.00  0.00     0.275 HD
ATOM     29  H2  ALA d   1       2.352  10.323  -2.175  0.00  0.00     0.275 HD
ATOM     30  H3  ALA d   1       2.836  11.008  -3.592  0.00  0.00     0.275 HD
ENDBRANCH  25  27
BRANCH  25  31
ATOM     31  CB  ALA d   1       2.978   7.750  -2.754  0.00  0.00    -0.042 C 
ATOM     32  H5  ALA d   1       2.780   6.822  -3.311  0.00  0.00     0.030 H 
ATOM     33  H6  ALA d   1       2.309   7.804  -1.882  0.00  0.00     0.030 H 
ATOM     34  H7  ALA d   1       4.024   7.757  -2.415  0.00  0.00     0.030 H 
ENDBRANCH  25  31
ENDBRANCH  22  25
ENDBRANCH  19  21
BRANCH  19  35
ATOM     35  CB  ARG d   1      -0.214   6.921  -6.598  0.00  0.00    -0.036 C 
ATOM     36  H10 ARG d   1      -1.195   6.527  -6.903  0.00  0.00     0.036 H 
ATOM     37  H11 ARG d   1       0.525   6.107  -6.604  0.00  0.00     0.036 H 
BRANCH  35  38
ATOM     38  CG  ARG d   1       0.222   7.985  -7.609  0.00  0.00    -0.048 C 
ATOM     39  H12 ARG d   1       1.027   8.586  -7.162  0.00  0.00     0.035 H 
ATOM     40  H13 ARG d   1      -0.639   8.633  -7.832  0.00  0.00     0.035 H 
BRANCH  38  41
ATOM     41  CD  ARG d   1       0.730   7.383  -8.915  0.00  0.00     0.009 C 
ATOM     42  H14 ARG d   1       0.786   8.174  -9.678  0.00  0.00     0.064 H 
ATOM     43  H15 ARG d   1       0.030   6.602  -9.247  0.00  0.00     0.064 H 
BRANCH  41  44
ATOM     44  NE  ARG d   1       2.069   6.787  -8.740  0.00  0.00    -0.227 N 
ATOM     45  CZ  ARG d   1       2.654   5.925  -9.568  0.00  0.00     0.665 C 
ATOM     46  NH1 ARG d   1       2.019   5.465 -10.633  0.00  0.00    -0.235 N 
ATOM     47  NH2 ARG d   1       3.881   5.518  -9.316  0.00  0.00    -0.235 N 
ATOM     48  H17 ARG d   1       2.487   4.798 -11.263  0.00  0.00     0.174 HD
ATOM     49  H18 ARG d   1       1.057   5.774 -10.832  0.00  0.00     0.174 HD
ATOM     50  H19 ARG d   1       4.381   5.872  -8.488  0.00  0.00     0.174 HD
ATOM     51  H20 ARG d   1       4.340   4.846  -9.947  0.00  0.00     0.174 HD
ATOM     52  H16 ARG d   1       2.599   7.063  -7.901  0.00  0.00     0.177 HD
ENDBRANCH  41  44
ENDBRANCH  38  41
ENDBRANCH  35  38
ENDBRANCH  19  35
ENDBRANCH  16  19
ENDBRANCH  13  15
BRANCH  13  53
ATOM     53  CB  THR d   1      -2.674   6.807  -1.158  0.00  0.00     0.060 C 
ATOM     54  H23 THR d   1      -3.283   6.206  -0.467  0.00  0.00     0.086 H 
BRANCH  53  55
ATOM     55  OG1 THR d   1      -3.294   8.113  -1.299  0.00  0.00    -0.393 OA
ATOM     56  H24 THR d   1      -3.324   8.541  -0.452  0.00  0.00     0.210 HD
ENDBRANCH  53  55
BRANCH  53  57
ATOM     57  CG2 THR d   1      -1.285   6.948  -0.583  0.00  0.00    -0.050 C 
ATOM     58  H25 THR d   1      -1.339   7.472   0.383  0.00  0.00     0.031 H 
ATOM     59  H26 THR d   1      -0.657   7.525  -1.278  0.00  0.00     0.031 H 
ATOM     60  H27 THR d   1      -0.847   5.950  -0.435  0.00  0.00     0.031 H 
ENDBRANCH  53  57
ENDBRANCH  13  53
ENDBRANCH  10  13
ENDBRANCH   7   9
BRANCH   7  61
ATOM     61  CB  M3L d   1      -5.967   3.313  -3.649  0.00  0.00    -0.038 C 
ATOM     62  H30 M3L d   1      -5.668   3.891  -4.536  0.00  0.00     0.036 H 
ATOM     63  H31 M3L d   1      -6.992   2.936  -3.785  0.00  0.00     0.036 H 
BRANCH  61  64
ATOM     64  CG  M3L d   1      -5.052   2.164  -3.498  0.00  0.00    -0.061 C 
ATOM     65  H32 M3L d   1      -5.429   1.525  -2.686  0.00  0.00     0.033 H 
ATOM     66  H33 M3L d   1      -4.056   2.547  -3.231  0.00  0.00     0.033 H 
BRANCH  64  67
ATOM     67  CD  M3L d   1      -4.921   1.331  -4.729  0.00  0.00    -0.042 C 
ATOM     68  H34 M3L d   1      -4.115   0.600  -4.568  0.00  0.00     0.035 H 
ATOM     69  H35 M3L d   1      -4.655   1.992  -5.567  0.00  0.00     0.035 H 
BRANCH  67  70
ATOM     70  CE  M3L d   1      -6.171   0.582  -5.097  0.00  0.00     0.084 C 
ATOM     71  H36 M3L d   1      -6.984   1.304  -5.266  0.00  0.00     0.076 H 
ATOM     72  H37 M3L d   1      -6.443  -0.089  -4.269  0.00  0.00     0.076 H 
BRANCH  70  73
ATOM     73  NZ  M3L d   1      -5.973  -0.244  -6.357  0.00  0.00    -0.079 N 
BRANCH  73  74
ATOM     74  CM1 M3L d   1      -4.813  -1.157  -6.217  0.00  0.00     0.067 C 
ATOM     75  H38 M3L d   1      -4.693  -1.742  -7.141  0.00  0.00     0.068 H 
ATOM     76  H39 M3L d   1      -4.983  -1.839  -5.371  0.00  0.00     0.068 H 
ATOM     77  H40 M3L d   1      -3.902  -0.568  -6.035  0.00  0.00     0.068 H 
ENDBRANCH  73  74
BRANCH  73  78
ATOM     78  CM2 M3L d   1      -5.751   0.687  -7.523  0.00  0.00     0.067 C 
ATOM     79  H41 M3L d   1      -6.614   1.362  -7.623  0.00  0.00     0.068 H 
ATOM     80  H42 M3L d   1      -5.637   0.099  -8.445  0.00  0.00     0.068 H 
ATOM     81  H43 M3L d   1      -4.840   1.279  -7.351  0.00  0.00     0.068 H 
ENDBRANCH  73  78
BRANCH  73  82
ATOM     82  CM3 M3L d   1      -7.151  -1.083  -6.591  0.00  0.00     0.067 C 
ATOM     83  H44 M3L d   1      -7.299  -1.755  -5.733  0.00  0.00     0.068 H 
ATOM     84  H45 M3L d   1      -7.001  -1.680  -7.503  0.00  0.00     0.068 H 
ATOM     85  H46 M3L d   1      -8.038  -0.444  -6.713  0.00  0.00     0.068 H 
ENDBRANCH  73  82
ENDBRANCH  70  73
ENDBRANCH  67  70
ENDBRANCH  64  67
ENDBRANCH  61  64
ENDBRANCH   7  61
ENDBRANCH   4   7
ENDBRANCH   1   3
BRANCH   1  86
ATOM     86  C   GLN d   1      -9.417   1.572  -0.868  0.00  0.00     0.241 C 
ATOM     87  O   GLN d   1     -10.355   2.083  -1.478  0.00  0.00    -0.271 OA
ATOM     88  N   THR d   1      -9.250   0.282  -0.773  0.00  0.00    -0.344 N 
ATOM     89  H55 THR d   1      -8.460  -0.075  -0.274  0.00  0.00     0.163 HD
BRANCH  88  90
ATOM     90  CA  THR d   1     -10.187  -0.644  -1.376  0.00  0.00     0.113 C 
ATOM     91  H56 THR d   1     -10.656  -0.161  -2.246  0.00  0.00     0.091 H 
BRANCH  90  92
ATOM     92  C   THR d   1     -11.270  -1.011  -0.365  0.00  0.00     0.243 C 
ATOM     93  O   THR d   1     -10.955  -1.383   0.783  0.00  0.00    -0.271 OA
ATOM     94  N   ALA d   1     -12.516  -0.911  -0.775  0.00  0.00    -0.346 N 
ATOM     95  H62 ALA d   1     -12.700  -0.616  -1.713  0.00  0.00     0.163 HD
BRANCH  94  96
ATOM     96  CA  ALA d   1     -13.623  -1.217   0.097  0.00  0.00     0.086 C 
ATOM     97  H63 ALA d   1     -13.230  -1.293   1.122  0.00  0.00     0.086 H 
BRANCH  96  98
ATOM     98  C   ALA d   1     -14.236  -2.562  -0.263  0.00  0.00     0.240 C 
ATOM     99  O   ALA d   1     -14.771  -2.749  -1.347  0.00  0.00    -0.271 OA
ATOM    100  N   ARG d   1     -14.147  -3.473   0.652  0.00  0.00    -0.346 N 
ATOM    101  H67 ARG d   1     -13.728  -3.216   1.523  0.00  0.00     0.163 HD
BRANCH 100 102
ATOM    102  CA  ARG d   1     -14.606  -4.824   0.508  0.00  0.00     0.089 C 
ATOM    103  H68 ARG d   1     -14.884  -5.008  -0.540  0.00  0.00     0.087 H 
BRANCH 102 104
ATOM    104  C   ARG d   1     -15.806  -5.068   1.400  0.00  0.00     0.240 C 
ATOM    105  O   ARG d   1     -15.882  -4.536   2.508  0.00  0.00    -0.271 OA
ATOM    106  N   LYS d   1     -16.749  -5.854   0.890  0.00  0.00    -0.355 N 
ATOM    107  H80 LYS d   1     -16.644  -6.164  -0.055  0.00  0.00     0.162 HD
BRANCH 106 108
ATOM    108  CA  LYS d   1     -17.945  -6.296   1.641  0.00  0.00     0.009 C 
ATOM    109  H81 LYS d   1     -18.655  -6.719   0.915  0.00  0.00     0.071 H 
BRANCH 108 110
ATOM    110  C   LYS d   1     -18.657  -5.132   2.360  0.00  0.00    -0.057 C 
ATOM    111  H82 LYS d   1     -19.535  -5.517   2.900  0.00  0.00     0.030 H 
ATOM    112  H83 LYS d   1     -18.980  -4.386   1.619  0.00  0.00     0.030 H 
ATOM    113  H84 LYS d   1     -17.964  -4.663   3.074  0.00  0.00     0.030 H 
ENDBRANCH 108 110
BRANCH 108 114
ATOM    114  CB  LYS d   1     -17.569  -7.413   2.644  0.00  0.00    -0.046 C 
ATOM    115  H85 LYS d   1     -18.488  -7.744   3.150  0.00  0.00     0.035 H 
ATOM    116  H86 LYS d   1     -16.875  -6.990   3.385  0.00  0.00     0.035 H 
BRANCH 114 117
ATOM    117  CG  LYS d   1     -16.905  -8.636   2.011  0.00  0.00    -0.062 C 
ATOM    118  H87 LYS d   1     -16.663  -9.357   2.805  0.00  0.00     0.033 H 
ATOM    119  H88 LYS d   1     -15.979  -8.316   1.511  0.00  0.00     0.033 H 
BRANCH 117 120
ATOM    120  CD  LYS d   1     -17.804  -9.321   0.985  0.00  0.00    -0.043 C 
ATOM    121  H89 LYS d   1     -18.081  -8.594   0.207  0.00  0.00     0.035 H 
ATOM    122  H90 LYS d   1     -18.713  -9.683   1.488  0.00  0.00     0.035 H 
BRANCH 120 123
ATOM    123  CE  LYS d   1     -17.090 -10.503   0.332  0.00  0.00     0.080 C 
ATOM    124  H91 LYS d   1     -16.820 -11.230   1.112  0.00  0.00     0.075 H 
ATOM    125  H92 LYS d   1     -16.177 -10.138  -0.161  0.00  0.00     0.075 H 
BRANCH 123 126
ATOM    126  NZ  LYS d   1     -17.942 -11.178  -0.677  0.00  0.00    -0.079 N 
ATOM    127  H93 LYS d   1     -17.435 -11.949  -1.083  0.00  0.00     0.274 HD
ATOM    128  H94 LYS d   1     -18.190 -10.521  -1.401  0.00  0.00     0.274 HD
ATOM    129  H95 LYS d   1     -18.779 -11.522  -0.234  0.00  0.00     0.274 HD
ENDBRANCH 123 126
ENDBRANCH 120 123
ENDBRANCH 117 120
ENDBRANCH 114 117
ENDBRANCH 108 114
ENDBRANCH 106 108
ENDBRANCH 102 104
BRANCH 102 130
ATOM    130  CB  ARG d   1     -13.480  -5.773   0.918  0.00  0.00    -0.036 C 
ATOM    131  H69 ARG d   1     -13.872  -6.801   0.903  0.00  0.00     0.036 H 
ATOM    132  H70 ARG d   1     -13.167  -5.515   1.940  0.00  0.00     0.036 H 
BRANCH 130 133
ATOM    133  CG  ARG d   1     -12.263  -5.716   0.020  0.00  0.00    -0.048 C 
ATOM    134  H71 ARG d   1     -11.451  -6.304   0.473  0.00  0.00     0.035 H 
ATOM    135  H72 ARG d   1     -11.942  -4.670  -0.088  0.00  0.00     0.035 H 
BRANCH 133 136
ATOM    136  CD  ARG d   1     -12.584  -6.281  -1.344  0.00  0.00     0.009 C 
ATOM    137  H73 ARG d   1     -11.691  -6.214  -1.983  0.00  0.00     0.064 H 
ATOM    138  H74 ARG d   1     -13.402  -5.699  -1.794  0.00  0.00     0.064 H 
BRANCH 136 139
ATOM    139  NE  ARG d   1     -12.997  -7.695  -1.233  0.00  0.00    -0.227 N 
ATOM    140  CZ  ARG d   1     -13.476  -8.441  -2.230  0.00  0.00     0.665 C 
ATOM    141  NH1 ARG d   1     -13.628  -7.927  -3.445  0.00  0.00    -0.235 N 
ATOM    142  NH2 ARG d   1     -13.807  -9.712  -2.005  0.00  0.00    -0.235 N 
ATOM    143  H76 ARG d   1     -13.999  -8.511  -4.208  0.00  0.00     0.174 HD
ATOM    144  H77 ARG d   1     -13.375  -6.945  -3.624  0.00  0.00     0.174 HD
ATOM    145  H78 ARG d   1     -13.691 -10.116  -1.065  0.00  0.00     0.174 HD
ATOM    146  H79 ARG d   1     -14.179 -10.291  -2.772  0.00  0.00     0.174 HD
ATOM    147  H75 ARG d   1     -12.908  -8.142  -0.309  0.00  0.00     0.177 HD
ENDBRANCH 136 139
ENDBRANCH 133 136
ENDBRANCH 130 133
ENDBRANCH 102 130
ENDBRANCH 100 102
ENDBRANCH  96  98
BRANCH  96 148
ATOM    148  CB  ALA d   1     -14.671  -0.102   0.087  0.00  0.00    -0.049 C 
ATOM    149  H64 ALA d   1     -15.498  -0.370   0.761  0.00  0.00     0.030 H 
ATOM    150  H65 ALA d   1     -15.059   0.028  -0.934  0.00  0.00     0.030 H 
ATOM    151  H66 ALA d   1     -14.210   0.837   0.427  0.00  0.00     0.030 H 
ENDBRANCH  96 148
ENDBRANCH  94  96
ENDBRANCH  90  92
BRANCH  90 152
ATOM    152  CB  THR d   1      -9.460  -1.924  -1.846  0.00  0.00     0.060 C 
ATOM    153  H57 THR d   1     -10.204  -2.644  -2.219  0.00  0.00     0.086 H 
BRANCH 152 154
ATOM    154  OG1 THR d   1      -8.763  -2.495  -0.723  0.00  0.00    -0.393 OA
ATOM    155  H58 THR d   1      -9.387  -2.709  -0.040  0.00  0.00     0.210 HD
ENDBRANCH 152 154
BRANCH 152 156
ATOM    156  CG2 THR d   1      -8.457  -1.614  -2.974  0.00  0.00    -0.050 C 
ATOM    157  H59 THR d   1      -7.957  -2.543  -3.286  0.00  0.00     0.031 H 
ATOM    158  H60 THR d   1      -7.706  -0.898  -2.610  0.00  0.00     0.031 H 
ATOM    159  H61 THR d   1      -8.992  -1.180  -3.832  0.00  0.00     0.031 H 
ENDBRANCH 152 156
ENDBRANCH  90 152
ENDBRANCH  88  90
ENDBRANCH   1  86
BRANCH   1 160
ATOM    160  CB  GLN d   1      -8.966   3.382   0.816  0.00  0.00    -0.030 C 
ATOM    161  H49 GLN d   1      -9.775   3.947   0.331  0.00  0.00     0.037 H 
ATOM    162  H50 GLN d   1      -8.185   4.078   1.156  0.00  0.00     0.037 H 
BRANCH 160 163
ATOM    163  CG  GLN d   1      -9.540   2.678   2.034  0.00  0.00     0.011 C 
ATOM    164  H51 GLN d   1      -8.742   2.093   2.515  0.00  0.00     0.047 H 
ATOM    165  H52 GLN d   1     -10.344   2.002   1.707  0.00  0.00     0.047 H 
BRANCH 163 166
ATOM    166  CD  GLN d   1     -10.102   3.651   3.038  0.00  0.00     0.215 C 
ATOM    167  OE1 GLN d   1     -11.291   3.989   3.003  0.00  0.00    -0.274 OA
ATOM    168  NE2 GLN d   1      -9.263   4.137   3.907  0.00  0.00    -0.370 N 
ATOM    169  H53 GLN d   1      -9.579   4.787   4.598  0.00  0.00     0.159 HD
ATOM    170  H54 GLN d   1      -8.302   3.860   3.884  0.00  0.00     0.159 HD
ENDBRANCH 163 166
ENDBRANCH 160 163
ENDBRANCH   1 160
TORSDOF 50
