REMARK WARNING: 32 MAX_TORS EXCEEDED!!!
REMARK  35 active torsions:
REMARK  status: ('A' for Active; 'I' for Inactive)
REMARK    1  A    between atoms: N_1  and  CA_2 
REMARK    2  A    between atoms: CA_2  and  C_3 
REMARK    3  A    between atoms: CA_2  and  CB_5 
REMARK       I    between atoms: C_3  and  N_9 
REMARK    4  A    between atoms: CB_5  and  CG_6 
REMARK    5  A    between atoms: N_9  and  CA_10 
REMARK    6  A    between atoms: CA_10  and  C_11 
REMARK    7  A    between atoms: CA_10  and  CB_13 
REMARK       I    between atoms: C_11  and  N_15 
REMARK    8  A    between atoms: CB_13  and  OG_14 
REMARK    9  A    between atoms: N_15  and  CA_16 
REMARK   10  A    between atoms: CA_16  and  C_17 
REMARK       I    between atoms: C_17  and  N_19 
REMARK   11  A    between atoms: N_19  and  CA_20 
REMARK   12  A    between atoms: CA_20  and  C_21 
REMARK   13  A    between atoms: CA_20  and  CB_23 
REMARK       I    between atoms: C_21  and  N_30 
REMARK   14  A    between atoms: CB_23  and  CG_24 
REMARK   15  A    between atoms: N_30  and  CA_31 
REMARK   16  A    between atoms: CA_31  and  C_32 
REMARK   17  A    between atoms: CA_31  and  CB_34 
REMARK       I    between atoms: C_32  and  N_36 
REMARK   18  A    between atoms: CB_34  and  OG_35 
REMARK   19  A    between atoms: N_36  and  CA_37 
REMARK   20  A    between atoms: CA_37  and  C_38 
REMARK   21  A    between atoms: CA_37  and  CB_40 
REMARK       I    between atoms: C_38  and  N_47 
REMARK   22  A    between atoms: CB_40  and  CG_41 
REMARK   23  A    between atoms: N_47  and  CA_48 
REMARK   24  A    between atoms: CA_48  and  C_49 
REMARK       I    between atoms: C_49  and  N_51 
REMARK   25  A    between atoms: N_51  and  CA_52 
REMARK   26  A    between atoms: CA_52  and  C_53 
REMARK   27  A    between atoms: CA_52  and  CB_55 
REMARK       I    between atoms: C_53  and  N_57 
REMARK   28  A    between atoms: CB_55  and  OG_56 
REMARK   29  A    between atoms: N_57  and  CA_58 
REMARK   30  A    between atoms: CA_58  and  C_59 
REMARK   31  A    between atoms: CA_58  and  CB_61 
REMARK   32  A    between atoms: CB_61  and  CG_62 
REMARK   33  A    between atoms: CG_62  and  CD_63 
REMARK   34  A    between atoms: CD_63  and  CE_64 
REMARK   35  A    between atoms: CE_64  and  NZ_65 
ROOT
ATOM      1  C   SER d   1     -13.441 -44.130  14.195  0.00  0.00     0.243 C 
ATOM      2  O   SER d   1     -13.623 -43.791  15.364  0.00  0.00    -0.271 OA
ATOM      3  N   PHE d   1     -13.841 -43.397  13.154  0.00  0.00    -0.346 N 
ATOM      4  H   PHE d   1     -13.663 -43.734  12.208  0.00  0.00     0.163 HD
ENDROOT
BRANCH   1   5
ATOM      5  CA  SER d   1     -12.729 -45.442  13.865  0.00  0.00     0.109 C 
ATOM      6  H   SER d   1     -12.145 -45.304  12.955  0.00  0.00     0.090 H 
BRANCH   5   7
ATOM      7  N   SER d   1     -11.816 -45.823  14.945  0.00  0.00    -0.344 N 
ATOM      8  C   PHE d   1     -10.616 -46.345  14.686  0.00  0.00     0.241 C 
ATOM      9  O   PHE d   1     -10.203 -46.537  13.542  0.00  0.00    -0.271 OA
ATOM     10  H   SER d   1     -12.103 -45.687  15.914  0.00  0.00     0.163 HD
BRANCH   8  11
ATOM     11  CA  PHE d   1      -9.755 -46.710  15.897  0.00  0.00     0.093 C 
ATOM     12  H   PHE d   1     -10.401 -47.118  16.674  0.00  0.00     0.088 H 
BRANCH  11  13
ATOM     13  N   PHE d   1      -8.768 -47.720  15.537  0.00  0.00    -0.346 N 
ATOM     14  C   GLY d   1      -9.126 -48.980  15.310  0.00  0.00     0.236 C 
ATOM     15  O   GLY d   1     -10.291 -49.369  15.387  0.00  0.00    -0.272 OA
ATOM     16  H   PHE d   1      -7.786 -47.456  15.458  0.00  0.00     0.163 HD
BRANCH  14  17
ATOM     17  CA  GLY d   1      -8.003 -49.944  14.940  0.00  0.00     0.069 C 
ATOM     18  H   GLY d   1      -7.876 -50.661  15.751  0.00  0.00     0.078 H 
ATOM     19  H   GLY d   1      -8.267 -50.449  14.011  0.00  0.00     0.078 H 
BRANCH  17  20
ATOM     20  N   GLY d   1      -6.746 -49.230  14.744  0.00  0.00    -0.350 N 
ATOM     21  C   SER d   1      -5.949 -48.945  15.770  0.00  0.00     0.242 C 
ATOM     22  O   SER d   1      -6.214 -49.257  16.931  0.00  0.00    -0.271 OA
ATOM     23  H   GLY d   1      -6.473 -48.944  13.803  0.00  0.00     0.163 HD
BRANCH  21  24
ATOM     24  CA  SER d   1      -4.663 -48.196  15.436  0.00  0.00     0.109 C 
ATOM     25  H   SER d   1      -4.878 -47.128  15.393  0.00  0.00     0.090 H 
BRANCH  24  26
ATOM     26  N   SER d   1      -3.657 -48.422  16.467  0.00  0.00    -0.344 N 
ATOM     27  C   ASP d   1      -2.595 -47.631  16.577  0.00  0.00     0.249 C 
ATOM     28  O   ASP d   1      -2.393 -46.673  15.830  0.00  0.00    -0.271 OA
ATOM     29  H   SER d   1      -3.771 -49.201  17.115  0.00  0.00     0.163 HD
BRANCH  27  30
ATOM     30  CA  ASP d   1      -1.615 -47.970  17.695  0.00  0.00     0.185 C 
ATOM     31  H   ASP d   1      -1.297 -49.007  17.590  0.00  0.00     0.100 H 
BRANCH  30  32
ATOM     32  N   ASP d   1      -0.432 -47.068  17.606  0.00  0.00    -0.066 N 
ATOM     33  H   ASP d   1       0.019 -47.190  16.700  0.00  0.00     0.275 HD
ATOM     34  H   ASP d   1      -0.736 -46.100  17.708  0.00  0.00     0.275 HD
ATOM     35  H   ASP d   1       0.227 -47.299  18.349  0.00  0.00     0.275 HD
ENDBRANCH  30  32
BRANCH  30  36
ATOM     36  CB  ASP d   1      -2.291 -47.786  19.055  0.00  0.00     0.050 C 
ATOM     37  H   ASP d   1      -1.623 -48.144  19.839  0.00  0.00     0.052 H 
ATOM     38  H   ASP d   1      -3.222 -48.352  19.072  0.00  0.00     0.052 H 
BRANCH  36  39
ATOM     39  CG  ASP d   1      -2.596 -46.310  19.290  0.00  0.00     0.175 C 
ATOM     40  OD1 ASP d   1      -1.723 -45.616  19.783  0.00  0.00    -0.648 OA
ATOM     41  OD2 ASP d   1      -3.699 -45.896  18.973  0.00  0.00    -0.648 OA
ENDBRANCH  36  39
ENDBRANCH  30  36
ENDBRANCH  27  30
ENDBRANCH  24  26
BRANCH  24  42
ATOM     42  CB  SER d   1      -4.135 -48.663  14.079  0.00  0.00     0.044 C 
ATOM     43  H   SER d   1      -3.852 -49.714  14.140  0.00  0.00     0.077 H 
ATOM     44  H   SER d   1      -3.263 -48.070  13.803  0.00  0.00     0.077 H 
BRANCH  42  45
ATOM     45  OG  SER d   1      -5.150 -48.500  13.098  0.00  0.00    -0.398 OA
ATOM     46  H   SER d   1      -4.820 -48.793  12.246  0.00  0.00     0.209 HD
ENDBRANCH  42  45
ENDBRANCH  24  42
ENDBRANCH  21  24
ENDBRANCH  17  20
ENDBRANCH  14  17
ENDBRANCH  11  13
BRANCH  11  47
ATOM     47  CB  PHE d   1      -9.052 -45.459  16.431  0.00  0.00    -0.014 C 
ATOM     48  H   PHE d   1      -8.359 -45.080  15.680  0.00  0.00     0.043 H 
ATOM     49  H   PHE d   1      -8.498 -45.709  17.336  0.00  0.00     0.043 H 
BRANCH  47  50
ATOM     50  CG  PHE d   1     -10.083 -44.408  16.743  0.00  0.00    -0.056 A 
ATOM     51  CD1 PHE d   1     -10.493 -43.512  15.750  0.00  0.00    -0.077 A 
ATOM     52  CE1 PHE d   1     -11.451 -42.552  16.040  0.00  0.00    -0.082 A 
ATOM     53  H   PHE d   1     -10.061 -43.568  14.751  0.00  0.00     0.084 H 
ATOM     54  CZ  PHE d   1     -12.013 -42.473  17.316  0.00  0.00    -0.083 A 
ATOM     55  H   PHE d   1     -11.768 -41.853  15.266  0.00  0.00     0.083 H 
ATOM     56  CE2 PHE d   1     -11.608 -43.363  18.313  0.00  0.00    -0.082 A 
ATOM     57  H   PHE d   1     -12.767 -41.717  17.534  0.00  0.00     0.083 H 
ATOM     58  CD2 PHE d   1     -10.641 -44.333  18.027  0.00  0.00    -0.077 A 
ATOM     59  H   PHE d   1     -12.044 -43.302  19.310  0.00  0.00     0.083 H 
ATOM     60  H   PHE d   1     -10.322 -45.030  18.802  0.00  0.00     0.084 H 
ENDBRANCH  47  50
ENDBRANCH  11  47
ENDBRANCH   8  11
ENDBRANCH   5   7
BRANCH   5  61
ATOM     61  CB  SER d   1     -13.766 -46.544  13.649  0.00  0.00     0.044 C 
ATOM     62  H   SER d   1     -14.316 -46.352  12.728  0.00  0.00     0.077 H 
ATOM     63  H   SER d   1     -14.462 -46.559  14.488  0.00  0.00     0.077 H 
BRANCH  61  64
ATOM     64  OG  SER d   1     -13.105 -47.799  13.556  0.00  0.00    -0.398 OA
ATOM     65  H   SER d   1     -13.755 -48.492  13.420  0.00  0.00     0.209 HD
ENDBRANCH  61  64
ENDBRANCH   5  61
ENDBRANCH   1   5
BRANCH   3  66
ATOM     66  CA  PHE d   1     -14.530 -42.118  13.342  0.00  0.00     0.093 C 
ATOM     67  H   PHE d   1     -14.550 -41.899  14.410  0.00  0.00     0.088 H 
BRANCH  66  68
ATOM     68  C   PHE d   1     -15.967 -42.189  12.830  0.00  0.00     0.241 C 
ATOM     69  O   PHE d   1     -16.810 -42.877  13.405  0.00  0.00    -0.271 OA
ATOM     70  N   GLY d   1     -16.235 -41.460  11.747  0.00  0.00    -0.351 N 
ATOM     71  H   GLY d   1     -15.488 -40.912  11.320  0.00  0.00     0.163 HD
BRANCH  70  72
ATOM     72  CA  GLY d   1     -17.568 -41.425  11.156  0.00  0.00     0.069 C 
ATOM     73  H   GLY d   1     -17.472 -41.177  10.099  0.00  0.00     0.078 H 
ATOM     74  H   GLY d   1     -18.163 -40.681  11.686  0.00  0.00     0.078 H 
BRANCH  72  75
ATOM     75  C   GLY d   1     -18.264 -42.778  11.276  0.00  0.00     0.236 C 
ATOM     76  O   GLY d   1     -17.690 -43.814  10.942  0.00  0.00    -0.272 OA
ATOM     77  N   SER d   1     -19.504 -42.758  11.756  0.00  0.00    -0.344 N 
ATOM     78  H   SER d   1     -19.926 -41.866  12.015  0.00  0.00     0.163 HD
BRANCH  77  79
ATOM     79  CA  SER d   1     -20.272 -43.988  11.919  0.00  0.00     0.109 C 
ATOM     80  H   SER d   1     -19.914 -44.501  12.812  0.00  0.00     0.090 H 
BRANCH  79  81
ATOM     81  C   SER d   1     -20.081 -44.906  10.716  0.00  0.00     0.243 C 
ATOM     82  O   SER d   1     -20.764 -44.767   9.702  0.00  0.00    -0.271 OA
ATOM     83  N   LYS d   1     -19.148 -45.845  10.838  0.00  0.00    -0.345 N 
ATOM     84  H   LYS d   1     -18.614 -45.911  11.705  0.00  0.00     0.163 HD
BRANCH  83  85
ATOM     85  CA  LYS d   1     -18.873 -46.783   9.755  0.00  0.00     0.096 C 
ATOM     86  H   LYS d   1     -18.976 -46.256   8.806  0.00  0.00     0.089 H 
BRANCH  85  87
ATOM     87  C   LYS d   1     -19.866 -47.941   9.785  0.00  0.00     0.196 C 
ATOM     88  O   LYS d   1     -20.288 -48.305  10.870  0.00  0.00    -0.646 OA
ATOM     89  OXT LYS d   1     -20.191 -48.445   8.722  0.00  0.00    -0.646 OA
ENDBRANCH  85  87
BRANCH  85  90
ATOM     90  CB  LYS d   1     -17.447 -47.326   9.886  0.00  0.00    -0.037 C 
ATOM     91  H   LYS d   1     -17.419 -48.085  10.667  0.00  0.00     0.036 H 
ATOM     92  H   LYS d   1     -16.771 -46.511  10.144  0.00  0.00     0.036 H 
BRANCH  90  93
ATOM     93  CG  LYS d   1     -17.010 -47.947   8.558  0.00  0.00    -0.061 C 
ATOM     94  H   LYS d   1     -16.950 -47.169   7.796  0.00  0.00     0.033 H 
ATOM     95  H   LYS d   1     -17.736 -48.700   8.254  0.00  0.00     0.033 H 
BRANCH  93  96
ATOM     96  CD  LYS d   1     -15.637 -48.602   8.726  0.00  0.00    -0.043 C 
ATOM     97  H   LYS d   1     -15.750 -49.551   9.250  0.00  0.00     0.035 H 
ATOM     98  H   LYS d   1     -14.988 -47.942   9.302  0.00  0.00     0.035 H 
BRANCH  96  99
ATOM     99  CE  LYS d   1     -15.017 -48.851   7.350  0.00  0.00     0.080 C 
ATOM    100  H   LYS d   1     -14.056 -49.351   7.470  0.00  0.00     0.075 H 
ATOM    101  H   LYS d   1     -14.870 -47.899   6.840  0.00  0.00     0.075 H 
BRANCH  99 102
ATOM    102  NZ  LYS d   1     -15.927 -49.711   6.544  0.00  0.00    -0.079 N 
ATOM    103  H   LYS d   1     -15.513 -49.876   5.627  0.00  0.00     0.274 HD
ATOM    104  H   LYS d   1     -16.064 -50.602   7.022  0.00  0.00     0.274 HD
ATOM    105  H   LYS d   1     -16.826 -49.242   6.433  0.00  0.00     0.274 HD
ENDBRANCH  99 102
ENDBRANCH  96  99
ENDBRANCH  93  96
ENDBRANCH  90  93
ENDBRANCH  85  90
ENDBRANCH  83  85
ENDBRANCH  79  81
BRANCH  79 106
ATOM    106  CB  SER d   1     -21.757 -43.657  12.079  0.00  0.00     0.044 C 
ATOM    107  H   SER d   1     -22.305 -44.560  12.348  0.00  0.00     0.077 H 
ATOM    108  H   SER d   1     -22.147 -43.266  11.139  0.00  0.00     0.077 H 
BRANCH 106 109
ATOM    109  OG  SER d   1     -21.914 -42.682  13.102  0.00  0.00    -0.398 OA
ATOM    110  H   SER d   1     -22.846 -42.473  13.203  0.00  0.00     0.209 HD
ENDBRANCH 106 109
ENDBRANCH  79 106
ENDBRANCH  77  79
ENDBRANCH  72  75
ENDBRANCH  70  72
ENDBRANCH  66  68
BRANCH  66 111
ATOM    111  CB  PHE d   1     -13.782 -41.008  12.597  0.00  0.00    -0.014 C 
ATOM    112  H   PHE d   1     -14.434 -40.142  12.482  0.00  0.00     0.043 H 
ATOM    113  H   PHE d   1     -13.483 -41.367  11.612  0.00  0.00     0.043 H 
BRANCH 111 114
ATOM    114  CG  PHE d   1     -12.558 -40.617  13.384  0.00  0.00    -0.056 A 
ATOM    115  CD1 PHE d   1     -12.682 -39.789  14.507  0.00  0.00    -0.077 A 
ATOM    116  CE1 PHE d   1     -11.544 -39.439  15.245  0.00  0.00    -0.082 A 
ATOM    117  H   PHE d   1     -13.662 -39.418  14.806  0.00  0.00     0.084 H 
ATOM    118  CZ  PHE d   1     -10.281 -39.921  14.860  0.00  0.00    -0.083 A 
ATOM    119  H   PHE d   1     -11.638 -38.793  16.118  0.00  0.00     0.083 H 
ATOM    120  CE2 PHE d   1     -10.162 -40.749  13.734  0.00  0.00    -0.082 A 
ATOM    121  H   PHE d   1      -9.395 -39.652  15.436  0.00  0.00     0.083 H 
ATOM    122  CD2 PHE d   1     -11.301 -41.094  12.998  0.00  0.00    -0.077 A 
ATOM    123  H   PHE d   1      -9.184 -41.123  13.433  0.00  0.00     0.083 H 
ATOM    124  H   PHE d   1     -11.209 -41.736  12.122  0.00  0.00     0.084 H 
ENDBRANCH 111 114
ENDBRANCH  66 111
ENDBRANCH   3  66
TORSDOF 35
