REMARK  11 active torsions:
REMARK  status: ('A' for Active; 'I' for Inactive)
REMARK    1  A    between atoms: O3B_8  and  PG_1 
REMARK    2  A    between atoms: PB_5  and  O3B_8 
REMARK    3  A    between atoms: O3A_12  and  PB_5 
REMARK    4  A    between atoms: PA_9  and  O3A_12 
REMARK    5  A    between atoms: PA_9  and  O5'_13 
REMARK    6  A    between atoms: O5'_13  and  C5'_14 
REMARK    7  A    between atoms: C5'_14  and  C4'_15 
REMARK    8  A    between atoms: C3'_17  and  O3'_18 
REMARK    9  A    between atoms: C2'_19  and  O2'_20 
REMARK   10  A    between atoms: C1'_21  and  N9_22 
REMARK   11  A    between atoms: C6_26  and  N6_27 
ROOT
ATOM      1  C4' ATP d   1     -10.397  -0.111  -5.274  0.00  0.00     0.089 C 
ATOM      2  O4' ATP d   1     -10.184  -1.426  -4.779  0.00  0.00    -0.353 OA
ATOM      3  C3' ATP d   1      -9.055   0.616  -5.107  0.00  0.00     0.091 C 
ATOM      4  C2' ATP d   1      -8.386  -0.160  -3.956  0.00  0.00     0.105 C 
ATOM      5  C1' ATP d   1      -9.344  -1.323  -3.648  0.00  0.00     0.139 C 
ATOM      6  H   ATP d   1     -11.191   0.415  -4.744  0.00  0.00     0.090 H 
ATOM      7  H   ATP d   1      -8.443   0.610  -6.009  0.00  0.00     0.091 H 
ATOM      8  H   ATP d   1      -7.388  -0.432  -4.299  0.00  0.00     0.093 H 
ATOM      9  H   ATP d   1      -9.916  -1.132  -2.740  0.00  0.00     0.122 H 
ENDROOT
BRANCH   1  10
ATOM     10  C5' ATP d   1     -10.807  -0.187  -6.746  0.00  0.00     0.058 C 
ATOM     11  H   ATP d   1     -10.806   0.823  -7.156  0.00  0.00     0.079 H 
ATOM     12  H   ATP d   1     -10.101  -0.834  -7.267  0.00  0.00     0.079 H 
BRANCH  10  13
ATOM     13  O5' ATP d   1     -12.110  -0.731  -6.900  0.00  0.00    -0.287 OA
BRANCH  13  14
ATOM     14  PA  ATP d   1     -12.545  -1.412  -8.263  0.00  0.00     0.417 P 
ATOM     15  O1A ATP d   1     -14.022  -1.438  -8.262  0.00  0.00    -0.624 OA
ATOM     16  O2A ATP d   1     -11.849  -0.718  -9.362  0.00  0.00    -0.624 OA
BRANCH  14  17
ATOM     17  O3A ATP d   1     -11.939  -2.815  -8.157  0.00  0.00    -0.180 OA
BRANCH  17  18
ATOM     18  PB  ATP d   1     -12.680  -4.089  -8.567  0.00  0.00     0.428 P 
ATOM     19  O1B ATP d   1     -11.702  -5.202  -8.579  0.00  0.00    -0.624 OA
ATOM     20  O2B ATP d   1     -13.871  -4.227  -7.688  0.00  0.00    -0.624 OA
BRANCH  18  21
ATOM     21  O3B ATP d   1     -13.087  -3.863 -10.023  0.00  0.00    -0.173 OA
BRANCH  21  22
ATOM     22  PG  ATP d   1     -14.172  -4.468 -10.871  0.00  0.00     0.431 P 
ATOM     23  O1G ATP d   1     -13.477  -4.841 -12.115  0.00  0.00    -0.616 OA
ATOM     24  O2G ATP d   1     -14.685  -5.602 -10.112  0.00  0.00    -0.616 OA
ATOM     25  O3G ATP d   1     -15.096  -3.342 -11.008  0.00  0.00    -0.616 OA
ENDBRANCH  21  22
ENDBRANCH  18  21
ENDBRANCH  17  18
ENDBRANCH  14  17
ENDBRANCH  13  14
ENDBRANCH  10  13
ENDBRANCH   1  10
BRANCH   3  26
ATOM     26  O3' ATP d   1      -9.199   2.014  -4.880  0.00  0.00    -0.390 OA
ATOM     27  H   ATP d   1      -8.331   2.413  -4.784  0.00  0.00     0.210 HD
ENDBRANCH   3  26
BRANCH   5  28
ATOM     28  N9  ATP d   1      -8.622  -2.596  -3.368  0.00  0.00    -0.294 N 
ATOM     29  C8  ATP d   1      -8.796  -3.846  -3.924  0.00  0.00     0.071 A 
ATOM     30  N7  ATP d   1      -8.023  -4.778  -3.418  0.00  0.00    -0.236 NA
ATOM     31  H   ATP d   1      -9.516  -4.043  -4.718  0.00  0.00     0.144 H 
ATOM     32  C5  ATP d   1      -7.253  -4.076  -2.472  0.00  0.00     0.149 A 
ATOM     33  C6  ATP d   1      -6.185  -4.401  -1.592  0.00  0.00     0.155 A 
ATOM     34  C4  ATP d   1      -7.613  -2.753  -2.442  0.00  0.00     0.167 A 
ATOM     35  N1  ATP d   1      -5.608  -3.468  -0.846  0.00  0.00    -0.222 NA
ATOM     36  C2  ATP d   1      -6.068  -2.236  -0.922  0.00  0.00     0.091 A 
ATOM     37  N3  ATP d   1      -7.052  -1.770  -1.681  0.00  0.00    -0.222 NA
ATOM     38  H   ATP d   1      -5.577  -1.505  -0.279  0.00  0.00     0.146 H 
BRANCH  33  39
ATOM     39  N6  ATP d   1      -5.632  -5.587  -1.458  0.00  0.00    -0.382 N 
ATOM     40  H   ATP d   1      -5.968  -6.372  -2.015  0.00  0.00     0.157 HD
ATOM     41  H   ATP d   1      -4.867  -5.721  -0.797  0.00  0.00     0.157 HD
ENDBRANCH  33  39
ENDBRANCH   5  28
BRANCH   4  42
ATOM     42  O2' ATP d   1      -8.153   0.541  -2.749  0.00  0.00    -0.388 OA
ATOM     43  H   ATP d   1      -7.735  -0.046  -2.115  0.00  0.00     0.210 HD
ENDBRANCH   4  42
TORSDOF 11
