REMARK WARNING: 32 MAX_TORS EXCEEDED!!!
REMARK  84 active torsions:
REMARK  status: ('A' for Active; 'I' for Inactive)
REMARK    1  A    between atoms: N_1  and  CA_2 
REMARK    2  A    between atoms: CA_2  and  C_3 
REMARK    3  A    between atoms: CA_2  and  CB_5 
REMARK       I    between atoms: C_3  and  N_9 
REMARK    4  A    between atoms: CB_5  and  CG1_6 
REMARK    5  A    between atoms: CB_5  and  CG2_7 
REMARK    6  A    between atoms: CG1_6  and  CD1_8 
REMARK    7  A    between atoms: N_9  and  CA_10 
REMARK    8  A    between atoms: CA_10  and  C_11 
REMARK       I    between atoms: C_11  and  N_13 
REMARK    9  A    between atoms: N_13  and  CA_14 
REMARK   10  A    between atoms: CA_14  and  C_15 
REMARK   11  A    between atoms: CA_14  and  CB_17 
REMARK       I    between atoms: C_15  and  N_20 
REMARK   12  A    between atoms: CB_17  and  OG1_18 
REMARK   13  A    between atoms: CB_17  and  CG2_19 
REMARK   14  A    between atoms: N_20  and  CA_21 
REMARK   15  A    between atoms: CA_21  and  C_22 
REMARK   16  A    between atoms: CA_21  and  CB_24 
REMARK       I    between atoms: C_22  and  N_28 
REMARK   17  A    between atoms: CB_24  and  CG_25 
REMARK   18  A    between atoms: N_28  and  CA_29 
REMARK   19  A    between atoms: CA_29  and  C_30 
REMARK   20  A    between atoms: CA_29  and  CB_32 
REMARK       I    between atoms: C_30  and  N_37 
REMARK   21  A    between atoms: CB_32  and  CG_33 
REMARK   22  A    between atoms: CG_33  and  CD_34 
REMARK   23  A    between atoms: CD_34  and  CE_35 
REMARK   24  A    between atoms: CE_35  and  NZ_36 
REMARK   25  A    between atoms: N_37  and  CA_38 
REMARK   26  A    between atoms: CA_38  and  C_39 
REMARK   27  A    between atoms: CA_38  and  CB_41 
REMARK       I    between atoms: C_39  and  N_46 
REMARK   28  A    between atoms: CB_41  and  CG_42 
REMARK   29  A    between atoms: CG_42  and  CD_43 
REMARK   30  A    between atoms: N_46  and  CA_47 
REMARK   31  A    between atoms: CA_47  and  C_48 
REMARK   32  A    between atoms: CA_47  and  CB_50 
REMARK       I    between atoms: C_48  and  N_54 
REMARK   33  A    between atoms: CB_50  and  CG_51 
REMARK   34  A    between atoms: CG_51  and  CD1_52 
REMARK   35  A    between atoms: CG_51  and  CD2_53 
REMARK   36  A    between atoms: N_54  and  CA_55 
REMARK   37  A    between atoms: CA_55  and  C_56 
REMARK   38  A    between atoms: CA_55  and  CB_58 
REMARK       I    between atoms: C_56  and  N_60 
REMARK   39  A    between atoms: CB_58  and  OG_59 
REMARK   40  A    between atoms: N_60  and  CA_61 
REMARK   41  A    between atoms: CA_61  and  C_62 
REMARK   42  A    between atoms: CA_61  and  CB_64 
REMARK       I    between atoms: C_62  and  N_68 
REMARK   43  A    between atoms: CB_64  and  CG_65 
REMARK   44  A    between atoms: N_68  and  CA_69 
REMARK   45  A    between atoms: CA_69  and  C_70 
REMARK   46  A    between atoms: CA_69  and  CB_72 
REMARK       I    between atoms: C_70  and  N_76 
REMARK   47  A    between atoms: CB_72  and  CG_73 
REMARK   48  A    between atoms: CG_73  and  CD1_74 
REMARK   49  A    between atoms: CG_73  and  CD2_75 
REMARK   50  A    between atoms: N_76  and  CA_77 
REMARK   51  A    between atoms: CA_77  and  C_78 
REMARK   52  A    between atoms: CA_77  and  CB_80 
REMARK       I    between atoms: C_78  and  N_84 
REMARK   53  A    between atoms: CB_80  and  CG_81 
REMARK   54  A    between atoms: CG_81  and  CD1_82 
REMARK   55  A    between atoms: CG_81  and  CD2_83 
REMARK   56  A    between atoms: N_84  and  CA_85 
REMARK   57  A    between atoms: CA_85  and  C_86 
REMARK   58  A    between atoms: CA_85  and  CB_88 
REMARK       I    between atoms: C_86  and  N_92 
REMARK   59  A    between atoms: CB_88  and  CG_89 
REMARK   60  A    between atoms: N_92  and  CA_93 
REMARK   61  A    between atoms: CA_93  and  C_94 
REMARK   62  A    between atoms: CA_93  and  CB_96 
REMARK       I    between atoms: C_94  and  N_103 
REMARK   63  A    between atoms: CB_96  and  CG_97 
REMARK   64  A    between atoms: N_103  and  CA_104 
REMARK   65  A    between atoms: CA_104  and  C_105 
REMARK   66  A    between atoms: CA_104  and  CB_107 
REMARK       I    between atoms: C_105  and  N_109 
REMARK   67  A    between atoms: CB_107  and  OG_108 
REMARK   68  A    between atoms: N_109  and  CA_110 
REMARK   69  A    between atoms: CA_110  and  C_111 
REMARK   70  A    between atoms: CA_110  and  CB_113 
REMARK       I    between atoms: C_111  and  N_114 
REMARK   71  A    between atoms: N_114  and  CA_115 
REMARK   72  A    between atoms: CA_115  and  C_116 
REMARK   73  A    between atoms: CA_115  and  CB_118 
REMARK       I    between atoms: C_116  and  N_122 
REMARK   74  A    between atoms: CB_118  and  CG_119 
REMARK   75  A    between atoms: CG_119  and  SD_120 
REMARK   76  A    between atoms: SD_120  and  CE_121 
REMARK   77  A    between atoms: N_122  and  CA_123 
REMARK   78  A    between atoms: CA_123  and  C_124 
REMARK   79  A    between atoms: CA_123  and  CB_126 
REMARK       I    between atoms: C_124  and  N_133 
REMARK   80  A    between atoms: CB_126  and  CG_127 
REMARK   81  A    between atoms: N_133  and  CA_134 
REMARK   82  A    between atoms: CA_134  and  C_135 
REMARK   83  A    between atoms: CA_134  and  CB_137 
REMARK   84  A    between atoms: CB_137  and  OG_138 
ROOT
ATOM      1  CA  LEU d   1       9.089  -4.377   2.755  0.00  0.00     0.089 C 
ATOM      2  H68 LEU d   1       8.741  -4.892   3.663  0.00  0.00     0.087 H 
ENDROOT
BRANCH   1   3
ATOM      3  N   LEU d   1      10.480  -4.005   2.946  0.00  0.00    -0.346 N 
ATOM      4  C   ASP d   1      11.031  -3.984   4.154  0.00  0.00     0.241 C 
ATOM      5  O   ASP d   1      10.410  -4.276   5.176  0.00  0.00    -0.271 OA
ATOM      6  H67 LEU d   1      11.034  -3.760   2.151  0.00  0.00     0.163 HD
BRANCH   4   7
ATOM      7  CA  ASP d   1      12.501  -3.579   4.229  0.00  0.00     0.098 C 
ATOM      8  H64 ASP d   1      13.073  -4.423   4.641  0.00  0.00     0.088 H 
BRANCH   7   9
ATOM      9  N   ASP d   1      13.041  -3.264   2.904  0.00  0.00    -0.345 N 
ATOM     10  C   SER d   1      13.177  -4.202   1.965  0.00  0.00     0.243 C 
ATOM     11  O   SER d   1      12.866  -5.376   2.148  0.00  0.00    -0.271 OA
ATOM     12  H63 ASP d   1      13.314  -2.324   2.699  0.00  0.00     0.163 HD
BRANCH  10  13
ATOM     13  CA  SER d   1      13.758  -3.753   0.628  0.00  0.00     0.109 C 
ATOM     14  H59 SER d   1      13.442  -4.476  -0.139  0.00  0.00     0.090 H 
BRANCH  13  15
ATOM     15  N   SER d   1      13.262  -2.437   0.236  0.00  0.00    -0.344 N 
ATOM     16  C   LEU d   1      12.071  -2.273  -0.317  0.00  0.00     0.241 C 
ATOM     17  O   LEU d   1      11.304  -3.208  -0.543  0.00  0.00    -0.271 OA
ATOM     18  H58 SER d   1      13.840  -1.635   0.390  0.00  0.00     0.163 HD
BRANCH  16  19
ATOM     19  CA  LEU d   1      11.691  -0.838  -0.676  0.00  0.00     0.089 C 
ATOM     20  H48 LEU d   1      10.596  -0.743  -0.623  0.00  0.00     0.087 H 
BRANCH  19  21
ATOM     21  N   LEU d   1      12.283   0.106   0.261  0.00  0.00    -0.346 N 
ATOM     22  C   GLU d   1      11.653   0.442   1.383  0.00  0.00     0.241 C 
ATOM     23  O   GLU d   1      10.556  -0.016   1.690  0.00  0.00    -0.271 OA
ATOM     24  H47 LEU d   1      13.176   0.507   0.058  0.00  0.00     0.163 HD
BRANCH  22  25
ATOM     25  CA  GLU d   1      12.360   1.437   2.297  0.00  0.00     0.090 C 
ATOM     26  H42 GLU d   1      12.116   1.177   3.338  0.00  0.00     0.087 H 
BRANCH  25  27
ATOM     27  N   GLU d   1      13.801   1.356   2.138  0.00  0.00    -0.346 N 
ATOM     28  C   LYS d   1      14.469   0.260   2.476  0.00  0.00     0.241 C 
ATOM     29  O   LYS d   1      13.925  -0.742   2.936  0.00  0.00    -0.271 OA
ATOM     30  H41 GLU d   1      14.299   2.140   1.767  0.00  0.00     0.163 HD
BRANCH  28  31
ATOM     31  CA  LYS d   1      15.974   0.302   2.266  0.00  0.00     0.089 C 
ATOM     32  H29 LYS d   1      16.350  -0.730   2.211  0.00  0.00     0.087 H 
BRANCH  31  33
ATOM     33  N   LYS d   1      16.298   0.977   1.018  0.00  0.00    -0.346 N 
ATOM     34  C   ASP d   1      15.824   0.546  -0.146  0.00  0.00     0.241 C 
ATOM     35  O   ASP d   1      15.090  -0.437  -0.247  0.00  0.00    -0.271 OA
ATOM     36  H28 LYS d   1      16.890   1.783   1.037  0.00  0.00     0.163 HD
BRANCH  34  37
ATOM     37  CA  ASP d   1      16.243   1.342  -1.379  0.00  0.00     0.098 C 
ATOM     38  H25 ASP d   1      15.683   2.288  -1.388  0.00  0.00     0.088 H 
BRANCH  37  39
ATOM     39  N   ASP d   1      17.669   1.654  -1.340  0.00  0.00    -0.345 N 
ATOM     40  C   THR d   1      18.580   0.746  -0.997  0.00  0.00     0.243 C 
ATOM     41  O   THR d   1      18.295  -0.412  -0.691  0.00  0.00    -0.271 OA
ATOM     42  H24 ASP d   1      17.970   2.577  -1.578  0.00  0.00     0.163 HD
BRANCH  40  43
ATOM     43  CA  THR d   1      20.030   1.213  -0.995  0.00  0.00     0.113 C 
ATOM     44  H18 THR d   1      20.073   2.224  -1.426  0.00  0.00     0.091 H 
BRANCH  43  45
ATOM     45  N   THR d   1      20.552   1.270   0.368  0.00  0.00    -0.344 N 
ATOM     46  C   GLY d   1      20.627   0.186   1.135  0.00  0.00     0.236 C 
ATOM     47  O   GLY d   1      20.267  -0.930   0.757  0.00  0.00    -0.272 OA
ATOM     48  H17 THR d   1      20.861   2.148   0.734  0.00  0.00     0.163 HD
BRANCH  46  49
ATOM     49  CA  GLY d   1      21.185   0.384   2.533  0.00  0.00     0.069 C 
ATOM     50  H15 GLY d   1      21.900   1.220   2.512  0.00  0.00     0.078 H 
ATOM     51  H16 GLY d   1      20.355   0.629   3.212  0.00  0.00     0.078 H 
BRANCH  49  52
ATOM     52  N   GLY d   1      21.864  -0.797   3.035  0.00  0.00    -0.351 N 
ATOM     53  C   ILE d   1      21.482  -1.364   4.180  0.00  0.00     0.249 C 
ATOM     54  O   ILE d   1      20.556  -0.918   4.856  0.00  0.00    -0.271 OA
ATOM     55  H14 GLY d   1      22.625  -1.189   2.518  0.00  0.00     0.163 HD
BRANCH  53  56
ATOM     56  CA  ILE d   1      22.265  -2.607   4.639  0.00  0.00     0.179 C 
ATOM     57  H4  ILE d   1      23.314  -2.310   4.786  0.00  0.00     0.099 H 
BRANCH  56  58
ATOM     58  N   ILE d   1      21.761  -3.120   5.918  0.00  0.00    -0.066 N 
ATOM     59  H1  ILE d   1      21.795  -2.388   6.610  0.00  0.00     0.275 HD
ATOM     60  H2  ILE d   1      22.333  -3.894   6.219  0.00  0.00     0.275 HD
ATOM     61  H3  ILE d   1      20.809  -3.430   5.804  0.00  0.00     0.275 HD
ENDBRANCH  56  58
BRANCH  56  62
ATOM     62  CB  ILE d   1      22.228  -3.707   3.547  0.00  0.00    -0.022 C 
ATOM     63  H5  ILE d   1      22.583  -4.645   3.998  0.00  0.00     0.043 H 
BRANCH  62  64
ATOM     64  CG1 ILE d   1      23.167  -3.353   2.386  0.00  0.00    -0.063 C 
ATOM     65  H6  ILE d   1      23.755  -2.469   2.674  0.00  0.00     0.033 H 
ATOM     66  H7  ILE d   1      22.553  -3.114   1.505  0.00  0.00     0.033 H 
BRANCH  64  67
ATOM     67  CD1 ILE d   1      24.126  -4.462   2.011  0.00  0.00    -0.076 C 
ATOM     68  H11 ILE d   1      24.761  -4.131   1.176  0.00  0.00     0.027 H 
ATOM     69  H12 ILE d   1      23.556  -5.353   1.708  0.00  0.00     0.027 H 
ATOM     70  H13 ILE d   1      24.758  -4.708   2.877  0.00  0.00     0.027 H 
ENDBRANCH  64  67
ENDBRANCH  62  64
BRANCH  62  71
ATOM     71  CG2 ILE d   1      20.807  -3.935   3.046  0.00  0.00    -0.070 C 
ATOM     72  H8  ILE d   1      20.155  -4.187   3.895  0.00  0.00     0.028 H 
ATOM     73  H9  ILE d   1      20.802  -4.763   2.322  0.00  0.00     0.028 H 
ATOM     74  H10 ILE d   1      20.439  -3.020   2.559  0.00  0.00     0.028 H 
ENDBRANCH  62  71
ENDBRANCH  56  62
ENDBRANCH  53  56
ENDBRANCH  49  52
ENDBRANCH  46  49
ENDBRANCH  43  45
BRANCH  43  75
ATOM     75  CB  THR d   1      20.878   0.277  -1.860  0.00  0.00     0.060 C 
ATOM     76  H19 THR d   1      20.567  -0.755  -1.641  0.00  0.00     0.086 H 
BRANCH  75  77
ATOM     77  OG1 THR d   1      22.259   0.412  -1.558  0.00  0.00    -0.393 OA
ATOM     78  H20 THR d   1      22.761  -0.178  -2.107  0.00  0.00     0.210 HD
ENDBRANCH  75  77
BRANCH  75  79
ATOM     79  CG2 THR d   1      20.707   0.522  -3.344  0.00  0.00    -0.050 C 
ATOM     80  H21 THR d   1      21.340  -0.180  -3.907  0.00  0.00     0.031 H 
ATOM     81  H22 THR d   1      21.003   1.554  -3.582  0.00  0.00     0.031 H 
ATOM     82  H23 THR d   1      19.654   0.369  -3.622  0.00  0.00     0.031 H 
ENDBRANCH  75  79
ENDBRANCH  43  75
ENDBRANCH  40  43
ENDBRANCH  37  39
BRANCH  37  83
ATOM     83  CB  ASP d   1      15.898   0.562  -2.652  0.00  0.00     0.043 C 
ATOM     84  H26 ASP d   1      16.251   1.135  -3.522  0.00  0.00     0.052 H 
ATOM     85  H27 ASP d   1      14.806   0.446  -2.708  0.00  0.00     0.052 H 
BRANCH  83  86
ATOM     86  CG  ASP d   1      16.535  -0.814  -2.686  0.00  0.00     0.175 C 
ATOM     87  OD1 ASP d   1      15.915  -1.770  -2.174  0.00  0.00    -0.648 OA
ATOM     88  OD2 ASP d   1      17.655  -0.936  -3.225  0.00  0.00    -0.648 OA
ENDBRANCH  83  86
ENDBRANCH  37  83
ENDBRANCH  34  37
ENDBRANCH  31  33
BRANCH  31  89
ATOM     89  CB  LYS d   1      16.643   1.002   3.450  0.00  0.00    -0.038 C 
ATOM     90  H30 LYS d   1      15.896   1.129   4.247  0.00  0.00     0.036 H 
ATOM     91  H31 LYS d   1      16.996   1.989   3.117  0.00  0.00     0.036 H 
BRANCH  89  92
ATOM     92  CG  LYS d   1      17.825   0.235   4.017  0.00  0.00    -0.061 C 
ATOM     93  H32 LYS d   1      18.607   0.950   4.311  0.00  0.00     0.033 H 
ATOM     94  H33 LYS d   1      18.218  -0.439   3.242  0.00  0.00     0.033 H 
BRANCH  92  95
ATOM     95  CD  LYS d   1      17.426  -0.589   5.233  0.00  0.00    -0.043 C 
ATOM     96  H34 LYS d   1      17.877  -1.589   5.151  0.00  0.00     0.035 H 
ATOM     97  H35 LYS d   1      16.330  -0.682   5.258  0.00  0.00     0.035 H 
BRANCH  95  98
ATOM     98  CE  LYS d   1      17.897   0.061   6.525  0.00  0.00     0.080 C 
ATOM     99  H36 LYS d   1      17.097   0.712   6.908  0.00  0.00     0.075 H 
ATOM    100  H37 LYS d   1      18.791   0.666   6.313  0.00  0.00     0.075 H 
BRANCH  98 101
ATOM    101  NZ  LYS d   1      18.235  -0.949   7.566  0.00  0.00    -0.079 N 
ATOM    102  H38 LYS d   1      18.542  -0.479   8.403  0.00  0.00     0.274 HD
ATOM    103  H39 LYS d   1      18.973  -1.547   7.227  0.00  0.00     0.274 HD
ATOM    104  H40 LYS d   1      17.420  -1.505   7.772  0.00  0.00     0.274 HD
ENDBRANCH  98 101
ENDBRANCH  95  98
ENDBRANCH  92  95
ENDBRANCH  89  92
ENDBRANCH  31  89
ENDBRANCH  28  31
ENDBRANCH  25  27
BRANCH  25 105
ATOM    105  CB  GLU d   1      11.866   2.862   2.034  0.00  0.00    -0.029 C 
ATOM    106  H43 GLU d   1      12.523   3.559   2.574  0.00  0.00     0.037 H 
ATOM    107  H44 GLU d   1      10.841   2.948   2.423  0.00  0.00     0.037 H 
BRANCH 105 108
ATOM    108  CG  GLU d   1      11.853   3.259   0.569  0.00  0.00     0.018 C 
ATOM    109  H45 GLU d   1      10.930   3.821   0.365  0.00  0.00     0.049 H 
ATOM    110  H46 GLU d   1      11.868   2.345  -0.043  0.00  0.00     0.049 H 
BRANCH 108 111
ATOM    111  CD  GLU d   1      13.039   4.119   0.186  0.00  0.00     0.172 C 
ATOM    112  OE1 GLU d   1      14.103   3.553  -0.139  0.00  0.00    -0.648 OA
ATOM    113  OE2 GLU d   1      12.905   5.361   0.213  0.00  0.00    -0.648 OA
ENDBRANCH 108 111
ENDBRANCH 105 108
ENDBRANCH  25 105
ENDBRANCH  22  25
ENDBRANCH  19  21
BRANCH  19 114
ATOM    114  CB  LEU d   1      12.143  -0.514  -2.102  0.00  0.00    -0.035 C 
ATOM    115  H49 LEU d   1      12.679  -1.389  -2.498  0.00  0.00     0.037 H 
ATOM    116  H50 LEU d   1      12.827   0.346  -2.057  0.00  0.00     0.037 H 
BRANCH 114 117
ATOM    117  CG  LEU d   1      11.014  -0.172  -3.069  0.00  0.00    -0.059 C 
ATOM    118  H51 LEU d   1      11.446   0.001  -4.066  0.00  0.00     0.038 H 
BRANCH 117 119
ATOM    119  CD1 LEU d   1      10.040  -1.335  -3.160  0.00  0.00    -0.073 C 
ATOM    120  H52 LEU d   1       9.229  -1.081  -3.859  0.00  0.00     0.028 H 
ATOM    121  H53 LEU d   1       9.616  -1.537  -2.165  0.00  0.00     0.028 H 
ATOM    122  H54 LEU d   1      10.569  -2.229  -3.522  0.00  0.00     0.028 H 
ENDBRANCH 117 119
BRANCH 117 123
ATOM    123  CD2 LEU d   1      10.303   1.100  -2.626  0.00  0.00    -0.073 C 
ATOM    124  H55 LEU d   1      11.029   1.925  -2.568  0.00  0.00     0.028 H 
ATOM    125  H56 LEU d   1       9.849   0.941  -1.637  0.00  0.00     0.028 H 
ATOM    126  H57 LEU d   1       9.517   1.353  -3.353  0.00  0.00     0.028 H 
ENDBRANCH 117 123
ENDBRANCH 114 117
ENDBRANCH  19 114
ENDBRANCH  16  19
ENDBRANCH  13  15
BRANCH  13 127
ATOM    127  CB  SER d   1      15.286  -3.755   0.686  0.00  0.00     0.044 C 
ATOM    128  H60 SER d   1      15.610  -4.192   1.642  0.00  0.00     0.077 H 
ATOM    129  H61 SER d   1      15.650  -2.720   0.614  0.00  0.00     0.077 H 
BRANCH 127 130
ATOM    130  OG  SER d   1      15.832  -4.514  -0.379  0.00  0.00    -0.398 OA
ATOM    131  H62 SER d   1      15.558  -4.138  -1.207  0.00  0.00     0.209 HD
ENDBRANCH 127 130
ENDBRANCH  13 127
ENDBRANCH  10  13
ENDBRANCH   7   9
BRANCH   7 132
ATOM    132  CB  ASP d   1      12.653  -2.380   5.170  0.00  0.00     0.043 C 
ATOM    133  H65 ASP d   1      11.652  -1.997   5.420  0.00  0.00     0.052 H 
ATOM    134  H66 ASP d   1      13.227  -1.596   4.654  0.00  0.00     0.052 H 
BRANCH 132 135
ATOM    135  CG  ASP d   1      13.370  -2.743   6.455  0.00  0.00     0.175 C 
ATOM    136  OD1 ASP d   1      13.151  -3.866   6.960  0.00  0.00    -0.648 OA
ATOM    137  OD2 ASP d   1      14.150  -1.907   6.956  0.00  0.00    -0.648 OA
ENDBRANCH 132 135
ENDBRANCH   7 132
ENDBRANCH   4   7
ENDBRANCH   1   3
BRANCH   1 138
ATOM    138  C   LEU d   1       8.928  -5.330   1.572  0.00  0.00     0.241 C 
ATOM    139  O   LEU d   1       8.082  -6.215   1.609  0.00  0.00    -0.271 OA
ATOM    140  N   LEU d   1       9.745  -5.150   0.530  0.00  0.00    -0.346 N 
ATOM    141  H78 LEU d   1      10.415  -4.409   0.557  0.00  0.00     0.163 HD
BRANCH 140 142
ATOM    142  CA  LEU d   1       9.680  -6.014  -0.649  0.00  0.00     0.089 C 
ATOM    143  H79 LEU d   1       8.751  -6.600  -0.596  0.00  0.00     0.087 H 
BRANCH 142 144
ATOM    144  C   LEU d   1      10.861  -6.976  -0.674  0.00  0.00     0.241 C 
ATOM    145  O   LEU d   1      11.930  -6.679  -0.143  0.00  0.00    -0.271 OA
ATOM    146  N   ASP d   1      10.659  -8.129  -1.303  0.00  0.00    -0.346 N 
ATOM    147  H89 ASP d   1       9.765  -8.309  -1.714  0.00  0.00     0.163 HD
BRANCH 146 148
ATOM    148  CA  ASP d   1      11.705  -9.138  -1.410  0.00  0.00     0.098 C 
ATOM    149  H90 ASP d   1      11.319  -9.973  -2.013  0.00  0.00     0.088 H 
BRANCH 148 150
ATOM    150  C   ASP d   1      12.095  -9.679  -0.038  0.00  0.00     0.241 C 
ATOM    151  O   ASP d   1      12.117  -8.947   0.952  0.00  0.00    -0.271 OA
ATOM    152  N   PHE d   1      12.402 -10.972   0.008  0.00  0.00    -0.346 N 
ATOM    153  H93 PHE d   1      12.364 -11.510  -0.834  0.00  0.00     0.163 HD
BRANCH 152 154
ATOM    154  CA  PHE d   1      12.793 -11.630   1.250  0.00  0.00     0.093 C 
ATOM    155  H94 PHE d   1      13.428 -10.940   1.825  0.00  0.00     0.088 H 
BRANCH 154 156
ATOM    156  C   PHE d   1      13.593 -12.899   0.961  0.00  0.00     0.241 C 
ATOM    157  O   PHE d   1      14.554 -13.210   1.665  0.00  0.00    -0.271 OA
ATOM    158  N   SER d   1      13.191 -13.624  -0.079  0.00  0.00    -0.344 N 
ATOM    159 2H10 SER d   1      12.403 -13.317  -0.612  0.00  0.00     0.163 HD
BRANCH 158 160
ATOM    160  CA  SER d   1      13.873 -14.856  -0.460  0.00  0.00     0.109 C 
ATOM    161 3H10 SER d   1      14.124 -15.412   0.455  0.00  0.00     0.090 H 
BRANCH 160 162
ATOM    162  C   SER d   1      15.164 -14.550  -1.212  0.00  0.00     0.243 C 
ATOM    163  O   SER d   1      16.175 -15.225  -1.028  0.00  0.00    -0.271 OA
ATOM    164  N   ALA d   1      15.126 -13.523  -2.055  0.00  0.00    -0.346 N 
ATOM    165 7H10 ALA d   1      14.275 -13.009  -2.162  0.00  0.00     0.163 HD
BRANCH 164 166
ATOM    166  CA  ALA d   1      16.298 -13.129  -2.827  0.00  0.00     0.086 C 
ATOM    167 8H10 ALA d   1      16.623 -13.996  -3.421  0.00  0.00     0.086 H 
BRANCH 166 168
ATOM    168  C   ALA d   1      17.454 -12.720  -1.916  0.00  0.00     0.240 C 
ATOM    169  O   ALA d   1      18.596 -12.615  -2.362  0.00  0.00    -0.271 OA
ATOM    170  N   MET d   1      17.155 -12.487  -0.638  0.00  0.00    -0.346 N 
ATOM    171 2H11 MET d   1      16.209 -12.587  -0.331  0.00  0.00     0.163 HD
BRANCH 170 172
ATOM    172  CA  MET d   1      18.178 -12.090   0.322  0.00  0.00     0.090 C 
ATOM    173 3H11 MET d   1      19.070 -11.767  -0.235  0.00  0.00     0.087 H 
BRANCH 172 174
ATOM    174  C   MET d   1      18.569 -13.261   1.222  0.00  0.00     0.241 C 
ATOM    175  O   MET d   1      19.720 -13.378   1.641  0.00  0.00    -0.271 OA
ATOM    176  N   PHE d   1      17.605 -14.126   1.517  0.00  0.00    -0.346 N 
ATOM    177 1H12 PHE d   1      16.687 -13.981   1.147  0.00  0.00     0.163 HD
BRANCH 176 178
ATOM    178  CA  PHE d   1      17.856 -15.283   2.369  0.00  0.00     0.093 C 
ATOM    179 2H12 PHE d   1      18.770 -15.092   2.951  0.00  0.00     0.088 H 
BRANCH 178 180
ATOM    180  C   PHE d   1      18.072 -16.544   1.534  0.00  0.00     0.241 C 
ATOM    181  O   PHE d   1      17.817 -17.656   1.995  0.00  0.00    -0.271 OA
ATOM    182  N   SER d   1      18.547 -16.364   0.304  0.00  0.00    -0.343 N 
ATOM    183 0H13 SER d   1      18.736 -15.435  -0.015  0.00  0.00     0.163 HD
BRANCH 182 184
ATOM    184  CA  SER d   1      18.799 -17.489  -0.591  0.00  0.00     0.116 C 
ATOM    185 1H13 SER d   1      18.975 -18.387   0.020  0.00  0.00     0.093 H 
BRANCH 184 186
ATOM    186  C   SER d   1      20.035 -17.237  -1.449  0.00  0.00     0.198 C 
ATOM    187  O   SER d   1      20.301 -16.105  -1.855  0.00  0.00    -0.646 OA
ATOM    188  OXT SER d   1      20.791 -18.161  -1.753  0.00  0.00    -0.646 OA
ENDBRANCH 184 186
BRANCH 184 189
ATOM    189  CB  SER d   1      17.585 -17.739  -1.488  0.00  0.00     0.045 C 
ATOM    190 2H13 SER d   1      17.736 -17.225  -2.449  0.00  0.00     0.077 H 
ATOM    191 3H13 SER d   1      16.686 -17.339  -0.996  0.00  0.00     0.077 H 
BRANCH 189 192
ATOM    192  OG  SER d   1      17.404 -19.124  -1.727  0.00  0.00    -0.398 OA
ATOM    193 4H13 SER d   1      16.646 -19.252  -2.285  0.00  0.00     0.209 HD
ENDBRANCH 189 192
ENDBRANCH 184 189
ENDBRANCH 182 184
ENDBRANCH 178 180
BRANCH 178 194
ATOM    194  CB  PHE d   1      16.693 -15.486   3.342  0.00  0.00    -0.014 C 
ATOM    195 3H12 PHE d   1      16.131 -16.379   3.031  0.00  0.00     0.043 H 
ATOM    196 4H12 PHE d   1      16.038 -14.604   3.291  0.00  0.00     0.043 H 
BRANCH 194 197
ATOM    197  CG  PHE d   1      17.129 -15.672   4.768  0.00  0.00    -0.056 A 
ATOM    198  CD1 PHE d   1      17.415 -16.937   5.259  0.00  0.00    -0.077 A 
ATOM    199  CE1 PHE d   1      17.816 -17.112   6.571  0.00  0.00    -0.082 A 
ATOM    200 5H12 PHE d   1      17.323 -17.798   4.607  0.00  0.00     0.084 H 
ATOM    201  CZ  PHE d   1      17.936 -16.019   7.407  0.00  0.00    -0.083 A 
ATOM    202 7H12 PHE d   1      18.036 -18.106   6.943  0.00  0.00     0.083 H 
ATOM    203  CE2 PHE d   1      17.654 -14.753   6.930  0.00  0.00    -0.082 A 
ATOM    204 9H12 PHE d   1      18.251 -16.154   8.435  0.00  0.00     0.083 H 
ATOM    205  CD2 PHE d   1      17.253 -14.584   5.617  0.00  0.00    -0.077 A 
ATOM    206 8H12 PHE d   1      17.747 -13.893   7.584  0.00  0.00     0.083 H 
ATOM    207 6H12 PHE d   1      17.033 -13.589   5.248  0.00  0.00     0.084 H 
ENDBRANCH 194 197
ENDBRANCH 178 194
ENDBRANCH 176 178
ENDBRANCH 172 174
BRANCH 172 208
ATOM    208  CB  MET d   1      17.682 -10.917   1.171  0.00  0.00    -0.030 C 
ATOM    209 4H11 MET d   1      17.594 -11.255   2.214  0.00  0.00     0.037 H 
ATOM    210 5H11 MET d   1      16.693 -10.611   0.799  0.00  0.00     0.037 H 
BRANCH 208 211
ATOM    211  CG  MET d   1      18.604  -9.711   1.132  0.00  0.00    -0.021 C 
ATOM    212 6H11 MET d   1      18.061  -8.840   1.527  0.00  0.00     0.049 H 
ATOM    213 7H11 MET d   1      18.892  -9.521   0.087  0.00  0.00     0.049 H 
BRANCH 211 214
ATOM    214  SD  MET d   1      20.101  -9.950   2.109  0.00  0.00    -0.173 SA
BRANCH 214 215
ATOM    215  CE  MET d   1      21.160 -10.770   0.920  0.00  0.00    -0.035 C 
ATOM    216 8H11 MET d   1      22.134 -10.985   1.384  0.00  0.00     0.041 H 
ATOM    217 9H11 MET d   1      21.306 -10.117   0.047  0.00  0.00     0.041 H 
ATOM    218 0H12 MET d   1      20.691 -11.712   0.599  0.00  0.00     0.041 H 
ENDBRANCH 214 215
ENDBRANCH 211 214
ENDBRANCH 208 211
ENDBRANCH 172 208
ENDBRANCH 170 172
ENDBRANCH 166 168
BRANCH 166 219
ATOM    219  CB  ALA d   1      15.945 -12.001  -3.786  0.00  0.00    -0.049 C 
ATOM    220 9H10 ALA d   1      16.838 -11.715  -4.361  0.00  0.00     0.030 H 
ATOM    221 0H11 ALA d   1      15.584 -11.133  -3.215  0.00  0.00     0.030 H 
ATOM    222 1H11 ALA d   1      15.158 -12.339  -4.476  0.00  0.00     0.030 H 
ENDBRANCH 166 219
ENDBRANCH 164 166
ENDBRANCH 160 162
BRANCH 160 223
ATOM    223  CB  SER d   1      12.961 -15.727  -1.328  0.00  0.00     0.044 C 
ATOM    224 4H10 SER d   1      12.049 -15.966  -0.762  0.00  0.00     0.077 H 
ATOM    225 5H10 SER d   1      13.489 -16.658  -1.582  0.00  0.00     0.077 H 
BRANCH 223 226
ATOM    226  OG  SER d   1      12.601 -15.058  -2.525  0.00  0.00    -0.398 OA
ATOM    227 6H10 SER d   1      12.037 -15.620  -3.043  0.00  0.00     0.209 HD
ENDBRANCH 223 226
ENDBRANCH 160 223
ENDBRANCH 158 160
ENDBRANCH 154 156
BRANCH 154 228
ATOM    228  CB  PHE d   1      11.557 -11.969   2.087  0.00  0.00    -0.014 C 
ATOM    229  H95 PHE d   1      11.057 -11.030   2.365  0.00  0.00     0.043 H 
ATOM    230  H96 PHE d   1      11.886 -12.493   2.997  0.00  0.00     0.043 H 
BRANCH 228 231
ATOM    231  CG  PHE d   1      10.566 -12.839   1.371  0.00  0.00    -0.056 A 
ATOM    232  CD1 PHE d   1       9.729 -12.308   0.403  0.00  0.00    -0.077 A 
ATOM    233  CE1 PHE d   1       8.817 -13.107  -0.258  0.00  0.00    -0.082 A 
ATOM    234  H97 PHE d   1       9.791 -11.253   0.162  0.00  0.00     0.084 H 
ATOM    235  CZ  PHE d   1       8.733 -14.451   0.043  0.00  0.00    -0.083 A 
ATOM    236  H99 PHE d   1       8.168 -12.679  -1.013  0.00  0.00     0.083 H 
ATOM    237  CE2 PHE d   1       9.559 -14.994   1.005  0.00  0.00    -0.082 A 
ATOM    238 1H10 PHE d   1       8.018 -15.080  -0.476  0.00  0.00     0.083 H 
ATOM    239  CD2 PHE d   1      10.471 -14.190   1.663  0.00  0.00    -0.077 A 
ATOM    240 0H10 PHE d   1       9.493 -16.049   1.245  0.00  0.00     0.083 H 
ATOM    241  H98 PHE d   1      11.120 -14.622   2.417  0.00  0.00     0.084 H 
ENDBRANCH 228 231
ENDBRANCH 154 228
ENDBRANCH 152 154
ENDBRANCH 148 150
BRANCH 148 242
ATOM    242  CB  ASP d   1      12.929  -8.553  -2.119  0.00  0.00     0.043 C 
ATOM    243  H91 ASP d   1      13.836  -9.007  -1.693  0.00  0.00     0.052 H 
ATOM    244  H92 ASP d   1      12.950  -7.466  -1.952  0.00  0.00     0.052 H 
BRANCH 242 245
ATOM    245  CG  ASP d   1      12.905  -8.818  -3.612  0.00  0.00     0.175 C 
ATOM    246  OD1 ASP d   1      12.318  -7.999  -4.351  0.00  0.00    -0.648 OA
ATOM    247  OD2 ASP d   1      13.470  -9.845  -4.041  0.00  0.00    -0.648 OA
ENDBRANCH 242 245
ENDBRANCH 148 242
ENDBRANCH 146 148
ENDBRANCH 142 144
BRANCH 142 248
ATOM    248  CB  LEU d   1       9.661  -5.189  -1.947  0.00  0.00    -0.035 C 
ATOM    249  H80 LEU d   1      10.598  -5.386  -2.488  0.00  0.00     0.037 H 
ATOM    250  H81 LEU d   1       9.613  -4.125  -1.673  0.00  0.00     0.037 H 
BRANCH 248 251
ATOM    251  CG  LEU d   1       8.491  -5.487  -2.899  0.00  0.00    -0.059 C 
ATOM    252  H82 LEU d   1       7.553  -5.369  -2.336  0.00  0.00     0.038 H 
BRANCH 251 253
ATOM    253  CD1 LEU d   1       8.473  -4.510  -4.062  0.00  0.00    -0.073 C 
ATOM    254  H83 LEU d   1       7.628  -4.746  -4.726  0.00  0.00     0.028 H 
ATOM    255  H84 LEU d   1       9.415  -4.592  -4.624  0.00  0.00     0.028 H 
ATOM    256  H85 LEU d   1       8.363  -3.485  -3.678  0.00  0.00     0.028 H 
ENDBRANCH 251 253
BRANCH 251 257
ATOM    257  CD2 LEU d   1       8.561  -6.919  -3.416  0.00  0.00    -0.073 C 
ATOM    258  H86 LEU d   1       8.573  -7.616  -2.565  0.00  0.00     0.028 H 
ATOM    259  H87 LEU d   1       9.477  -7.050  -4.010  0.00  0.00     0.028 H 
ATOM    260  H88 LEU d   1       7.683  -7.125  -4.046  0.00  0.00     0.028 H 
ENDBRANCH 251 257
ENDBRANCH 248 251
ENDBRANCH 142 248
ENDBRANCH 140 142
ENDBRANCH   1 138
BRANCH   1 261
ATOM    261  CB  LEU d   1       8.239  -3.131   2.549  0.00  0.00    -0.035 C 
ATOM    262  H69 LEU d   1       7.199  -3.383   2.802  0.00  0.00     0.037 H 
ATOM    263  H70 LEU d   1       8.300  -2.849   1.487  0.00  0.00     0.037 H 
BRANCH 261 264
ATOM    264  CG  LEU d   1       8.645  -1.924   3.379  0.00  0.00    -0.059 C 
ATOM    265  H71 LEU d   1       9.741  -1.829   3.351  0.00  0.00     0.038 H 
BRANCH 264 266
ATOM    266  CD1 LEU d   1       8.036  -0.663   2.791  0.00  0.00    -0.073 C 
ATOM    267  H72 LEU d   1       8.334   0.205   3.397  0.00  0.00     0.028 H 
ATOM    268  H73 LEU d   1       6.939  -0.751   2.791  0.00  0.00     0.028 H 
ATOM    269  H74 LEU d   1       8.393  -0.530   1.759  0.00  0.00     0.028 H 
ENDBRANCH 264 266
BRANCH 264 270
ATOM    270  CD2 LEU d   1       8.216  -2.116   4.823  0.00  0.00    -0.073 C 
ATOM    271  H75 LEU d   1       8.671  -3.035   5.222  0.00  0.00     0.028 H 
ATOM    272  H76 LEU d   1       7.120  -2.199   4.872  0.00  0.00     0.028 H 
ATOM    273  H77 LEU d   1       8.546  -1.254   5.421  0.00  0.00     0.028 H 
ENDBRANCH 264 270
ENDBRANCH 261 264
ENDBRANCH   1 261
TORSDOF 84
