REMARK  11 active torsions:
REMARK  status: ('A' for Active; 'I' for Inactive)
REMARK    1  A    between atoms: C15_21  and  N1_1 
REMARK    2  A    between atoms: C4_7  and  C7_12 
REMARK    3  A    between atoms: O5_10  and  C16_22 
REMARK    4  A    between atoms: C21_26  and  O5_10 
REMARK    5  A    between atoms: C7_12  and  C8_13 
REMARK    6  A    between atoms: C8_13  and  C9_14 
REMARK    7  A    between atoms: C8_13  and  OH_15 
REMARK    8  A    between atoms: C11_17  and  C18_24 
REMARK    9  A    between atoms: C13_19  and  C19_25 
REMARK   10  A    between atoms: C15_21  and  C21_26 
REMARK   11  A    between atoms: C16_22  and  C17_23 
ROOT
ATOM      1  C7  JZF d   1     -17.754  -2.993  -1.700  0.00  0.00    -0.036 C 
ATOM      2  H   JZF d   1     -17.374  -3.766  -2.368  0.00  0.00     0.037 H 
ATOM      3  H   JZF d   1     -17.100  -2.469  -1.003  0.00  0.00     0.037 H 
ENDROOT
BRANCH   1   4
ATOM      4  C4  JZF d   1     -18.750  -3.759  -0.772  0.00  0.00    -0.036 C 
ATOM      5  C3  JZF d   1     -19.980  -4.308  -1.508  0.00  0.00     0.014 C 
ATOM      6  C2  JZF d   1     -20.949  -4.982  -0.552  0.00  0.00     0.227 C 
ATOM      7  H   JZF d   1     -20.494  -3.475  -1.989  0.00  0.00     0.047 H 
ATOM      8  H   JZF d   1     -19.645  -5.047  -2.236  0.00  0.00     0.047 H 
ATOM      9  N1  JZF d   1     -20.479  -5.590   0.582  0.00  0.00    -0.279 N 
ATOM     10  O2  JZF d   1     -22.133  -4.976  -0.824  0.00  0.00    -0.273 OA
ATOM     11  C6  JZF d   1     -19.160  -5.569   0.953  0.00  0.00     0.227 C 
ATOM     12  O3  JZF d   1     -18.776  -6.117   1.968  0.00  0.00    -0.273 OA
ATOM     13  C5  JZF d   1     -18.133  -4.886   0.072  0.00  0.00     0.014 C 
ATOM     14  H   JZF d   1     -17.370  -4.449   0.716  0.00  0.00     0.047 H 
ATOM     15  H   JZF d   1     -17.720  -5.631  -0.608  0.00  0.00     0.047 H 
ATOM     16  H   JZF d   1     -19.061  -2.972  -0.085  0.00  0.00     0.041 H 
BRANCH   9  17
ATOM     17  C15 JZF d   1     -21.452  -6.278   1.471  0.00  0.00     0.085 C 
ATOM     18  H   JZF d   1     -22.244  -5.568   1.709  0.00  0.00     0.080 H 
ATOM     19  H   JZF d   1     -20.911  -6.623   2.352  0.00  0.00     0.080 H 
BRANCH  17  20
ATOM     20  C21 JZF d   1     -22.095  -7.486   0.822  0.00  0.00     0.277 C 
ATOM     21  O4  JZF d   1     -23.284  -7.731   0.891  0.00  0.00    -0.263 OA
BRANCH  20  22
ATOM     22  O5  JZF d   1     -21.199  -8.257   0.168  0.00  0.00    -0.321 OA
BRANCH  22  23
ATOM     23  C16 JZF d   1     -20.927  -8.002  -1.229  0.00  0.00     0.025 C 
ATOM     24  H   JZF d   1     -19.907  -7.637  -1.353  0.00  0.00     0.074 H 
ATOM     25  H   JZF d   1     -21.607  -7.241  -1.612  0.00  0.00     0.074 H 
BRANCH  23  26
ATOM     26  C17 JZF d   1     -21.117  -9.318  -1.999  0.00  0.00    -0.056 C 
ATOM     27  H   JZF d   1     -20.427 -10.067  -1.612  0.00  0.00     0.030 H 
ATOM     28  H   JZF d   1     -22.142  -9.667  -1.873  0.00  0.00     0.030 H 
ATOM     29  H   JZF d   1     -20.917  -9.150  -3.057  0.00  0.00     0.030 H 
ENDBRANCH  23  26
ENDBRANCH  22  23
ENDBRANCH  20  22
ENDBRANCH  17  20
ENDBRANCH   9  17
ENDBRANCH   1   4
BRANCH   1  30
ATOM     30  C8  JZF d   1     -18.239  -1.870  -2.670  0.00  0.00     0.046 C 
ATOM     31  H   JZF d   1     -19.288  -2.114  -2.838  0.00  0.00     0.084 H 
BRANCH  30  32
ATOM     32  C9  JZF d   1     -17.661  -1.881  -4.130  0.00  0.00     0.029 C 
ATOM     33  C10 JZF d   1     -18.562  -2.664  -5.089  0.00  0.00     0.137 C 
ATOM     34  O1  JZF d   1     -19.672  -3.057  -4.780  0.00  0.00    -0.297 OA
ATOM     35  C11 JZF d   1     -18.039  -2.776  -6.517  0.00  0.00     0.001 C 
ATOM     36  C12 JZF d   1     -17.777  -1.364  -7.097  0.00  0.00    -0.053 C 
ATOM     37  H   JZF d   1     -17.107  -3.340  -6.477  0.00  0.00     0.051 H 
ATOM     38  C13 JZF d   1     -16.873  -0.504  -6.182  0.00  0.00    -0.056 C 
ATOM     39  H   JZF d   1     -18.737  -0.857  -7.193  0.00  0.00     0.034 H 
ATOM     40  H   JZF d   1     -17.269  -1.483  -8.054  0.00  0.00     0.034 H 
ATOM     41  C14 JZF d   1     -17.448  -0.464  -4.745  0.00  0.00    -0.050 C 
ATOM     42  H   JZF d   1     -16.870   0.515  -6.569  0.00  0.00     0.039 H 
ATOM     43  H   JZF d   1     -16.731   0.065  -4.117  0.00  0.00     0.034 H 
ATOM     44  H   JZF d   1     -18.421   0.026  -4.792  0.00  0.00     0.034 H 
ATOM     45  H   JZF d   1     -16.688  -2.361  -4.022  0.00  0.00     0.055 H 
BRANCH  35  46
ATOM     46  C18 JZF d   1     -19.010  -3.549  -7.439  0.00  0.00    -0.066 C 
ATOM     47  H   JZF d   1     -19.152  -4.558  -7.051  0.00  0.00     0.028 H 
ATOM     48  H   JZF d   1     -19.969  -3.032  -7.470  0.00  0.00     0.028 H 
ATOM     49  H   JZF d   1     -18.591  -3.601  -8.444  0.00  0.00     0.028 H 
ENDBRANCH  35  46
BRANCH  38  50
ATOM     50  C19 JZF d   1     -15.398  -0.972  -6.214  0.00  0.00    -0.073 C 
ATOM     51  H   JZF d   1     -15.339  -2.006  -5.875  0.00  0.00     0.028 H 
ATOM     52  H   JZF d   1     -15.017  -0.900  -7.233  0.00  0.00     0.028 H 
ATOM     53  H   JZF d   1     -14.803  -0.338  -5.557  0.00  0.00     0.028 H 
ENDBRANCH  38  50
ENDBRANCH  30  32
BRANCH  30  54
ATOM     54  OH  JZF d   1     -18.137  -0.580  -2.056  0.00  0.00    -0.395 OA
ATOM     55  H   JZF d   1     -18.501  -0.620  -1.169  0.00  0.00     0.210 HD
ENDBRANCH  30  54
ENDBRANCH   1  30
TORSDOF 11
