REMARK WARNING: 32 MAX_TORS EXCEEDED!!!
REMARK  75 active torsions:
REMARK  status: ('A' for Active; 'I' for Inactive)
REMARK    1  A    between atoms: N_1  and  CA_2 
REMARK    2  A    between atoms: CA_2  and  C_3 
REMARK    3  A    between atoms: CA_2  and  CB_5 
REMARK       I    between atoms: C_3  and  N_9 
REMARK    4  A    between atoms: CB_5  and  CG_6 
REMARK    5  A    between atoms: CG_6  and  SD_7 
REMARK    6  A    between atoms: SD_7  and  CE_8 
REMARK    7  A    between atoms: N_9  and  CA_10 
REMARK    8  A    between atoms: CA_10  and  C_11 
REMARK    9  A    between atoms: CA_10  and  CB_13 
REMARK       I    between atoms: C_11  and  N_17 
REMARK   10  A    between atoms: CB_13  and  CG_14 
REMARK   11  A    between atoms: CG_14  and  CD1_15 
REMARK   12  A    between atoms: CG_14  and  CD2_16 
REMARK   13  A    between atoms: N_17  and  CA_18 
REMARK   14  A    between atoms: CA_18  and  C_19 
REMARK   15  A    between atoms: CA_18  and  CB_21 
REMARK       I    between atoms: C_19  and  N_22 
REMARK   16  A    between atoms: N_22  and  CA_23 
REMARK   17  A    between atoms: CA_23  and  C_24 
REMARK   18  A    between atoms: CA_23  and  CB_26 
REMARK       I    between atoms: C_24  and  N_31 
REMARK   19  A    between atoms: CB_26  and  CG_27 
REMARK   20  A    between atoms: CG_27  and  CD_28 
REMARK   21  A    between atoms: N_31  and  CA_32 
REMARK   22  A    between atoms: CA_32  and  C_33 
REMARK   23  A    between atoms: CA_32  and  CB_35 
REMARK       I    between atoms: C_33  and  N_39 
REMARK   24  A    between atoms: CB_35  and  CG_36 
REMARK   25  A    between atoms: CG_36  and  CD1_37 
REMARK   26  A    between atoms: CG_36  and  CD2_38 
REMARK   27  A    between atoms: N_39  and  CA_40 
REMARK   28  A    between atoms: CA_40  and  C_41 
REMARK   29  A    between atoms: CA_40  and  CB_43 
REMARK       I    between atoms: C_41  and  N_51 
REMARK   30  A    between atoms: CB_43  and  CG_44 
REMARK   31  A    between atoms: CZ_49  and  OH_50 
REMARK   32  A    between atoms: N_51  and  CA_52 
REMARK   33  A    between atoms: CA_52  and  C_53 
REMARK       I    between atoms: C_53  and  N_55 
REMARK   34  A    between atoms: N_55  and  CA_56 
REMARK   35  A    between atoms: CA_56  and  C_57 
REMARK   36  A    between atoms: CA_56  and  CB_59 
REMARK       I    between atoms: C_57  and  N_61 
REMARK   37  A    between atoms: CB_59  and  OG_60 
REMARK   38  A    between atoms: N_61  and  CA_62 
REMARK   39  A    between atoms: CA_62  and  C_63 
REMARK   40  A    between atoms: CA_62  and  CB_65 
REMARK       I    between atoms: C_63  and  N_69 
REMARK   41  A    between atoms: CB_65  and  CG_66 
REMARK   42  A    between atoms: CA_70  and  C_71 
REMARK       I    between atoms: C_71  and  N_76 
REMARK   43  A    between atoms: N_76  and  CA_77 
REMARK   44  A    between atoms: CA_77  and  C_78 
REMARK   45  A    between atoms: CA_77  and  CB_80 
REMARK       I    between atoms: C_78  and  N_85 
REMARK   46  A    between atoms: CB_80  and  CG_81 
REMARK   47  A    between atoms: CG_81  and  CD_82 
REMARK       I    between atoms: CD_82  and  NE2_84 
REMARK   48  A    between atoms: N_85  and  CA_86 
REMARK   49  A    between atoms: CA_86  and  C_87 
REMARK   50  A    between atoms: CA_86  and  CB_89 
REMARK       I    between atoms: C_87  and  N_94 
REMARK   51  A    between atoms: CB_89  and  CG_90 
REMARK   52  A    between atoms: CG_90  and  CD_91 
REMARK   53  A    between atoms: N_94  and  CA_95 
REMARK   54  A    between atoms: CA_95  and  C_96 
REMARK   55  A    between atoms: CA_95  and  CB_98 
REMARK       I    between atoms: C_96  and  N_103 
REMARK   56  A    between atoms: CB_98  and  CG_99 
REMARK   57  A    between atoms: CG_99  and  CD_100 
REMARK   58  A    between atoms: N_103  and  CA_104 
REMARK   59  A    between atoms: CA_104  and  C_105 
REMARK   60  A    between atoms: CA_104  and  CB_107 
REMARK       I    between atoms: C_105  and  N_111 
REMARK   61  A    between atoms: CB_107  and  CG_108 
REMARK   62  A    between atoms: CG_108  and  CD1_109 
REMARK   63  A    between atoms: CG_108  and  CD2_110 
REMARK   64  A    between atoms: N_111  and  CA_112 
REMARK   65  A    between atoms: CA_112  and  C_113 
REMARK   66  A    between atoms: CA_112  and  CB_115 
REMARK       I    between atoms: C_113  and  N_119 
REMARK   67  A    between atoms: CB_115  and  CG1_116 
REMARK   68  A    between atoms: CB_115  and  CG2_117 
REMARK   69  A    between atoms: CG1_116  and  CD1_118 
REMARK   70  A    between atoms: N_119  and  CA_120 
REMARK   71  A    between atoms: CA_120  and  C_121 
REMARK   72  A    between atoms: CA_120  and  CB_123 
REMARK   73  A    between atoms: CB_123  and  CG1_124 
REMARK   74  A    between atoms: CB_123  and  CG2_125 
REMARK   75  A    between atoms: CG1_124  and  CD1_126 
ROOT
ATOM      1  CA  ASP d   1       4.997  -7.983  20.297  0.00  0.00     0.099 C 
ATOM      2  H63 ASP d   1       5.865  -7.930  19.624  0.00  0.00     0.088 H 
ENDROOT
BRANCH   1   3
ATOM      3  N   ASP d   1       5.196  -9.021  21.263  0.00  0.00    -0.345 N 
ATOM      4  C   SER d   1       6.105  -9.956  21.109  0.00  0.00     0.243 C 
ATOM      5  O   SER d   1       6.839 -10.025  20.118  0.00  0.00    -0.271 OA
ATOM      6  H62 ASP d   1       4.623  -9.034  22.083  0.00  0.00     0.163 HD
BRANCH   4   7
ATOM      7  CA  SER d   1       6.131 -11.029  22.193  0.00  0.00     0.109 C 
ATOM      8  H58 SER d   1       5.840 -10.569  23.149  0.00  0.00     0.090 H 
BRANCH   7   9
ATOM      9  N   SER d   1       5.190 -12.045  21.862  0.00  0.00    -0.344 N 
ATOM     10  C   GLY d   1       3.942 -11.943  22.204  0.00  0.00     0.236 C 
ATOM     11  O   GLY d   1       3.498 -10.994  22.867  0.00  0.00    -0.272 OA
ATOM     12  H57 SER d   1       5.496 -12.852  21.357  0.00  0.00     0.163 HD
BRANCH  10  13
ATOM     13  CA  GLY d   1       3.031 -13.049  21.793  0.00  0.00     0.069 C 
ATOM     14  H55 GLY d   1       2.653 -12.853  20.779  0.00  0.00     0.078 H 
ATOM     15  H56 GLY d   1       3.584 -14.000  21.801  0.00  0.00     0.078 H 
BRANCH  13  16
ATOM     16  N   GLY d   1       1.947 -13.131  22.689  0.00  0.00    -0.351 N 
ATOM     17  C   TYR d   1       0.809 -13.597  22.320  0.00  0.00     0.241 C 
ATOM     18  O   TYR d   1       0.573 -14.012  21.176  0.00  0.00    -0.271 OA
ATOM     19  H54 GLY d   1       2.066 -12.820  23.632  0.00  0.00     0.163 HD
BRANCH  17  20
ATOM     20  CA  TYR d   1      -0.265 -13.552  23.354  0.00  0.00     0.093 C 
ATOM     21  H46 TYR d   1       0.172 -13.217  24.306  0.00  0.00     0.088 H 
BRANCH  20  22
ATOM     22  N   TYR d   1      -1.238 -12.598  22.933  0.00  0.00    -0.346 N 
ATOM     23  C   LEU d   1      -2.027 -12.028  23.795  0.00  0.00     0.241 C 
ATOM     24  O   LEU d   1      -2.033 -12.352  25.005  0.00  0.00    -0.271 OA
ATOM     25  H45 TYR d   1      -1.314 -12.365  21.964  0.00  0.00     0.163 HD
BRANCH  23  26
ATOM     26  CA  LEU d   1      -2.988 -10.949  23.269  0.00  0.00     0.089 C 
ATOM     27  H35 LEU d   1      -3.826 -11.440  22.753  0.00  0.00     0.087 H 
BRANCH  26  28
ATOM     28  N   LEU d   1      -3.528 -10.211  24.425  0.00  0.00    -0.346 N 
ATOM     29  C   GLU d   1      -2.763  -9.545  25.260  0.00  0.00     0.241 C 
ATOM     30  O   GLU d   1      -1.560  -9.302  25.058  0.00  0.00    -0.271 OA
ATOM     31  H34 LEU d   1      -4.516 -10.217  24.580  0.00  0.00     0.163 HD
BRANCH  29  32
ATOM     32  CA  GLU d   1      -3.413  -9.068  26.518  0.00  0.00     0.090 C 
ATOM     33  H29 GLU d   1      -4.371  -9.588  26.669  0.00  0.00     0.087 H 
BRANCH  32  34
ATOM     34  N   GLU d   1      -2.505  -9.395  27.573  0.00  0.00    -0.346 N 
ATOM     35  C   ALA d   1      -2.845 -10.107  28.597  0.00  0.00     0.240 C 
ATOM     36  O   ALA d   1      -4.012 -10.453  28.819  0.00  0.00    -0.271 OA
ATOM     37  H28 GLU d   1      -1.565  -9.058  27.516  0.00  0.00     0.163 HD
BRANCH  35  38
ATOM     38  CA  ALA d   1      -1.713 -10.435  29.563  0.00  0.00     0.086 C 
ATOM     39  H24 ALA d   1      -0.805 -10.540  28.950  0.00  0.00     0.086 H 
BRANCH  38  40
ATOM     40  N   ALA d   1      -1.443  -9.359  30.506  0.00  0.00    -0.346 N 
ATOM     41  C   LEU d   1      -2.307  -8.936  31.405  0.00  0.00     0.241 C 
ATOM     42  O   LEU d   1      -3.462  -9.370  31.521  0.00  0.00    -0.271 OA
ATOM     43  H23 ALA d   1      -0.548  -8.915  30.469  0.00  0.00     0.163 HD
BRANCH  41  44
ATOM     44  CA  LEU d   1      -1.820  -7.836  32.314  0.00  0.00     0.089 C 
ATOM     45  H13 LEU d   1      -1.362  -7.048  31.699  0.00  0.00     0.087 H 
BRANCH  44  46
ATOM     46  N   LEU d   1      -2.944  -7.262  33.012  0.00  0.00    -0.346 N 
ATOM     47  C   MET d   1      -3.418  -6.088  32.699  0.00  0.00     0.249 C 
ATOM     48  O   MET d   1      -2.913  -5.375  31.827  0.00  0.00    -0.271 OA
ATOM     49  H12 LEU d   1      -3.371  -7.777  33.755  0.00  0.00     0.163 HD
BRANCH  47  50
ATOM     50  CA  MET d   1      -4.634  -5.644  33.488  0.00  0.00     0.176 C 
ATOM     51  H4  MET d   1      -5.392  -5.267  32.785  0.00  0.00     0.099 H 
BRANCH  50  52
ATOM     52  N   MET d   1      -5.199  -6.780  34.215  0.00  0.00    -0.066 N 
ATOM     53  H1  MET d   1      -6.006  -6.477  34.737  0.00  0.00     0.275 HD
ATOM     54  H2  MET d   1      -4.509  -7.150  34.849  0.00  0.00     0.275 HD
ATOM     55  H3  MET d   1      -5.471  -7.496  33.560  0.00  0.00     0.275 HD
ENDBRANCH  50  52
BRANCH  50  56
ATOM     56  CB  MET d   1      -4.255  -4.510  34.450  0.00  0.00    -0.022 C 
ATOM     57  H5  MET d   1      -3.799  -3.698  33.865  0.00  0.00     0.037 H 
ATOM     58  H6  MET d   1      -3.522  -4.899  35.172  0.00  0.00     0.037 H 
BRANCH  56  59
ATOM     59  CG  MET d   1      -5.434  -3.939  35.225  0.00  0.00    -0.021 C 
ATOM     60  H7  MET d   1      -5.888  -4.746  35.819  0.00  0.00     0.049 H 
ATOM     61  H8  MET d   1      -6.172  -3.552  34.507  0.00  0.00     0.049 H 
BRANCH  59  62
ATOM     62  SD  MET d   1      -4.957  -2.601  36.340  0.00  0.00    -0.173 SA
BRANCH  62  63
ATOM     63  CE  MET d   1      -6.540  -2.204  37.076  0.00  0.00    -0.035 C 
ATOM     64  H9  MET d   1      -6.413  -1.384  37.798  0.00  0.00     0.041 H 
ATOM     65  H10 MET d   1      -6.936  -3.090  37.593  0.00  0.00     0.041 H 
ATOM     66  H11 MET d   1      -7.243  -1.894  36.289  0.00  0.00     0.041 H 
ENDBRANCH  62  63
ENDBRANCH  59  62
ENDBRANCH  56  59
ENDBRANCH  50  56
ENDBRANCH  47  50
ENDBRANCH  44  46
BRANCH  44  67
ATOM     67  CB  LEU d   1      -0.731  -8.389  33.272  0.00  0.00    -0.035 C 
ATOM     68  H14 LEU d   1      -0.007  -8.943  32.656  0.00  0.00     0.037 H 
ATOM     69  H15 LEU d   1      -1.230  -9.083  33.965  0.00  0.00     0.037 H 
BRANCH  67  70
ATOM     70  CG  LEU d   1       0.075  -7.386  34.132  0.00  0.00    -0.059 C 
ATOM     71  H16 LEU d   1       0.495  -6.628  33.454  0.00  0.00     0.038 H 
BRANCH  70  72
ATOM     72  CD1 LEU d   1      -0.791  -6.660  35.151  0.00  0.00    -0.073 C 
ATOM     73  H17 LEU d   1      -0.168  -5.963  35.731  0.00  0.00     0.028 H 
ATOM     74  H18 LEU d   1      -1.251  -7.393  35.830  0.00  0.00     0.028 H 
ATOM     75  H19 LEU d   1      -1.580  -6.099  34.629  0.00  0.00     0.028 H 
ENDBRANCH  70  72
BRANCH  70  76
ATOM     76  CD2 LEU d   1       1.229  -8.094  34.818  0.00  0.00    -0.073 C 
ATOM     77  H20 LEU d   1       1.841  -8.611  34.065  0.00  0.00     0.028 H 
ATOM     78  H21 LEU d   1       0.834  -8.827  35.536  0.00  0.00     0.028 H 
ATOM     79  H22 LEU d   1       1.848  -7.356  35.350  0.00  0.00     0.028 H 
ENDBRANCH  70  76
ENDBRANCH  67  70
ENDBRANCH  44  67
ENDBRANCH  41  44
ENDBRANCH  38  40
BRANCH  38  80
ATOM     80  CB  ALA d   1      -1.924 -11.787  30.256  0.00  0.00    -0.049 C 
ATOM     81  H25 ALA d   1      -2.123 -12.560  29.499  0.00  0.00     0.030 H 
ATOM     82  H26 ALA d   1      -2.780 -11.717  30.943  0.00  0.00     0.030 H 
ATOM     83  H27 ALA d   1      -1.020 -12.054  30.823  0.00  0.00     0.030 H 
ENDBRANCH  38  80
ENDBRANCH  35  38
ENDBRANCH  32  34
BRANCH  32  84
ATOM     84  CB  GLU d   1      -3.661  -7.582  26.467  0.00  0.00    -0.029 C 
ATOM     85  H30 GLU d   1      -2.724  -7.086  26.173  0.00  0.00     0.037 H 
ATOM     86  H31 GLU d   1      -3.954  -7.247  27.473  0.00  0.00     0.037 H 
BRANCH  84  87
ATOM     87  CG  GLU d   1      -4.743  -7.166  25.495  0.00  0.00     0.018 C 
ATOM     88  H32 GLU d   1      -5.671  -7.698  25.752  0.00  0.00     0.049 H 
ATOM     89  H33 GLU d   1      -4.429  -7.445  24.478  0.00  0.00     0.049 H 
BRANCH  87  90
ATOM     90  CD  GLU d   1      -5.011  -5.693  25.527  0.00  0.00     0.172 C 
ATOM     91  OE1 GLU d   1      -5.843  -5.256  26.342  0.00  0.00    -0.648 OA
ATOM     92  OE2 GLU d   1      -4.403  -4.943  24.733  0.00  0.00    -0.648 OA
ENDBRANCH  87  90
ENDBRANCH  84  87
ENDBRANCH  32  84
ENDBRANCH  29  32
ENDBRANCH  26  28
BRANCH  26  93
ATOM     93  CB  LEU d   1      -2.257 -10.033  22.230  0.00  0.00    -0.035 C 
ATOM     94  H36 LEU d   1      -1.694 -10.694  21.555  0.00  0.00     0.037 H 
ATOM     95  H37 LEU d   1      -1.555  -9.401  22.793  0.00  0.00     0.037 H 
BRANCH  93  96
ATOM     96  CG  LEU d   1      -3.106  -9.092  21.343  0.00  0.00    -0.059 C 
ATOM     97  H38 LEU d   1      -3.861  -9.708  20.833  0.00  0.00     0.038 H 
BRANCH  96  98
ATOM     98  CD1 LEU d   1      -3.839  -8.043  22.145  0.00  0.00    -0.073 C 
ATOM     99  H39 LEU d   1      -4.424  -7.405  21.466  0.00  0.00     0.028 H 
ATOM    100  H40 LEU d   1      -3.112  -7.426  22.693  0.00  0.00     0.028 H 
ATOM    101  H41 LEU d   1      -4.515  -8.534  22.860  0.00  0.00     0.028 H 
ENDBRANCH  96  98
BRANCH  96 102
ATOM    102  CD2 LEU d   1      -2.236  -8.438  20.279  0.00  0.00    -0.073 C 
ATOM    103  H42 LEU d   1      -1.711  -9.216  19.706  0.00  0.00     0.028 H 
ATOM    104  H43 LEU d   1      -1.500  -7.778  20.762  0.00  0.00     0.028 H 
ATOM    105  H44 LEU d   1      -2.869  -7.847  19.601  0.00  0.00     0.028 H 
ENDBRANCH  96 102
ENDBRANCH  93  96
ENDBRANCH  26  93
ENDBRANCH  23  26
ENDBRANCH  20  22
BRANCH  20 106
ATOM    106  CB  TYR d   1      -0.888 -14.930  23.577  0.00  0.00    -0.014 C 
ATOM    107  H47 TYR d   1      -1.216 -15.325  22.604  0.00  0.00     0.043 H 
ATOM    108  H48 TYR d   1      -1.759 -14.815  24.239  0.00  0.00     0.043 H 
BRANCH 106 109
ATOM    109  CG  TYR d   1       0.057 -15.923  24.200  0.00  0.00    -0.056 A 
ATOM    110  CD1 TYR d   1       0.338 -15.873  25.559  0.00  0.00    -0.074 A 
ATOM    111  CE1 TYR d   1       1.195 -16.779  26.141  0.00  0.00    -0.051 A 
ATOM    112  H49 TYR d   1      -0.125 -15.108  26.171  0.00  0.00     0.084 H 
ATOM    113  CZ  TYR d   1       1.783 -17.747  25.365  0.00  0.00     0.065 A 
ATOM    114  H51 TYR d   1       1.404 -16.729  27.203  0.00  0.00     0.087 H 
ATOM    115  CE2 TYR d   1       1.519 -17.816  24.022  0.00  0.00    -0.051 A 
ATOM    116  CD2 TYR d   1       0.662 -16.908  23.444  0.00  0.00    -0.074 A 
ATOM    117  H52 TYR d   1       1.985 -18.585  23.416  0.00  0.00     0.087 H 
ATOM    118  H50 TYR d   1       0.459 -16.966  22.381  0.00  0.00     0.084 H 
BRANCH 113 119
ATOM    119  OH  TYR d   1       2.637 -18.663  25.940  0.00  0.00    -0.361 OA
ATOM    120  H53 TYR d   1       2.715 -18.482  26.869  0.00  0.00     0.217 HD
ENDBRANCH 113 119
ENDBRANCH 106 109
ENDBRANCH  20 106
ENDBRANCH  17  20
ENDBRANCH  13  16
ENDBRANCH  10  13
ENDBRANCH   7   9
BRANCH   7 121
ATOM    121  CB  SER d   1       7.519 -11.639  22.353  0.00  0.00     0.044 C 
ATOM    122  H59 SER d   1       8.221 -10.861  22.689  0.00  0.00     0.077 H 
ATOM    123  H60 SER d   1       7.853 -12.041  21.385  0.00  0.00     0.077 H 
BRANCH 121 124
ATOM    124  OG  SER d   1       7.487 -12.695  23.318  0.00  0.00    -0.398 OA
ATOM    125  H61 SER d   1       8.357 -13.066  23.408  0.00  0.00     0.209 HD
ENDBRANCH 121 124
ENDBRANCH   7 121
ENDBRANCH   4   7
ENDBRANCH   1   3
BRANCH   1 126
ATOM    126  C   ASP d   1       4.819  -6.680  21.031  0.00  0.00     0.243 C 
ATOM    127  O   ASP d   1       4.105  -6.629  22.034  0.00  0.00    -0.271 OA
ATOM    128  N   PRO d   1       5.471  -5.616  20.586  0.00  0.00    -0.337 N 
ATOM    129  CA  PRO d   1       5.272  -4.290  21.145  0.00  0.00     0.091 C 
ATOM    130  CD  PRO d   1       6.506  -5.612  19.534  0.00  0.00    -0.001 C 
ATOM    131  CB  PRO d   1       6.644  -3.648  20.949  0.00  0.00    -0.036 C 
ATOM    132  H66 PRO d   1       4.986  -4.331  22.206  0.00  0.00     0.087 H 
ATOM    133  CG  PRO d   1       7.175  -4.260  19.687  0.00  0.00    -0.048 C 
ATOM    134  H67 PRO d   1       7.304  -3.877  21.799  0.00  0.00     0.036 H 
ATOM    135  H68 PRO d   1       6.550  -2.557  20.841  0.00  0.00     0.036 H 
ATOM    136  H69 PRO d   1       8.266  -4.384  19.757  0.00  0.00     0.035 H 
ATOM    137  H70 PRO d   1       6.934  -3.619  18.826  0.00  0.00     0.035 H 
ATOM    138  H71 PRO d   1       6.052  -5.713  18.537  0.00  0.00     0.064 H 
ATOM    139  H72 PRO d   1       7.228  -6.426  19.692  0.00  0.00     0.064 H 
BRANCH 129 140
ATOM    140  C   PRO d   1       4.215  -3.531  20.337  0.00  0.00     0.241 C 
ATOM    141  O   PRO d   1       3.988  -2.338  20.548  0.00  0.00    -0.271 OA
ATOM    142  N   GLN d   1       3.559  -4.273  19.426  0.00  0.00    -0.346 N 
ATOM    143  H73 GLN d   1       3.739  -5.256  19.410  0.00  0.00     0.163 HD
BRANCH 142 144
ATOM    144  CA  GLN d   1       2.604  -3.743  18.461  0.00  0.00     0.090 C 
ATOM    145  H74 GLN d   1       2.313  -4.579  17.808  0.00  0.00     0.087 H 
BRANCH 144 146
ATOM    146  C   GLN d   1       3.258  -2.687  17.588  0.00  0.00     0.241 C 
ATOM    147  O   GLN d   1       3.340  -1.526  17.965  0.00  0.00    -0.271 OA
ATOM    148  N   GLU d   1       3.772  -3.101  16.451  0.00  0.00    -0.346 N 
ATOM    149  H81 GLU d   1       3.715  -4.069  16.208  0.00  0.00     0.163 HD
BRANCH 148 150
ATOM    150  CA  GLU d   1       4.419  -2.177  15.547  0.00  0.00     0.090 C 
ATOM    151  H82 GLU d   1       5.056  -1.524  16.161  0.00  0.00     0.087 H 
BRANCH 150 152
ATOM    152  C   GLU d   1       3.406  -1.273  14.863  0.00  0.00     0.241 C 
ATOM    153  O   GLU d   1       2.662  -1.676  13.966  0.00  0.00    -0.271 OA
ATOM    154  N   GLU d   1       3.379  -0.075  15.339  0.00  0.00    -0.346 N 
ATOM    155  H87 GLU d   1       4.036   0.154  16.057  0.00  0.00     0.163 HD
BRANCH 154 156
ATOM    156  CA  GLU d   1       2.468   0.961  14.910  0.00  0.00     0.090 C 
ATOM    157  H88 GLU d   1       1.644   0.524  14.327  0.00  0.00     0.087 H 
BRANCH 156 158
ATOM    158  C   GLU d   1       3.223   1.978  14.073  0.00  0.00     0.241 C 
ATOM    159  O   GLU d   1       4.434   2.183  14.269  0.00  0.00    -0.271 OA
ATOM    160  N   LEU d   1       2.537   2.589  13.158  0.00  0.00    -0.346 N 
ATOM    161  H93 LEU d   1       1.582   2.326  13.018  0.00  0.00     0.163 HD
BRANCH 160 162
ATOM    162  CA  LEU d   1       3.085   3.615  12.347  0.00  0.00     0.089 C 
ATOM    163  H94 LEU d   1       3.982   4.047  12.815  0.00  0.00     0.087 H 
BRANCH 162 164
ATOM    164  C   LEU d   1       1.988   4.680  12.217  0.00  0.00     0.241 C 
ATOM    165  O   LEU d   1       0.841   4.352  11.954  0.00  0.00    -0.271 OA
ATOM    166  N   ILE d   1       2.318   5.918  12.442  0.00  0.00    -0.346 N 
ATOM    167 4H10 ILE d   1       3.263   6.146  12.678  0.00  0.00     0.163 HD
BRANCH 166 168
ATOM    168  CA  ILE d   1       1.318   6.974  12.352  0.00  0.00     0.092 C 
ATOM    169 5H10 ILE d   1       0.337   6.486  12.250  0.00  0.00     0.088 H 
BRANCH 168 170
ATOM    170  C   ILE d   1       1.562   7.808  11.120  0.00  0.00     0.241 C 
ATOM    171  O   ILE d   1       2.674   8.318  10.906  0.00  0.00    -0.271 OA
ATOM    172  N   ILE d   1       0.563   7.952  10.318  0.00  0.00    -0.344 N 
ATOM    173 5H11 ILE d   1      -0.300   7.490  10.522  0.00  0.00     0.163 HD
BRANCH 172 174
ATOM    174  CA  ILE d   1       0.662   8.747   9.160  0.00  0.00     0.099 C 
ATOM    175 6H11 ILE d   1       1.696   9.120   9.111  0.00  0.00     0.090 H 
BRANCH 174 176
ATOM    176  C   ILE d   1      -0.244   9.948   9.307  0.00  0.00     0.197 C 
ATOM    177  O   ILE d   1       0.247  11.003   9.720  0.00  0.00    -0.646 OA
ATOM    178  OXT ILE d   1      -1.434   9.844   9.063  0.00  0.00    -0.646 OA
ENDBRANCH 174 176
BRANCH 174 179
ATOM    179  CB  ILE d   1       0.413   7.961   7.832  0.00  0.00    -0.029 C 
ATOM    180 7H11 ILE d   1       0.361   8.694   7.014  0.00  0.00     0.043 H 
BRANCH 179 181
ATOM    181  CG1 ILE d   1      -0.907   7.188   7.850  0.00  0.00    -0.063 C 
ATOM    182 8H11 ILE d   1      -1.715   7.879   8.133  0.00  0.00     0.033 H 
ATOM    183 9H11 ILE d   1      -0.833   6.385   8.598  0.00  0.00     0.033 H 
BRANCH 181 184
ATOM    184  CD1 ILE d   1      -1.246   6.572   6.515  0.00  0.00    -0.076 C 
ATOM    185 3H12 ILE d   1      -2.201   6.032   6.592  0.00  0.00     0.027 H 
ATOM    186 4H12 ILE d   1      -0.451   5.870   6.223  0.00  0.00     0.027 H 
ATOM    187 5H12 ILE d   1      -1.333   7.364   5.757  0.00  0.00     0.027 H 
ENDBRANCH 181 184
ENDBRANCH 179 181
BRANCH 179 188
ATOM    188  CG2 ILE d   1       1.576   7.013   7.547  0.00  0.00    -0.070 C 
ATOM    189 0H12 ILE d   1       2.518   7.581   7.537  0.00  0.00     0.028 H 
ATOM    190 1H12 ILE d   1       1.427   6.533   6.569  0.00  0.00     0.028 H 
ATOM    191 2H12 ILE d   1       1.621   6.242   8.330  0.00  0.00     0.028 H 
ENDBRANCH 179 188
ENDBRANCH 174 179
ENDBRANCH 172 174
ENDBRANCH 168 170
BRANCH 168 192
ATOM    192  CB  ILE d   1       1.244   7.923  13.619  0.00  0.00    -0.030 C 
ATOM    193 6H10 ILE d   1       2.243   8.360  13.763  0.00  0.00     0.043 H 
BRANCH 192 194
ATOM    194  CG1 ILE d   1       0.870   7.159  14.917  0.00  0.00    -0.063 C 
ATOM    195 7H10 ILE d   1      -0.037   6.571  14.713  0.00  0.00     0.033 H 
ATOM    196 8H10 ILE d   1       0.657   7.904  15.698  0.00  0.00     0.033 H 
BRANCH 194 197
ATOM    197  CD1 ILE d   1       1.929   6.211  15.454  0.00  0.00    -0.076 C 
ATOM    198 2H11 ILE d   1       1.558   5.728  16.370  0.00  0.00     0.027 H 
ATOM    199 3H11 ILE d   1       2.845   6.776  15.683  0.00  0.00     0.027 H 
ATOM    200 4H11 ILE d   1       2.151   5.443  14.698  0.00  0.00     0.027 H 
ENDBRANCH 194 197
ENDBRANCH 192 194
BRANCH 192 201
ATOM    201  CG2 ILE d   1       0.245   9.078  13.393  0.00  0.00    -0.071 C 
ATOM    202 9H10 ILE d   1       0.511   9.618  12.473  0.00  0.00     0.028 H 
ATOM    203 0H11 ILE d   1       0.284   9.769  14.248  0.00  0.00     0.028 H 
ATOM    204 1H11 ILE d   1      -0.772   8.670  13.297  0.00  0.00     0.028 H 
ENDBRANCH 192 201
ENDBRANCH 168 192
ENDBRANCH 166 168
ENDBRANCH 162 164
BRANCH 162 205
ATOM    205  CB  LEU d   1       3.453   3.010  10.973  0.00  0.00    -0.035 C 
ATOM    206  H95 LEU d   1       2.527   2.949  10.383  0.00  0.00     0.037 H 
ATOM    207  H96 LEU d   1       3.840   1.996  11.154  0.00  0.00     0.037 H 
BRANCH 205 208
ATOM    208  CG  LEU d   1       4.485   3.747  10.125  0.00  0.00    -0.059 C 
ATOM    209  H97 LEU d   1       4.591   3.197   9.178  0.00  0.00     0.038 H 
BRANCH 208 210
ATOM    210  CD1 LEU d   1       4.065   5.156   9.774  0.00  0.00    -0.073 C 
ATOM    211  H98 LEU d   1       4.848   5.631   9.165  0.00  0.00     0.028 H 
ATOM    212  H99 LEU d   1       3.917   5.735  10.697  0.00  0.00     0.028 H 
ATOM    213 0H10 LEU d   1       3.124   5.127   9.204  0.00  0.00     0.028 H 
ENDBRANCH 208 210
BRANCH 208 214
ATOM    214  CD2 LEU d   1       5.814   3.716  10.827  0.00  0.00    -0.073 C 
ATOM    215 1H10 LEU d   1       6.080   2.675  11.063  0.00  0.00     0.028 H 
ATOM    216 2H10 LEU d   1       5.751   4.298  11.758  0.00  0.00     0.028 H 
ATOM    217 3H10 LEU d   1       6.584   4.152  10.174  0.00  0.00     0.028 H 
ENDBRANCH 208 214
ENDBRANCH 205 208
ENDBRANCH 162 205
ENDBRANCH 160 162
ENDBRANCH 156 158
BRANCH 156 218
ATOM    218  CB  GLU d   1       1.926   1.673  16.151  0.00  0.00    -0.029 C 
ATOM    219  H89 GLU d   1       1.247   2.471  15.816  0.00  0.00     0.037 H 
ATOM    220  H90 GLU d   1       2.778   2.117  16.687  0.00  0.00     0.037 H 
BRANCH 218 221
ATOM    221  CG  GLU d   1       1.169   0.793  17.124  0.00  0.00     0.018 C 
ATOM    222  H91 GLU d   1       1.720  -0.150  17.250  0.00  0.00     0.049 H 
ATOM    223  H92 GLU d   1       0.172   0.583  16.709  0.00  0.00     0.049 H 
BRANCH 221 224
ATOM    224  CD  GLU d   1       1.003   1.449  18.488  0.00  0.00     0.172 C 
ATOM    225  OE1 GLU d   1       2.003   1.566  19.216  0.00  0.00    -0.648 OA
ATOM    226  OE2 GLU d   1      -0.120   1.820  18.859  0.00  0.00    -0.648 OA
ENDBRANCH 221 224
ENDBRANCH 218 221
ENDBRANCH 156 218
ENDBRANCH 154 156
ENDBRANCH 150 152
BRANCH 150 227
ATOM    227  CB  GLU d   1       5.350  -2.898  14.574  0.00  0.00    -0.029 C 
ATOM    228  H83 GLU d   1       6.178  -3.337  15.151  0.00  0.00     0.037 H 
ATOM    229  H84 GLU d   1       5.749  -2.157  13.866  0.00  0.00     0.037 H 
BRANCH 227 230
ATOM    230  CG  GLU d   1       4.699  -3.985  13.793  0.00  0.00     0.018 C 
ATOM    231  H85 GLU d   1       3.991  -3.539  13.079  0.00  0.00     0.049 H 
ATOM    232  H86 GLU d   1       4.156  -4.646  14.484  0.00  0.00     0.049 H 
BRANCH 230 233
ATOM    233  CD  GLU d   1       5.709  -4.793  13.037  0.00  0.00     0.172 C 
ATOM    234  OE1 GLU d   1       6.430  -5.576  13.685  0.00  0.00    -0.648 OA
ATOM    235  OE2 GLU d   1       5.786  -4.700  11.812  0.00  0.00    -0.648 OA
ENDBRANCH 230 233
ENDBRANCH 227 230
ENDBRANCH 150 227
ENDBRANCH 148 150
ENDBRANCH 144 146
BRANCH 144 236
ATOM    236  CB  GLN d   1       1.295  -3.194  19.099  0.00  0.00    -0.030 C 
ATOM    237  H75 GLN d   1       0.739  -2.662  18.313  0.00  0.00     0.037 H 
ATOM    238  H76 GLN d   1       1.581  -2.485  19.890  0.00  0.00     0.037 H 
BRANCH 236 239
ATOM    239  CG  GLN d   1       0.343  -4.231  19.724  0.00  0.00     0.011 C 
ATOM    240  H77 GLN d   1       0.075  -4.961  18.946  0.00  0.00     0.047 H 
ATOM    241  H78 GLN d   1      -0.562  -3.705  20.061  0.00  0.00     0.047 H 
BRANCH 239 242
ATOM    242  CD  GLN d   1       0.916  -4.991  20.908  0.00  0.00     0.215 C 
ATOM    243  OE1 GLN d   1       1.514  -6.059  20.756  0.00  0.00    -0.274 OA
ATOM    244  NE2 GLN d   1       0.744  -4.452  22.082  0.00  0.00    -0.370 N 
ATOM    245  H79 GLN d   1       1.100  -4.907  22.898  0.00  0.00     0.159 HD
ATOM    246  H80 GLN d   1       0.256  -3.583  22.167  0.00  0.00     0.159 HD
ENDBRANCH 239 242
ENDBRANCH 236 239
ENDBRANCH 144 236
ENDBRANCH 142 144
ENDBRANCH 129 140
ENDBRANCH   1 126
BRANCH   1 247
ATOM    247  CB  ASP d   1       3.703  -8.230  19.474  0.00  0.00     0.043 C 
ATOM    248  H64 ASP d   1       3.641  -7.455  18.696  0.00  0.00     0.052 H 
ATOM    249  H65 ASP d   1       2.844  -8.137  20.154  0.00  0.00     0.052 H 
BRANCH 247 250
ATOM    250  CG  ASP d   1       3.619  -9.583  18.795  0.00  0.00     0.175 C 
ATOM    251  OD1 ASP d   1       4.070  -9.729  17.634  0.00  0.00    -0.648 OA
ATOM    252  OD2 ASP d   1       3.079 -10.520  19.404  0.00  0.00    -0.648 OA
ENDBRANCH 247 250
ENDBRANCH   1 247
TORSDOF 75
