REMARK  10 active torsions:
REMARK  status: ('A' for Active; 'I' for Inactive)
REMARK    1  A    between atoms: C1_1  and  O2_2 
REMARK    2  A    between atoms: O2_2  and  C3_3 
REMARK    3  A    between atoms: C6_6  and  C9_9 
REMARK    4  A    between atoms: C12_12  and  C13_13 
REMARK    5  A    between atoms: C13_13  and  N14_14 
REMARK    6  A    between atoms: N14_14  and  C15_15 
REMARK       I    between atoms: N14_14  and  C25_25 
REMARK    7  A    between atoms: C25_25  and  C27_27 
REMARK    8  A    between atoms: C29_29  and  C30_30 
REMARK    9  A    between atoms: C33_33  and  C39_39 
REMARK   10  A    between atoms: C35_35  and  C36_36 
ROOT
ATOM      1  N14 XIG d   1      34.549  58.808  28.881  0.00  0.00    -0.335 N 
ATOM      2  C25 XIG d   1      34.356  58.610  30.204  0.00  0.00     0.255 C 
ATOM      3  O26 XIG d   1      34.774  57.620  30.806  0.00  0.00    -0.267 OA
ENDROOT
BRANCH   1   4
ATOM      4  C13 XIG d   1      35.673  58.144  28.202  0.00  0.00     0.022 C 
ATOM      5  H   XIG d   1      35.487  57.071  28.242  0.00  0.00     0.071 H 
ATOM      6  H   XIG d   1      35.724  58.547  27.191  0.00  0.00     0.071 H 
BRANCH   4   7
ATOM      7  C12 XIG d   1      37.030  58.394  28.858  0.00  0.00    -0.040 A 
ATOM      8  C11 XIG d   1      37.699  57.361  29.543  0.00  0.00    -0.074 A 
ATOM      9  C10 XIG d   1      38.953  57.594  30.137  0.00  0.00    -0.072 A 
ATOM     10  H   XIG d   1      37.242  56.374  29.613  0.00  0.00     0.084 H 
ATOM     11  C9  XIG d   1      39.572  58.861  30.054  0.00  0.00    -0.026 A 
ATOM     12  H   XIG d   1      39.454  56.785  30.669  0.00  0.00     0.084 H 
ATOM     13  C43 XIG d   1      38.882  59.897  29.385  0.00  0.00    -0.072 A 
ATOM     14  C42 XIG d   1      37.624  59.669  28.793  0.00  0.00    -0.074 A 
ATOM     15  H   XIG d   1      39.330  60.889  29.326  0.00  0.00     0.084 H 
ATOM     16  H   XIG d   1      37.109  60.483  28.283  0.00  0.00     0.084 H 
BRANCH  11  17
ATOM     17  C6  XIG d   1      40.914  59.089  30.628  0.00  0.00    -0.026 A 
ATOM     18  C5  XIG d   1      41.926  58.112  30.499  0.00  0.00    -0.070 A 
ATOM     19  C4  XIG d   1      43.219  58.332  31.012  0.00  0.00    -0.050 A 
ATOM     20  H   XIG d   1      41.703  57.172  29.994  0.00  0.00     0.085 H 
ATOM     21  C3  XIG d   1      43.541  59.546  31.648  0.00  0.00     0.068 A 
ATOM     22  H   XIG d   1      43.977  57.555  30.916  0.00  0.00     0.087 H 
ATOM     23  C8  XIG d   1      42.528  60.522  31.800  0.00  0.00    -0.050 A 
ATOM     24  C7  XIG d   1      41.232  60.291  31.296  0.00  0.00    -0.070 A 
ATOM     25  H   XIG d   1      42.751  61.459  32.310  0.00  0.00     0.087 H 
ATOM     26  H   XIG d   1      40.463  61.053  31.424  0.00  0.00     0.085 H 
BRANCH  21  27
ATOM     27  O2  XIG d   1      44.834  59.713  32.090  0.00  0.00    -0.356 OA
BRANCH  27  28
ATOM     28  C1  XIG d   1      45.311  61.049  32.174  0.00  0.00     0.010 C 
ATOM     29  H   XIG d   1      45.272  61.510  31.187  0.00  0.00     0.066 H 
ATOM     30  H   XIG d   1      44.685  61.614  32.865  0.00  0.00     0.066 H 
ATOM     31  H   XIG d   1      46.340  61.044  32.534  0.00  0.00     0.066 H 
ENDBRANCH  27  28
ENDBRANCH  21  27
ENDBRANCH  11  17
ENDBRANCH   4   7
ENDBRANCH   1   4
BRANCH   1  32
ATOM     32  C15 XIG d   1      33.581  59.548  28.043  0.00  0.00     0.041 C 
ATOM     33  C16 XIG d   1      34.106  60.946  27.633  0.00  0.00    -0.042 C 
ATOM     34  C17 XIG d   1      34.742  60.998  26.238  0.00  0.00    -0.059 C 
ATOM     35  H   XIG d   1      34.881  61.220  28.349  0.00  0.00     0.036 H 
ATOM     36  H   XIG d   1      33.249  61.619  27.620  0.00  0.00     0.036 H 
ATOM     37  C18 XIG d   1      33.791  60.455  25.167  0.00  0.00    -0.040 C 
ATOM     38  H   XIG d   1      35.641  60.382  26.245  0.00  0.00     0.033 H 
ATOM     39  H   XIG d   1      34.971  62.037  26.002  0.00  0.00     0.033 H 
ATOM     40  C19 XIG d   1      33.195  59.105  25.530  0.00  0.00    -0.050 A 
ATOM     41  H   XIG d   1      34.364  60.328  24.248  0.00  0.00     0.040 H 
ATOM     42  H   XIG d   1      32.969  61.163  25.063  0.00  0.00     0.040 H 
ATOM     43  C20 XIG d   1      32.763  58.249  24.495  0.00  0.00    -0.076 A 
ATOM     44  C24 XIG d   1      33.064  58.696  26.881  0.00  0.00    -0.029 A 
ATOM     45  C21 XIG d   1      32.205  56.993  24.796  0.00  0.00    -0.082 A 
ATOM     46  H   XIG d   1      32.862  58.563  23.456  0.00  0.00     0.084 H 
ATOM     47  C22 XIG d   1      32.048  56.595  26.136  0.00  0.00    -0.082 A 
ATOM     48  H   XIG d   1      31.894  56.328  23.990  0.00  0.00     0.083 H 
ATOM     49  C23 XIG d   1      32.475  57.446  27.169  0.00  0.00    -0.074 A 
ATOM     50  H   XIG d   1      31.597  55.631  26.372  0.00  0.00     0.083 H 
ATOM     51  H   XIG d   1      32.350  57.137  28.207  0.00  0.00     0.084 H 
ATOM     52  H   XIG d   1      32.703  59.754  28.655  0.00  0.00     0.080 H 
ENDBRANCH   1  32
BRANCH   2  53
ATOM     53  C27 XIG d   1      33.780  59.742  31.001  0.00  0.00     0.050 A 
ATOM     54  C28 XIG d   1      34.557  60.909  31.149  0.00  0.00    -0.049 A 
ATOM     55  C29 XIG d   1      34.171  61.953  32.015  0.00  0.00     0.058 A 
ATOM     56  H   XIG d   1      35.481  61.007  30.579  0.00  0.00     0.086 H 
ATOM     57  C33 XIG d   1      32.968  61.820  32.762  0.00  0.00     0.058 A 
ATOM     58  C34 XIG d   1      32.165  60.673  32.569  0.00  0.00    -0.048 A 
ATOM     59  C35 XIG d   1      32.562  59.622  31.716  0.00  0.00     0.057 A 
ATOM     60  H   XIG d   1      31.213  60.599  33.094  0.00  0.00     0.086 H 
BRANCH  55  61
ATOM     61  C30 XIG d   1      35.069  63.154  32.100  0.00  0.00     0.210 C 
ATOM     62  O31 XIG d   1      36.303  62.958  32.116  0.00  0.00    -0.644 OA
ATOM     63  O32 XIG d   1      34.588  64.302  32.024  0.00  0.00    -0.644 OA
ENDBRANCH  55  61
BRANCH  57  64
ATOM     64  C39 XIG d   1      32.548  62.800  33.821  0.00  0.00     0.210 C 
ATOM     65  O40 XIG d   1      31.341  63.107  33.903  0.00  0.00    -0.644 OA
ATOM     66  O41 XIG d   1      33.370  63.165  34.686  0.00  0.00    -0.644 OA
ENDBRANCH  57  64
BRANCH  59  67
ATOM     67  C36 XIG d   1      31.702  58.397  31.636  0.00  0.00     0.210 C 
ATOM     68  O37 XIG d   1      31.258  57.898  32.693  0.00  0.00    -0.644 OA
ATOM     69  O38 XIG d   1      31.469  57.868  30.522  0.00  0.00    -0.644 OA
ENDBRANCH  59  67
ENDBRANCH   2  53
TORSDOF 10
