REMARK WARNING: 32 MAX_TORS EXCEEDED!!!
REMARK  57 active torsions:
REMARK  status: ('A' for Active; 'I' for Inactive)
REMARK    1  A    between atoms: N_1  and  CA_2 
REMARK    2  A    between atoms: CA_2  and  C_3 
REMARK    3  A    between atoms: CA_2  and  CB_5 
REMARK       I    between atoms: C_3  and  N_12 
REMARK    4  A    between atoms: CB_5  and  CG_6 
REMARK    5  A    between atoms: CG_6  and  CD_7 
REMARK    6  A    between atoms: CD_7  and  NE_8 
REMARK       I    between atoms: NE_8  and  CZ_9 
REMARK       I    between atoms: CZ_9  and  NH1_10 
REMARK       I    between atoms: CZ_9  and  NH2_11 
REMARK    7  A    between atoms: N_12  and  CA_13 
REMARK    8  A    between atoms: CA_13  and  C_14 
REMARK    9  A    between atoms: CA_13  and  CB_16 
REMARK       I    between atoms: C_14  and  N_18 
REMARK   10  A    between atoms: CB_16  and  OG_17 
REMARK   11  A    between atoms: N_18  and  CA_19 
REMARK   12  A    between atoms: CA_19  and  C_20 
REMARK   13  A    between atoms: CA_19  and  CB_22 
REMARK       I    between atoms: C_20  and  N_24 
REMARK   14  A    between atoms: CB_22  and  OG_23 
REMARK   15  A    between atoms: N_24  and  CA_25 
REMARK   16  A    between atoms: CA_25  and  C_26 
REMARK   17  A    between atoms: CA_25  and  CB_28 
REMARK       I    between atoms: C_26  and  N_35 
REMARK   18  A    between atoms: CB_28  and  CG_29 
REMARK   19  A    between atoms: CG_29  and  CD_30 
REMARK   20  A    between atoms: CD_30  and  NE_31 
REMARK       I    between atoms: NE_31  and  CZ_32 
REMARK       I    between atoms: CZ_32  and  NH1_33 
REMARK       I    between atoms: CZ_32  and  NH2_34 
REMARK   21  A    between atoms: N_35  and  CA_36 
REMARK   22  A    between atoms: CA_36  and  C_37 
REMARK   23  A    between atoms: CA_36  and  CB_39 
REMARK       I    between atoms: C_37  and  N_42 
REMARK   24  A    between atoms: CB_39  and  OG1_40 
REMARK   25  A    between atoms: CB_39  and  CG2_41 
REMARK   26  A    between atoms: N_42  and  CA_43 
REMARK   27  A    between atoms: CA_43  and  C_44 
REMARK   28  A    between atoms: CA_43  and  CB_46 
REMARK       I    between atoms: C_44  and  N_53 
REMARK   29  A    between atoms: CB_46  and  CG_47 
REMARK   30  A    between atoms: CG_47  and  CD_48 
REMARK   31  A    between atoms: CD_48  and  NE_49 
REMARK       I    between atoms: NE_49  and  CZ_50 
REMARK       I    between atoms: CZ_50  and  NH1_51 
REMARK       I    between atoms: CZ_50  and  NH2_52 
REMARK   32  A    between atoms: N_53  and  CA_54 
REMARK   33  A    between atoms: CA_54  and  C_55 
REMARK   34  A    between atoms: CA_54  and  CB_57 
REMARK       I    between atoms: C_55  and  N_64 
REMARK   35  A    between atoms: CB_57  and  CG_58 
REMARK   36  A    between atoms: CG_58  and  CD_59 
REMARK   37  A    between atoms: CD_59  and  NE_60 
REMARK       I    between atoms: NE_60  and  CZ_61 
REMARK       I    between atoms: CZ_61  and  NH1_62 
REMARK   38  A    between atoms: N_64  and  CA_65 
REMARK   39  A    between atoms: CA_65  and  C_66 
REMARK   40  A    between atoms: CA_65  and  CB_68 
REMARK       I    between atoms: C_66  and  N_73 
REMARK   41  A    between atoms: CB_68  and  CG_69 
REMARK   42  A    between atoms: CG_69  and  CD_70 
REMARK   43  A    between atoms: N_73  and  CA_74 
REMARK   44  A    between atoms: CA_74  and  C_75 
REMARK   45  A    between atoms: CA_74  and  CB_77 
REMARK       I    between atoms: C_75  and  N_80 
REMARK   46  A    between atoms: CB_77  and  OG1_78 
REMARK   47  A    between atoms: CB_77  and  CG2_79 
REMARK   48  A    between atoms: N_80  and  CA_81 
REMARK   49  A    between atoms: CA_81  and  C_82 
REMARK   50  A    between atoms: CA_81  and  CB_84 
REMARK       I    between atoms: C_82  and  N_89 
REMARK   51  A    between atoms: CB_84  and  CG_85 
REMARK   52  A    between atoms: CG_85  and  CD_86 
REMARK       I    between atoms: CD_86  and  NE2_88 
REMARK   53  A    between atoms: N_89  and  CA_90 
REMARK   54  A    between atoms: CA_90  and  C_91 
REMARK   55  A    between atoms: CA_90  and  CB_93 
REMARK   56  A    between atoms: CB_93  and  CG1_94 
REMARK   57  A    between atoms: CB_93  and  CG2_95 
ROOT
ATOM      1  CA  ARG d   1     123.335   3.853  -0.627  0.00  0.00     0.089 C 
ATOM      2  H47 ARG d   1     122.772   4.605  -0.055  0.00  0.00     0.087 H 
ENDROOT
BRANCH   1   3
ATOM      3  N   ARG d   1     124.315   4.578  -1.387  0.00  0.00    -0.346 N 
ATOM      4  C   THR d   1     124.991   5.565  -0.878  0.00  0.00     0.243 C 
ATOM      5  O   THR d   1     124.801   5.996   0.265  0.00  0.00    -0.271 OA
ATOM      6  H46 ARG d   1     124.483   4.315  -2.337  0.00  0.00     0.163 HD
BRANCH   4   7
ATOM      7  CA  THR d   1     125.969   6.230  -1.832  0.00  0.00     0.113 C 
ATOM      8  H40 THR d   1     125.921   5.682  -2.785  0.00  0.00     0.091 H 
BRANCH   7   9
ATOM      9  N   THR d   1     125.536   7.558  -2.091  0.00  0.00    -0.344 N 
ATOM     10  C   ARG d   1     125.870   8.226  -3.157  0.00  0.00     0.241 C 
ATOM     11  O   ARG d   1     126.721   7.842  -3.972  0.00  0.00    -0.271 OA
ATOM     12  H39 THR d   1     124.944   8.003  -1.419  0.00  0.00     0.163 HD
BRANCH  10  13
ATOM     13  CA  ARG d   1     125.172   9.568  -3.324  0.00  0.00     0.089 C 
ATOM     14  H27 ARG d   1     124.170   9.477  -2.879  0.00  0.00     0.087 H 
BRANCH  13  15
ATOM     15  N   ARG d   1     125.858  10.631  -2.608  0.00  0.00    -0.346 N 
ATOM     16  C   SER d   1     125.737  10.753  -1.292  0.00  0.00     0.243 C 
ATOM     17  O   SER d   1     125.095   9.948  -0.621  0.00  0.00    -0.271 OA
ATOM     18  H26 ARG d   1     126.428  11.278  -3.113  0.00  0.00     0.163 HD
BRANCH  16  19
ATOM     19  CA  SER d   1     126.474  11.920  -0.613  0.00  0.00     0.109 C 
ATOM     20  H22 SER d   1     126.313  11.843   0.472  0.00  0.00     0.090 H 
BRANCH  19  21
ATOM     21  N   SER d   1     127.890  11.849  -0.875  0.00  0.00    -0.344 N 
ATOM     22  C   SER d   1     128.764  11.737   0.106  0.00  0.00     0.243 C 
ATOM     23  O   SER d   1     128.431  11.601   1.292  0.00  0.00    -0.271 OA
ATOM     24  H21 SER d   1     128.216  11.885  -1.820  0.00  0.00     0.163 HD
BRANCH  22  25
ATOM     25  CA  SER d   1     130.246  11.812  -0.285  0.00  0.00     0.109 C 
ATOM     26  H17 SER d   1     130.332  12.441  -1.183  0.00  0.00     0.090 H 
BRANCH  25  27
ATOM     27  N   SER d   1     131.006  12.404   0.780  0.00  0.00    -0.344 N 
ATOM     28  C   ARG d   1     131.186  13.708   0.881  0.00  0.00     0.249 C 
ATOM     29  O   ARG d   1     130.733  14.514   0.062  0.00  0.00    -0.271 OA
ATOM     30  H16 SER d   1     131.414  11.807   1.470  0.00  0.00     0.163 HD
BRANCH  28  31
ATOM     31  CA  ARG d   1     131.994  14.192   2.083  0.00  0.00     0.176 C 
ATOM     32  H4  ARG d   1     132.060  15.290   2.050  0.00  0.00     0.099 H 
BRANCH  31  33
ATOM     33  N   ARG d   1     131.324  13.797   3.315  0.00  0.00    -0.067 N 
ATOM     34  H1  ARG d   1     131.860  14.118   4.106  0.00  0.00     0.275 HD
ATOM     35  H2  ARG d   1     131.245  12.793   3.348  0.00  0.00     0.275 HD
ATOM     36  H3  ARG d   1     130.404  14.207   3.344  0.00  0.00     0.275 HD
ENDBRANCH  31  33
BRANCH  31  37
ATOM     37  CB  ARG d   1     133.414  13.611   2.034  0.00  0.00    -0.029 C 
ATOM     38  H5  ARG d   1     133.332  12.522   1.903  0.00  0.00     0.036 H 
ATOM     39  H6  ARG d   1     133.905  13.829   2.994  0.00  0.00     0.036 H 
BRANCH  37  40
ATOM     40  CG  ARG d   1     134.304  14.159   0.911  0.00  0.00    -0.047 C 
ATOM     41  H7  ARG d   1     133.759  14.080  -0.041  0.00  0.00     0.035 H 
ATOM     42  H8  ARG d   1     135.220  13.553   0.860  0.00  0.00     0.035 H 
BRANCH  40  43
ATOM     43  CD  ARG d   1     134.698  15.630   1.133  0.00  0.00     0.009 C 
ATOM     44  H9  ARG d   1     135.435  15.910   0.366  0.00  0.00     0.064 H 
ATOM     45  H10 ARG d   1     135.154  15.719   2.130  0.00  0.00     0.064 H 
BRANCH  43  46
ATOM     46  NE  ARG d   1     133.564  16.576   1.055  0.00  0.00    -0.227 N 
ATOM     47  CZ  ARG d   1     133.249  17.478   2.005  0.00  0.00     0.665 C 
ATOM     48  NH1 ARG d   1     133.907  17.500   3.154  0.00  0.00    -0.235 N 
ATOM     49  NH2 ARG d   1     132.262  18.342   1.799  0.00  0.00    -0.235 N 
ATOM     50  H12 ARG d   1     133.661  18.192   3.876  0.00  0.00     0.174 HD
ATOM     51  H13 ARG d   1     134.665  16.825   3.326  0.00  0.00     0.174 HD
ATOM     52  H14 ARG d   1     131.746  18.331   0.908  0.00  0.00     0.174 HD
ATOM     53  H15 ARG d   1     132.013  19.023   2.530  0.00  0.00     0.174 HD
ATOM     54  H11 ARG d   1     132.972  16.543   0.213  0.00  0.00     0.177 HD
ENDBRANCH  43  46
ENDBRANCH  40  43
ENDBRANCH  37  40
ENDBRANCH  31  37
ENDBRANCH  28  31
ENDBRANCH  25  27
BRANCH  25  55
ATOM     55  CB  SER d   1     130.852  10.446  -0.590  0.00  0.00     0.044 C 
ATOM     56  H18 SER d   1     131.674  10.569  -1.311  0.00  0.00     0.077 H 
ATOM     57  H19 SER d   1     130.077   9.796  -1.024  0.00  0.00     0.077 H 
BRANCH  55  58
ATOM     58  OG  SER d   1     131.359   9.841   0.599  0.00  0.00    -0.398 OA
ATOM     59  H20 SER d   1     131.731   8.993   0.388  0.00  0.00     0.209 HD
ENDBRANCH  55  58
ENDBRANCH  25  55
ENDBRANCH  22  25
ENDBRANCH  19  21
BRANCH  19  60
ATOM     60  CB  SER d   1     125.938  13.282  -1.090  0.00  0.00     0.044 C 
ATOM     61  H23 SER d   1     125.882  13.274  -2.188  0.00  0.00     0.077 H 
ATOM     62  H24 SER d   1     126.634  14.069  -0.764  0.00  0.00     0.077 H 
BRANCH  60  63
ATOM     63  OG  SER d   1     124.646  13.573  -0.570  0.00  0.00    -0.398 OA
ATOM     64  H25 SER d   1     124.034  12.903  -0.852  0.00  0.00     0.209 HD
ENDBRANCH  60  63
ENDBRANCH  19  60
ENDBRANCH  16  19
ENDBRANCH  13  15
BRANCH  13  65
ATOM     65  CB  ARG d   1     124.982   9.882  -4.820  0.00  0.00    -0.036 C 
ATOM     66  H28 ARG d   1     124.628   8.966  -5.315  0.00  0.00     0.036 H 
ATOM     67  H29 ARG d   1     125.961  10.167  -5.232  0.00  0.00     0.036 H 
BRANCH  65  68
ATOM     68  CG  ARG d   1     123.997  10.998  -5.141  0.00  0.00    -0.048 C 
ATOM     69  H30 ARG d   1     123.953  11.129  -6.232  0.00  0.00     0.035 H 
ATOM     70  H31 ARG d   1     124.351  11.929  -4.674  0.00  0.00     0.035 H 
BRANCH  68  71
ATOM     71  CD  ARG d   1     122.592  10.690  -4.624  0.00  0.00     0.009 C 
ATOM     72  H32 ARG d   1     121.922  11.505  -4.934  0.00  0.00     0.064 H 
ATOM     73  H33 ARG d   1     122.629  10.644  -3.526  0.00  0.00     0.064 H 
BRANCH  71  74
ATOM     74  NE  ARG d   1     122.039   9.415  -5.126  0.00  0.00    -0.227 N 
ATOM     75  CZ  ARG d   1     120.819   8.946  -4.788  0.00  0.00     0.665 C 
ATOM     76  NH1 ARG d   1     119.954   9.733  -4.161  0.00  0.00    -0.235 N 
ATOM     77  NH2 ARG d   1     120.455   7.716  -5.127  0.00  0.00    -0.235 N 
ATOM     78  H35 ARG d   1     119.024   9.374  -3.904  0.00  0.00     0.174 HD
ATOM     79  H36 ARG d   1     120.213  10.703  -3.932  0.00  0.00     0.174 HD
ATOM     80  H37 ARG d   1     121.120   7.098  -5.614  0.00  0.00     0.174 HD
ATOM     81  H38 ARG d   1     119.508   7.379  -4.903  0.00  0.00     0.174 HD
ATOM     82  H34 ARG d   1     122.616   8.854  -5.769  0.00  0.00     0.177 HD
ENDBRANCH  71  74
ENDBRANCH  68  71
ENDBRANCH  65  68
ENDBRANCH  13  65
ENDBRANCH  10  13
ENDBRANCH   7   9
BRANCH   7  83
ATOM     83  CB  THR d   1     127.458   6.134  -1.339  0.00  0.00     0.060 C 
ATOM     84  H41 THR d   1     128.088   6.543  -2.142  0.00  0.00     0.086 H 
BRANCH  83  85
ATOM     85  OG1 THR d   1     127.853   4.766  -1.126  0.00  0.00    -0.393 OA
ATOM     86  H42 THR d   1     128.755   4.741  -0.829  0.00  0.00     0.210 HD
ENDBRANCH  83  85
BRANCH  83  87
ATOM     87  CG2 THR d   1     127.738   6.940  -0.096  0.00  0.00    -0.050 C 
ATOM     88  H43 THR d   1     128.795   6.823   0.186  0.00  0.00     0.031 H 
ATOM     89  H44 THR d   1     127.098   6.583   0.724  0.00  0.00     0.031 H 
ATOM     90  H45 THR d   1     127.526   8.001  -0.292  0.00  0.00     0.031 H 
ENDBRANCH  83  87
ENDBRANCH   7  83
ENDBRANCH   4   7
ENDBRANCH   1   3
BRANCH   1  91
ATOM     91  C   ARG d   1     123.960   2.931   0.411  0.00  0.00     0.241 C 
ATOM     92  O   ARG d   1     124.792   2.083   0.086  0.00  0.00    -0.271 OA
ATOM     93  N   ARG d   1     123.536   3.103   1.666  0.00  0.00    -0.346 N 
ATOM     94  H59 ARG d   1     122.761   3.712   1.833  0.00  0.00     0.163 HD
BRANCH  93  95
ATOM     95  CA  ARG d   1     124.163   2.434   2.805  0.00  0.00     0.089 C 
ATOM     96  H60 ARG d   1     125.229   2.287   2.576  0.00  0.00     0.087 H 
BRANCH  95  97
ATOM     97  C   ARG d   1     123.541   1.094   3.088  0.00  0.00     0.241 C 
ATOM     98  O   ARG d   1     122.327   0.929   2.973  0.00  0.00    -0.271 OA
ATOM     99  N   GLU d   1     124.379   0.162   3.472  0.00  0.00    -0.346 N 
ATOM    100  H72 GLU d   1     125.350   0.393   3.528  0.00  0.00     0.163 HD
BRANCH  99 101
ATOM    101  CA  GLU d   1     123.976  -1.176   3.818  0.00  0.00     0.090 C 
ATOM    102  H73 GLU d   1     123.234  -1.540   3.092  0.00  0.00     0.087 H 
BRANCH 101 103
ATOM    103  C   GLU d   1     123.373  -1.167   5.211  0.00  0.00     0.241 C 
ATOM    104  O   GLU d   1     124.065  -0.919   6.207  0.00  0.00    -0.271 OA
ATOM    105  N   THR d   1     122.119  -1.381   5.271  0.00  0.00    -0.344 N 
ATOM    106  H78 THR d   1     121.613  -1.497   4.416  0.00  0.00     0.163 HD
BRANCH 105 107
ATOM    107  CA  THR d   1     121.408  -1.462   6.496  0.00  0.00     0.113 C 
ATOM    108  H79 THR d   1     122.079  -1.248   7.341  0.00  0.00     0.091 H 
BRANCH 107 109
ATOM    109  C   THR d   1     120.875  -2.893   6.596  0.00  0.00     0.243 C 
ATOM    110  O   THR d   1     119.826  -3.211   6.067  0.00  0.00    -0.271 OA
ATOM    111  N   GLN d   1     121.656  -3.772   7.162  0.00  0.00    -0.346 N 
ATOM    112  H85 GLN d   1     122.558  -3.494   7.491  0.00  0.00     0.163 HD
BRANCH 111 113
ATOM    113  CA  GLN d   1     121.227  -5.146   7.317  0.00  0.00     0.090 C 
ATOM    114  H86 GLN d   1     120.684  -5.416   6.399  0.00  0.00     0.087 H 
BRANCH 113 115
ATOM    115  C   GLN d   1     120.244  -5.273   8.467  0.00  0.00     0.241 C 
ATOM    116  O   GLN d   1     120.585  -5.039   9.630  0.00  0.00    -0.271 OA
ATOM    117  N   VAL d   1     119.027  -5.612   8.153  0.00  0.00    -0.344 N 
ATOM    118  H93 VAL d   1     118.808  -5.844   7.205  0.00  0.00     0.163 HD
BRANCH 117 119
ATOM    119  CA  VAL d   1     118.002  -5.657   9.145  0.00  0.00     0.099 C 
ATOM    120  H94 VAL d   1     118.459  -5.368  10.103  0.00  0.00     0.090 H 
BRANCH 119 121
ATOM    121  C   VAL d   1     117.468  -7.046   9.288  0.00  0.00     0.197 C 
ATOM    122  O   VAL d   1     116.899  -7.368  10.353  0.00  0.00    -0.646 OA
ATOM    123  OXT VAL d   1     117.640  -7.835   8.353  0.00  0.00    -0.646 OA
ENDBRANCH 119 121
BRANCH 119 124
ATOM    124  CB  VAL d   1     116.844  -4.675   8.867  0.00  0.00    -0.032 C 
ATOM    125  H95 VAL d   1     116.150  -4.715   9.720  0.00  0.00     0.042 H 
BRANCH 124 126
ATOM    126  CG1 VAL d   1     117.359  -3.284   8.738  0.00  0.00    -0.071 C 
ATOM    127  H96 VAL d   1     116.521  -2.600   8.540  0.00  0.00     0.028 H 
ATOM    128  H97 VAL d   1     118.077  -3.234   7.906  0.00  0.00     0.028 H 
ATOM    129  H98 VAL d   1     117.860  -2.990   9.672  0.00  0.00     0.028 H 
ENDBRANCH 124 126
BRANCH 124 130
ATOM    130  CG2 VAL d   1     116.085  -5.040   7.624  0.00  0.00    -0.071 C 
ATOM    131  H99 VAL d   1     115.703  -6.067   7.716  0.00  0.00     0.028 H 
ATOM    132 0H10 VAL d   1     116.754  -4.974   6.753  0.00  0.00     0.028 H 
ATOM    133 1H10 VAL d   1     115.242  -4.346   7.492  0.00  0.00     0.028 H 
ENDBRANCH 124 130
ENDBRANCH 119 124
ENDBRANCH 117 119
ENDBRANCH 113 115
BRANCH 113 134
ATOM    134  CB  GLN d   1     122.410  -6.143   7.439  0.00  0.00    -0.030 C 
ATOM    135  H87 GLN d   1     123.015  -6.049   6.525  0.00  0.00     0.037 H 
ATOM    136  H88 GLN d   1     121.983  -7.155   7.494  0.00  0.00     0.037 H 
BRANCH 134 137
ATOM    137  CG  GLN d   1     123.350  -5.980   8.626  0.00  0.00     0.011 C 
ATOM    138  H89 GLN d   1     124.039  -6.838   8.645  0.00  0.00     0.047 H 
ATOM    139  H90 GLN d   1     122.749  -5.972   9.547  0.00  0.00     0.047 H 
BRANCH 137 140
ATOM    140  CD  GLN d   1     124.174  -4.702   8.578  0.00  0.00     0.215 C 
ATOM    141  OE1 GLN d   1     124.488  -4.187   7.507  0.00  0.00    -0.274 OA
ATOM    142  NE2 GLN d   1     124.538  -4.188   9.714  0.00  0.00    -0.370 N 
ATOM    143  H91 GLN d   1     125.081  -3.348   9.732  0.00  0.00     0.159 HD
ATOM    144  H92 GLN d   1     124.275  -4.632  10.571  0.00  0.00     0.159 HD
ENDBRANCH 137 140
ENDBRANCH 134 137
ENDBRANCH 113 134
ENDBRANCH 111 113
ENDBRANCH 107 109
BRANCH 107 145
ATOM    145  CB  THR d   1     120.233  -0.437   6.494  0.00  0.00     0.060 C 
ATOM    146  H80 THR d   1     119.439  -0.802   5.826  0.00  0.00     0.086 H 
BRANCH 145 147
ATOM    147  OG1 THR d   1     120.726   0.840   6.008  0.00  0.00    -0.393 OA
ATOM    148  H81 THR d   1     121.421   1.148   6.578  0.00  0.00     0.210 HD
ENDBRANCH 145 147
BRANCH 145 149
ATOM    149  CG2 THR d   1     119.649  -0.246   7.911  0.00  0.00    -0.050 C 
ATOM    150  H82 THR d   1     118.825   0.481   7.873  0.00  0.00     0.031 H 
ATOM    151  H83 THR d   1     120.435   0.126   8.585  0.00  0.00     0.031 H 
ATOM    152  H84 THR d   1     119.271  -1.209   8.285  0.00  0.00     0.031 H 
ENDBRANCH 145 149
ENDBRANCH 107 145
ENDBRANCH 105 107
ENDBRANCH 101 103
BRANCH 101 153
ATOM    153  CB  GLU d   1     125.193  -2.093   3.814  0.00  0.00    -0.029 C 
ATOM    154  H74 GLU d   1     125.861  -1.780   4.630  0.00  0.00     0.037 H 
ATOM    155  H75 GLU d   1     125.710  -1.972   2.851  0.00  0.00     0.037 H 
BRANCH 153 156
ATOM    156  CG  GLU d   1     124.879  -3.569   4.000  0.00  0.00     0.018 C 
ATOM    157  H76 GLU d   1     124.182  -3.676   4.844  0.00  0.00     0.049 H 
ATOM    158  H77 GLU d   1     125.814  -4.101   4.227  0.00  0.00     0.049 H 
BRANCH 156 159
ATOM    159  CD  GLU d   1     124.257  -4.190   2.782  0.00  0.00     0.172 C 
ATOM    160  OE1 GLU d   1     125.002  -4.450   1.814  0.00  0.00    -0.648 OA
ATOM    161  OE2 GLU d   1     123.037  -4.474   2.770  0.00  0.00    -0.648 OA
ENDBRANCH 156 159
ENDBRANCH 153 156
ENDBRANCH 101 153
ENDBRANCH  99 101
ENDBRANCH  95  97
BRANCH  95 162
ATOM    162  CB  ARG d   1     124.036   3.296   4.056  0.00  0.00    -0.036 C 
ATOM    163  H61 ARG d   1     124.598   2.810   4.867  0.00  0.00     0.036 H 
ATOM    164  H62 ARG d   1     122.972   3.352   4.329  0.00  0.00     0.036 H 
BRANCH 162 165
ATOM    165  CG  ARG d   1     124.557   4.702   3.897  0.00  0.00    -0.048 C 
ATOM    166  H63 ARG d   1     124.415   5.241   4.846  0.00  0.00     0.035 H 
ATOM    167  H64 ARG d   1     123.985   5.203   3.102  0.00  0.00     0.035 H 
BRANCH 165 168
ATOM    168  CD  ARG d   1     126.029   4.735   3.533  0.00  0.00     0.009 C 
ATOM    169  H65 ARG d   1     126.183   4.164   2.606  0.00  0.00     0.064 H 
ATOM    170  H66 ARG d   1     126.612   4.278   4.347  0.00  0.00     0.064 H 
BRANCH 168 171
ATOM    171  NE  ARG d   1     126.485   6.106   3.331  0.00  0.00    -0.227 N 
ATOM    172  CZ  ARG d   1     127.760   6.517   3.401  0.00  0.00     0.665 C 
ATOM    173  NH1 ARG d   1     128.734   5.656   3.664  0.00  0.00    -0.235 N 
ATOM    174  NH2 ARG d   1     128.052   7.785   3.198  0.00  0.00    -0.235 N 
ATOM    175  H68 ARG d   1     129.710   5.982   3.716  0.00  0.00     0.174 HD
ATOM    176  H69 ARG d   1     128.515   4.661   3.817  0.00  0.00     0.174 HD
ATOM    177  H70 ARG d   1     127.301   8.460   2.993  0.00  0.00     0.174 HD
ATOM    178  H71 ARG d   1     129.031   8.102   3.244  0.00  0.00     0.174 HD
ATOM    179  H67 ARG d   1     125.770   6.816   3.117  0.00  0.00     0.177 HD
ENDBRANCH 168 171
ENDBRANCH 165 168
ENDBRANCH 162 165
ENDBRANCH  95 162
ENDBRANCH  93  95
ENDBRANCH   1  91
BRANCH   1 180
ATOM    180  CB  ARG d   1     122.313   3.170  -1.540  0.00  0.00    -0.036 C 
ATOM    181  H48 ARG d   1     121.582   3.933  -1.846  0.00  0.00     0.036 H 
ATOM    182  H49 ARG d   1     121.807   2.394  -0.947  0.00  0.00     0.036 H 
BRANCH 180 183
ATOM    183  CG  ARG d   1     122.833   2.512  -2.796  0.00  0.00    -0.048 C 
ATOM    184  H50 ARG d   1     123.440   1.635  -2.527  0.00  0.00     0.035 H 
ATOM    185  H51 ARG d   1     123.452   3.228  -3.357  0.00  0.00     0.035 H 
BRANCH 183 186
ATOM    186  CD  ARG d   1     121.655   2.071  -3.660  0.00  0.00     0.009 C 
ATOM    187  H52 ARG d   1     121.132   1.244  -3.156  0.00  0.00     0.064 H 
ATOM    188  H53 ARG d   1     122.035   1.726  -4.633  0.00  0.00     0.064 H 
BRANCH 186 189
ATOM    189  NE  ARG d   1     120.698   3.180  -3.883  0.00  0.00    -0.227 N 
ATOM    190  CZ  ARG d   1     119.508   3.090  -4.507  0.00  0.00     0.665 C 
ATOM    191  NH1 ARG d   1     119.150   1.975  -5.136  0.00  0.00    -0.235 N 
ATOM    192  NH2 ARG d   1     118.682   4.118  -4.497  0.00  0.00    -0.235 N 
ATOM    193  H55 ARG d   1     118.237   1.921  -5.609  0.00  0.00     0.174 HD
ATOM    194  H56 ARG d   1     119.786   1.165  -5.151  0.00  0.00     0.174 HD
ATOM    195  H57 ARG d   1     118.948   4.987  -4.013  0.00  0.00     0.174 HD
ATOM    196  H58 ARG d   1     117.771   4.051  -4.973  0.00  0.00     0.174 HD
ATOM    197  H54 ARG d   1     120.969   4.108  -3.527  0.00  0.00     0.177 HD
ENDBRANCH 186 189
ENDBRANCH 183 186
ENDBRANCH 180 183
ENDBRANCH   1 180
TORSDOF 57
