REMARK WARNING: 32 MAX_TORS EXCEEDED!!!
REMARK  79 active torsions:
REMARK  status: ('A' for Active; 'I' for Inactive)
REMARK    1  A    between atoms: N_1  and  CA_2 
REMARK    2  A    between atoms: CA_2  and  C_3 
REMARK    3  A    between atoms: CA_2  and  CB_5 
REMARK       I    between atoms: C_3  and  N_12 
REMARK    4  A    between atoms: CB_5  and  CG_6 
REMARK    5  A    between atoms: CG_6  and  CD_7 
REMARK    6  A    between atoms: CD_7  and  NE_8 
REMARK       I    between atoms: NE_8  and  CZ_9 
REMARK       I    between atoms: CZ_9  and  NH1_10 
REMARK       I    between atoms: CZ_9  and  NH2_11 
REMARK    7  A    between atoms: N_12  and  CA_13 
REMARK    8  A    between atoms: CA_13  and  C_14 
REMARK    9  A    between atoms: CA_13  and  CB_16 
REMARK       I    between atoms: C_14  and  N_20 
REMARK   10  A    between atoms: CB_16  and  CG1_17 
REMARK   11  A    between atoms: CB_16  and  CG2_18 
REMARK   12  A    between atoms: CG1_17  and  CD1_19 
REMARK   13  A    between atoms: N_20  and  CA_21 
REMARK   14  A    between atoms: CA_21  and  C_22 
REMARK   15  A    between atoms: CA_21  and  CB_24 
REMARK       I    between atoms: C_22  and  N_26 
REMARK   16  A    between atoms: CB_24  and  OG_25 
REMARK   17  A    between atoms: N_26  and  CA_27 
REMARK   18  A    between atoms: CA_27  and  C_28 
REMARK   19  A    between atoms: CA_27  and  CB_30 
REMARK       I    between atoms: C_28  and  N_31 
REMARK   20  A    between atoms: N_31  and  CA_32 
REMARK   21  A    between atoms: CA_32  and  C_33 
REMARK   22  A    between atoms: CA_32  and  CB_35 
REMARK       I    between atoms: C_33  and  N_39 
REMARK   23  A    between atoms: CB_35  and  CG_36 
REMARK   24  A    between atoms: N_39  and  CA_40 
REMARK   25  A    between atoms: CA_40  and  C_41 
REMARK   26  A    between atoms: CA_40  and  CB_43 
REMARK       I    between atoms: C_41  and  N_44 
REMARK   27  A    between atoms: N_44  and  CA_45 
REMARK   28  A    between atoms: CA_45  and  C_46 
REMARK   29  A    between atoms: CA_45  and  CB_48 
REMARK       I    between atoms: C_46  and  N_52 
REMARK   30  A    between atoms: CB_48  and  CG_49 
REMARK   31  A    between atoms: CG_49  and  SD_50 
REMARK   32  A    between atoms: SD_50  and  CE_51 
REMARK   33  A    between atoms: N_52  and  CA_53 
REMARK   34  A    between atoms: CA_53  and  C_54 
REMARK   35  A    between atoms: CA_53  and  CB_56 
REMARK       I    between atoms: C_54  and  N_60 
REMARK   36  A    between atoms: CB_56  and  CG_57 
REMARK   37  A    between atoms: CG_57  and  SD_58 
REMARK   38  A    between atoms: SD_58  and  CE_59 
REMARK   39  A    between atoms: N_60  and  CA_61 
REMARK   40  A    between atoms: CA_61  and  C_62 
REMARK   41  A    between atoms: CA_61  and  CB_64 
REMARK       I    between atoms: C_62  and  N_69 
REMARK   42  A    between atoms: CB_64  and  CG_65 
REMARK   43  A    between atoms: CG_65  and  CD_66 
REMARK       I    between atoms: CD_66  and  NE2_68 
REMARK   44  A    between atoms: N_69  and  CA_70 
REMARK   45  A    between atoms: CA_70  and  C_71 
REMARK   46  A    between atoms: CA_70  and  CB_73 
REMARK       I    between atoms: C_71  and  N_74 
REMARK   47  A    between atoms: N_74  and  CA_75 
REMARK   48  A    between atoms: CA_75  and  C_76 
REMARK   49  A    between atoms: CA_75  and  CB_78 
REMARK       I    between atoms: C_76  and  N_82 
REMARK   50  A    between atoms: CB_78  and  CG_79 
REMARK   51  A    between atoms: CG_79  and  CD1_80 
REMARK   52  A    between atoms: CG_79  and  CD2_81 
REMARK   53  A    between atoms: N_82  and  CA_83 
REMARK   54  A    between atoms: CA_83  and  C_84 
REMARK   55  A    between atoms: CA_83  and  CB_86 
REMARK       I    between atoms: C_84  and  N_90 
REMARK   56  A    between atoms: CB_86  and  CG_87 
REMARK   57  A    between atoms: CG_87  and  CD1_88 
REMARK   58  A    between atoms: CG_87  and  CD2_89 
REMARK   59  A    between atoms: N_90  and  CA_91 
REMARK   60  A    between atoms: CA_91  and  C_92 
REMARK       I    between atoms: C_92  and  N_94 
REMARK   61  A    between atoms: N_94  and  CA_95 
REMARK   62  A    between atoms: CA_95  and  C_96 
REMARK   63  A    between atoms: CA_95  and  CB_98 
REMARK       I    between atoms: C_96  and  N_99 
REMARK   64  A    between atoms: N_99  and  CA_100 
REMARK   65  A    between atoms: CA_100  and  C_101 
REMARK   66  A    between atoms: CA_100  and  CB_103 
REMARK       I    between atoms: C_101  and  N_110 
REMARK   67  A    between atoms: CB_103  and  CG_104 
REMARK   68  A    between atoms: CG_104  and  CD_105 
REMARK   69  A    between atoms: CD_105  and  NE_106 
REMARK       I    between atoms: NE_106  and  CZ_107 
REMARK       I    between atoms: CZ_107  and  NH1_108 
REMARK   70  A    between atoms: N_110  and  CA_111 
REMARK   71  A    between atoms: CA_111  and  C_112 
REMARK   72  A    between atoms: CA_111  and  CB_114 
REMARK       I    between atoms: C_112  and  N_115 
REMARK   73  A    between atoms: N_115  and  CA_116 
REMARK   74  A    between atoms: CA_116  and  C_117 
REMARK   75  A    between atoms: CA_116  and  CB_119 
REMARK   76  A    between atoms: CB_119  and  CG_120 
REMARK   77  A    between atoms: CG_120  and  CD_121 
REMARK   78  A    between atoms: CD_121  and  CE_122 
REMARK   79  A    between atoms: CE_122  and  NZ_123 
ROOT
ATOM      1  CA  GLN d   1      54.800  12.074   5.931  0.00  0.00     0.090 C 
ATOM      2  H65 GLN d   1      54.266  12.371   6.845  0.00  0.00     0.087 H 
ENDROOT
BRANCH   1   3
ATOM      3  N   GLN d   1      55.595  10.864   6.234  0.00  0.00    -0.346 N 
ATOM      4  C   MET d   1      55.200   9.930   7.108  0.00  0.00     0.241 C 
ATOM      5  O   MET d   1      54.144   9.998   7.739  0.00  0.00    -0.271 OA
ATOM      6  H64 GLN d   1      56.468  10.738   5.764  0.00  0.00     0.163 HD
BRANCH   4   7
ATOM      7  CA  MET d   1      56.116   8.698   7.237  0.00  0.00     0.090 C 
ATOM      8  H56 MET d   1      55.544   7.868   7.677  0.00  0.00     0.087 H 
BRANCH   7   9
ATOM      9  N   MET d   1      56.596   8.304   5.919  0.00  0.00    -0.346 N 
ATOM     10  C   MET d   1      55.753   7.945   4.972  0.00  0.00     0.241 C 
ATOM     11  O   MET d   1      54.536   7.893   5.150  0.00  0.00    -0.271 OA
ATOM     12  H55 MET d   1      57.578   8.306   5.731  0.00  0.00     0.163 HD
BRANCH  10  13
ATOM     13  CA  MET d   1      56.352   7.565   3.626  0.00  0.00     0.090 C 
ATOM     14  H47 MET d   1      55.605   7.845   2.869  0.00  0.00     0.087 H 
BRANCH  13  15
ATOM     15  N   MET d   1      57.563   8.316   3.300  0.00  0.00    -0.346 N 
ATOM     16  C   ALA d   1      57.566   9.640   3.153  0.00  0.00     0.240 C 
ATOM     17  O   ALA d   1      56.556  10.335   3.286  0.00  0.00    -0.271 OA
ATOM     18  H46 MET d   1      58.422   7.817   3.183  0.00  0.00     0.163 HD
BRANCH  16  19
ATOM     19  CA  ALA d   1      58.911  10.271   2.769  0.00  0.00     0.086 C 
ATOM     20  H42 ALA d   1      59.024  11.208   3.333  0.00  0.00     0.086 H 
BRANCH  19  21
ATOM     21  N   ALA d   1      60.033   9.393   3.114  0.00  0.00    -0.346 N 
ATOM     22  C   ASP d   1      60.296   9.025   4.374  0.00  0.00     0.241 C 
ATOM     23  O   ASP d   1      59.612   9.382   5.336  0.00  0.00    -0.271 OA
ATOM     24  H41 ALA d   1      60.624   9.056   2.381  0.00  0.00     0.163 HD
BRANCH  22  25
ATOM     25  CA  ASP d   1      61.482   8.068   4.552  0.00  0.00     0.098 C 
ATOM     26  H38 ASP d   1      61.358   7.258   3.818  0.00  0.00     0.088 H 
BRANCH  25  27
ATOM     27  N   ASP d   1      62.764   8.722   4.265  0.00  0.00    -0.346 N 
ATOM     28  C   ALA d   1      63.417   9.470   5.156  0.00  0.00     0.240 C 
ATOM     29  O   ALA d   1      63.006   9.683   6.300  0.00  0.00    -0.271 OA
ATOM     30  H37 ASP d   1      63.167   8.601   3.358  0.00  0.00     0.163 HD
BRANCH  28  31
ATOM     31  CA  ALA d   1      64.749  10.055   4.681  0.00  0.00     0.086 C 
ATOM     32  H33 ALA d   1      65.449  10.073   5.529  0.00  0.00     0.086 H 
BRANCH  31  33
ATOM     33  N   ALA d   1      65.329   9.233   3.609  0.00  0.00    -0.346 N 
ATOM     34  C   SER d   1      65.582   7.926   3.765  0.00  0.00     0.243 C 
ATOM     35  O   SER d   1      65.330   7.318   4.805  0.00  0.00    -0.271 OA
ATOM     36  H32 ALA d   1      65.542   9.664   2.732  0.00  0.00     0.163 HD
BRANCH  34  37
ATOM     37  CA  SER d   1      66.171   7.188   2.552  0.00  0.00     0.109 C 
ATOM     38  H28 SER d   1      67.260   7.113   2.687  0.00  0.00     0.090 H 
BRANCH  37  39
ATOM     39  N   SER d   1      65.622   5.830   2.450  0.00  0.00    -0.344 N 
ATOM     40  C   ILE d   1      66.388   4.764   2.202  0.00  0.00     0.241 C 
ATOM     41  O   ILE d   1      67.608   4.829   2.045  0.00  0.00    -0.271 OA
ATOM     42  H27 SER d   1      64.638   5.698   2.571  0.00  0.00     0.163 HD
BRANCH  40  43
ATOM     43  CA  ILE d   1      65.664   3.414   2.136  0.00  0.00     0.092 C 
ATOM     44  H17 ILE d   1      66.408   2.621   2.301  0.00  0.00     0.088 H 
BRANCH  43  45
ATOM     45  N   ILE d   1      64.637   3.301   3.188  0.00  0.00    -0.346 N 
ATOM     46  C   ARG d   1      64.963   3.319   4.488  0.00  0.00     0.249 C 
ATOM     47  O   ARG d   1      66.123   3.440   4.874  0.00  0.00    -0.271 OA
ATOM     48  H16 ILE d   1      63.676   3.209   2.926  0.00  0.00     0.163 HD
BRANCH  46  49
ATOM     49  CA  ARG d   1      63.821   3.164   5.516  0.00  0.00     0.176 C 
ATOM     50  H4  ARG d   1      64.047   2.288   6.142  0.00  0.00     0.099 H 
BRANCH  49  51
ATOM     51  N   ARG d   1      63.750   4.372   6.396  0.00  0.00    -0.067 N 
ATOM     52  H1  ARG d   1      63.002   4.259   7.062  0.00  0.00     0.275 HD
ATOM     53  H2  ARG d   1      63.577   5.189   5.832  0.00  0.00     0.275 HD
ATOM     54  H3  ARG d   1      64.623   4.482   6.887  0.00  0.00     0.275 HD
ENDBRANCH  49  51
BRANCH  49  55
ATOM     55  CB  ARG d   1      62.450   2.934   4.851  0.00  0.00    -0.029 C 
ATOM     56  H5  ARG d   1      62.586   2.396   3.901  0.00  0.00     0.036 H 
ATOM     57  H6  ARG d   1      61.966   3.903   4.657  0.00  0.00     0.036 H 
BRANCH  55  58
ATOM     58  CG  ARG d   1      61.571   2.098   5.797  0.00  0.00    -0.047 C 
ATOM     59  H7  ARG d   1      61.563   2.567   6.792  0.00  0.00     0.035 H 
ATOM     60  H8  ARG d   1      61.987   1.082   5.873  0.00  0.00     0.035 H 
BRANCH  58  61
ATOM     61  CD  ARG d   1      60.136   2.016   5.268  0.00  0.00     0.009 C 
ATOM     62  H9  ARG d   1      59.611   1.187   5.765  0.00  0.00     0.064 H 
ATOM     63  H10 ARG d   1      60.157   1.839   4.183  0.00  0.00     0.064 H 
BRANCH  61  64
ATOM     64  NE  ARG d   1      59.433   3.267   5.541  0.00  0.00    -0.227 N 
ATOM     65  CZ  ARG d   1      58.111   3.351   5.545  0.00  0.00     0.665 C 
ATOM     66  NH1 ARG d   1      57.388   2.312   5.275  0.00  0.00    -0.235 N 
ATOM     67  NH2 ARG d   1      57.544   4.470   5.840  0.00  0.00    -0.235 N 
ATOM     68  H12 ARG d   1      56.361   2.384   5.280  0.00  0.00     0.174 HD
ATOM     69  H13 ARG d   1      57.840   1.413   5.055  0.00  0.00     0.174 HD
ATOM     70  H14 ARG d   1      58.118   5.298   6.055  0.00  0.00     0.174 HD
ATOM     71  H15 ARG d   1      56.516   4.537   5.861  0.00  0.00     0.174 HD
ATOM     72  H11 ARG d   1      59.985   4.114   5.737  0.00  0.00     0.177 HD
ENDBRANCH  61  64
ENDBRANCH  58  61
ENDBRANCH  55  58
ENDBRANCH  49  55
ENDBRANCH  46  49
ENDBRANCH  43  45
BRANCH  43  73
ATOM     73  CB  ILE d   1      65.039   3.204   0.739  0.00  0.00    -0.030 C 
ATOM     74  H18 ILE d   1      64.627   2.185   0.686  0.00  0.00     0.043 H 
BRANCH  73  75
ATOM     75  CG1 ILE d   1      66.112   3.366  -0.357  0.00  0.00    -0.063 C 
ATOM     76  H19 ILE d   1      67.010   2.797  -0.076  0.00  0.00     0.033 H 
ATOM     77  H20 ILE d   1      66.370   4.430  -0.461  0.00  0.00     0.033 H 
BRANCH  75  78
ATOM     78  CD1 ILE d   1      65.573   2.839  -1.693  0.00  0.00    -0.076 C 
ATOM     79  H24 ILE d   1      66.342   2.957  -2.471  0.00  0.00     0.027 H 
ATOM     80  H25 ILE d   1      64.675   3.408  -1.976  0.00  0.00     0.027 H 
ATOM     81  H26 ILE d   1      65.316   1.774  -1.590  0.00  0.00     0.027 H 
ENDBRANCH  75  78
ENDBRANCH  73  75
BRANCH  73  82
ATOM     82  CG2 ILE d   1      63.905   4.209   0.504  0.00  0.00    -0.071 C 
ATOM     83  H21 ILE d   1      63.142   4.090   1.287  0.00  0.00     0.028 H 
ATOM     84  H22 ILE d   1      63.451   4.026  -0.481  0.00  0.00     0.028 H 
ATOM     85  H23 ILE d   1      64.309   5.232   0.537  0.00  0.00     0.028 H 
ENDBRANCH  73  82
ENDBRANCH  43  73
ENDBRANCH  40  43
ENDBRANCH  37  39
BRANCH  37  86
ATOM     86  CB  SER d   1      65.893   7.976   1.263  0.00  0.00     0.044 C 
ATOM     87  H29 SER d   1      66.604   8.812   1.185  0.00  0.00     0.077 H 
ATOM     88  H30 SER d   1      64.866   8.369   1.290  0.00  0.00     0.077 H 
BRANCH  86  89
ATOM     89  OG  SER d   1      66.043   7.120   0.133  0.00  0.00    -0.398 OA
ATOM     90  H31 SER d   1      65.870   7.612  -0.661  0.00  0.00     0.209 HD
ENDBRANCH  86  89
ENDBRANCH  37  86
ENDBRANCH  34  37
ENDBRANCH  31  33
BRANCH  31  91
ATOM     91  CB  ALA d   1      64.535  11.490   4.184  0.00  0.00    -0.049 C 
ATOM     92  H34 ALA d   1      64.101  12.097   4.992  0.00  0.00     0.030 H 
ATOM     93  H35 ALA d   1      63.850  11.482   3.324  0.00  0.00     0.030 H 
ATOM     94  H36 ALA d   1      65.501  11.921   3.880  0.00  0.00     0.030 H 
ENDBRANCH  31  91
ENDBRANCH  28  31
ENDBRANCH  25  27
BRANCH  25  95
ATOM     95  CB  ASP d   1      61.483   7.421   5.955  0.00  0.00     0.043 C 
ATOM     96  H39 ASP d   1      61.062   8.132   6.681  0.00  0.00     0.052 H 
ATOM     97  H40 ASP d   1      62.517   7.176   6.239  0.00  0.00     0.052 H 
BRANCH  95  98
ATOM     98  CG  ASP d   1      60.647   6.147   5.961  0.00  0.00     0.175 C 
ATOM     99  OD1 ASP d   1      59.554   6.172   5.422  0.00  0.00    -0.648 OA
ATOM    100  OD2 ASP d   1      61.113   5.163   6.504  0.00  0.00    -0.648 OA
ENDBRANCH  95  98
ENDBRANCH  25  95
ENDBRANCH  22  25
ENDBRANCH  19  21
BRANCH  19 101
ATOM    101  CB  ALA d   1      58.928  10.603   1.273  0.00  0.00    -0.049 C 
ATOM    102  H43 ALA d   1      58.080  11.262   1.034  0.00  0.00     0.030 H 
ATOM    103  H44 ALA d   1      58.846   9.674   0.690  0.00  0.00     0.030 H 
ATOM    104  H45 ALA d   1      59.870  11.112   1.021  0.00  0.00     0.030 H 
ENDBRANCH  19 101
ENDBRANCH  16  19
ENDBRANCH  13  15
BRANCH  13 105
ATOM    105  CB  MET d   1      56.556   6.060   3.493  0.00  0.00    -0.030 C 
ATOM    106  H48 MET d   1      55.776   5.528   4.058  0.00  0.00     0.037 H 
ATOM    107  H49 MET d   1      57.546   5.783   3.884  0.00  0.00     0.037 H 
BRANCH 105 108
ATOM    108  CG  MET d   1      56.464   5.691   2.012  0.00  0.00    -0.021 C 
ATOM    109  H50 MET d   1      57.282   6.182   1.464  0.00  0.00     0.049 H 
ATOM    110  H51 MET d   1      55.498   6.033   1.613  0.00  0.00     0.049 H 
BRANCH 108 111
ATOM    111  SD  MET d   1      56.596   3.902   1.800  0.00  0.00    -0.173 SA
BRANCH 111 112
ATOM    112  CE  MET d   1      55.885   3.839   0.134  0.00  0.00    -0.035 C 
ATOM    113  H52 MET d   1      55.864   2.796  -0.216  0.00  0.00     0.041 H 
ATOM    114  H53 MET d   1      56.499   4.443  -0.550  0.00  0.00     0.041 H 
ATOM    115  H54 MET d   1      54.861   4.239   0.157  0.00  0.00     0.041 H 
ENDBRANCH 111 112
ENDBRANCH 108 111
ENDBRANCH 105 108
ENDBRANCH  13 105
ENDBRANCH  10  13
ENDBRANCH   7   9
BRANCH   7 116
ATOM    116  CB  MET d   1      57.312   9.020   8.143  0.00  0.00    -0.030 C 
ATOM    117  H57 MET d   1      56.959   9.544   9.043  0.00  0.00     0.037 H 
ATOM    118  H58 MET d   1      58.021   9.662   7.599  0.00  0.00     0.037 H 
BRANCH 116 119
ATOM    119  CG  MET d   1      58.011   7.718   8.551  0.00  0.00    -0.021 C 
ATOM    120  H59 MET d   1      58.321   7.170   7.649  0.00  0.00     0.049 H 
ATOM    121  H60 MET d   1      57.316   7.097   9.136  0.00  0.00     0.049 H 
BRANCH 119 122
ATOM    122  SD  MET d   1      59.468   8.101   9.554  0.00  0.00    -0.173 SA
BRANCH 122 123
ATOM    123  CE  MET d   1      58.593   8.677  11.027  0.00  0.00    -0.035 C 
ATOM    124  H61 MET d   1      59.323   8.972  11.795  0.00  0.00     0.041 H 
ATOM    125  H62 MET d   1      57.958   7.867  11.416  0.00  0.00     0.041 H 
ATOM    126  H63 MET d   1      57.966   9.542  10.766  0.00  0.00     0.041 H 
ENDBRANCH 122 123
ENDBRANCH 119 122
ENDBRANCH 116 119
ENDBRANCH   7 116
ENDBRANCH   4   7
ENDBRANCH   1   3
BRANCH   1 127
ATOM    127  C   GLN d   1      53.761  11.826   4.825  0.00  0.00     0.241 C 
ATOM    128  O   GLN d   1      52.958  12.706   4.515  0.00  0.00    -0.271 OA
ATOM    129  N   ALA d   1      53.916  10.710   4.123  0.00  0.00    -0.346 N 
ATOM    130  H72 ALA d   1      54.589  10.040   4.435  0.00  0.00     0.163 HD
BRANCH 129 131
ATOM    131  CA  ALA d   1      53.144  10.414   2.908  0.00  0.00     0.086 C 
ATOM    132  H73 ALA d   1      53.374  11.203   2.177  0.00  0.00     0.086 H 
BRANCH 131 133
ATOM    133  C   ALA d   1      51.626  10.402   3.104  0.00  0.00     0.240 C 
ATOM    134  O   ALA d   1      50.881  10.531   2.128  0.00  0.00    -0.271 OA
ATOM    135  N   LEU d   1      51.163  10.158   4.324  0.00  0.00    -0.346 N 
ATOM    136  H77 LEU d   1      51.800  10.076   5.091  0.00  0.00     0.163 HD
BRANCH 135 137
ATOM    137  CA  LEU d   1      49.720  10.008   4.553  0.00  0.00     0.089 C 
ATOM    138  H78 LEU d   1      49.353   9.193   3.912  0.00  0.00     0.087 H 
BRANCH 137 139
ATOM    139  C   LEU d   1      48.979  11.281   4.174  0.00  0.00     0.241 C 
ATOM    140  O   LEU d   1      47.993  11.231   3.443  0.00  0.00    -0.271 OA
ATOM    141  N   LEU d   1      49.563  12.414   4.539  0.00  0.00    -0.346 N 
ATOM    142  H88 LEU d   1      50.379  12.363   5.115  0.00  0.00     0.163 HD
BRANCH 141 143
ATOM    143  CA  LEU d   1      49.073  13.740   4.141  0.00  0.00     0.089 C 
ATOM    144  H89 LEU d   1      49.650  14.487   4.706  0.00  0.00     0.087 H 
BRANCH 143 145
ATOM    145  C   LEU d   1      47.577  13.966   4.480  0.00  0.00     0.240 C 
ATOM    146  O   LEU d   1      47.251  14.825   5.302  0.00  0.00    -0.271 OA
ATOM    147  N   GLY d   1      46.681  13.191   3.852  0.00  0.00    -0.351 N 
ATOM    148  H99 GLY d   1      47.007  12.508   3.198  0.00  0.00     0.163 HD
BRANCH 147 149
ATOM    149  CA  GLY d   1      45.230  13.311   4.093  0.00  0.00     0.069 C 
ATOM    150 0H10 GLY d   1      44.739  13.635   3.164  0.00  0.00     0.078 H 
ATOM    151 1H10 GLY d   1      45.059  14.061   4.880  0.00  0.00     0.078 H 
BRANCH 149 152
ATOM    152  C   GLY d   1      44.626  11.978   4.536  0.00  0.00     0.236 C 
ATOM    153  O   GLY d   1      45.112  10.912   4.156  0.00  0.00    -0.272 OA
ATOM    154  N   ALA d   1      43.596  12.043   5.389  0.00  0.00    -0.347 N 
ATOM    155 2H10 ALA d   1      43.235  12.937   5.656  0.00  0.00     0.163 HD
BRANCH 154 156
ATOM    156  CA  ALA d   1      42.987  10.828   5.939  0.00  0.00     0.086 C 
ATOM    157 3H10 ALA d   1      43.029  10.050   5.163  0.00  0.00     0.086 H 
BRANCH 156 158
ATOM    158  C   ALA d   1      41.514  11.019   6.333  0.00  0.00     0.240 C 
ATOM    159  O   ALA d   1      41.076  12.124   6.661  0.00  0.00    -0.271 OA
ATOM    160  N   ARG d   1      40.790   9.897   6.363  0.00  0.00    -0.346 N 
ATOM    161 7H10 ARG d   1      41.231   9.046   6.076  0.00  0.00     0.163 HD
BRANCH 160 162
ATOM    162  CA  ARG d   1      39.387   9.835   6.791  0.00  0.00     0.089 C 
ATOM    163 8H10 ARG d   1      39.123  10.820   7.203  0.00  0.00     0.087 H 
BRANCH 162 164
ATOM    164  C   ARG d   1      39.167   8.792   7.888  0.00  0.00     0.241 C 
ATOM    165  O   ARG d   1      39.942   7.844   8.023  0.00  0.00    -0.271 OA
ATOM    166  N   ALA d   1      38.085   8.988   8.654  0.00  0.00    -0.346 N 
ATOM    167 0H12 ALA d   1      37.520   9.792   8.468  0.00  0.00     0.163 HD
BRANCH 166 168
ATOM    168  CA  ALA d   1      37.675   8.096   9.752  0.00  0.00     0.086 C 
ATOM    169 1H12 ALA d   1      36.575   8.101   9.782  0.00  0.00     0.086 H 
BRANCH 168 170
ATOM    170  C   ALA d   1      38.171   8.608  11.098  0.00  0.00     0.240 C 
ATOM    171  O   ALA d   1      37.446   8.557  12.090  0.00  0.00    -0.271 OA
ATOM    172  N   LYS d   1      39.386   9.152  11.102  0.00  0.00    -0.345 N 
ATOM    173 5H12 LYS d   1      39.908   9.160  10.249  0.00  0.00     0.163 HD
BRANCH 172 174
ATOM    174  CA  LYS d   1      39.996   9.741  12.301  0.00  0.00     0.096 C 
ATOM    175 6H12 LYS d   1      39.324  10.532  12.666  0.00  0.00     0.089 H 
BRANCH 174 176
ATOM    176  C   LYS d   1      41.350  10.389  11.969  0.00  0.00     0.196 C 
ATOM    177  O   LYS d   1      42.106  10.655  12.891  0.00  0.00    -0.646 OA
ATOM    178  OXT LYS d   1      41.605  10.619  10.797  0.00  0.00    -0.646 OA
ENDBRANCH 174 176
BRANCH 174 179
ATOM    179  CB  LYS d   1      40.146   8.688  13.428  0.00  0.00    -0.037 C 
ATOM    180 7H12 LYS d   1      41.153   8.765  13.865  0.00  0.00     0.036 H 
ATOM    181 8H12 LYS d   1      40.006   7.682  13.005  0.00  0.00     0.036 H 
BRANCH 179 182
ATOM    182  CG  LYS d   1      39.093   8.928  14.530  0.00  0.00    -0.061 C 
ATOM    183 9H12 LYS d   1      39.125   8.097  15.251  0.00  0.00     0.033 H 
ATOM    184 0H13 LYS d   1      38.094   8.979  14.073  0.00  0.00     0.033 H 
BRANCH 182 185
ATOM    185  CD  LYS d   1      39.385  10.250  15.264  0.00  0.00    -0.043 C 
ATOM    186 1H13 LYS d   1      39.368  11.081  14.543  0.00  0.00     0.035 H 
ATOM    187 2H13 LYS d   1      40.376  10.195  15.738  0.00  0.00     0.035 H 
BRANCH 185 188
ATOM    188  CE  LYS d   1      38.317  10.484  16.339  0.00  0.00     0.080 C 
ATOM    189 3H13 LYS d   1      38.320   9.642  17.047  0.00  0.00     0.075 H 
ATOM    190 4H13 LYS d   1      37.329  10.559  15.862  0.00  0.00     0.075 H 
BRANCH 188 191
ATOM    191  NZ  LYS d   1      38.611  11.749  17.073  0.00  0.00    -0.079 N 
ATOM    192 5H13 LYS d   1      37.907  11.899  17.779  0.00  0.00     0.274 HD
ATOM    193 6H13 LYS d   1      38.608  12.522  16.426  0.00  0.00     0.274 HD
ATOM    194 7H13 LYS d   1      39.516  11.681  17.511  0.00  0.00     0.274 HD
ENDBRANCH 188 191
ENDBRANCH 185 188
ENDBRANCH 182 185
ENDBRANCH 179 182
ENDBRANCH 174 179
ENDBRANCH 172 174
ENDBRANCH 168 170
BRANCH 168 195
ATOM    195  CB  ALA d   1      38.119   6.640   9.517  0.00  0.00    -0.049 C 
ATOM    196 2H12 ALA d   1      37.791   6.016  10.361  0.00  0.00     0.030 H 
ATOM    197 3H12 ALA d   1      39.215   6.599   9.436  0.00  0.00     0.030 H 
ATOM    198 4H12 ALA d   1      37.668   6.265   8.586  0.00  0.00     0.030 H 
ENDBRANCH 168 195
ENDBRANCH 166 168
ENDBRANCH 162 164
BRANCH 162 199
ATOM    199  CB  ARG d   1      38.445   9.547   5.612  0.00  0.00    -0.036 C 
ATOM    200 9H10 ARG d   1      37.551   9.026   5.985  0.00  0.00     0.036 H 
ATOM    201 0H11 ARG d   1      38.965   8.908   4.883  0.00  0.00     0.036 H 
BRANCH 199 202
ATOM    202  CG  ARG d   1      38.017  10.846   4.923  0.00  0.00    -0.048 C 
ATOM    203 1H11 ARG d   1      38.907  11.383   4.562  0.00  0.00     0.035 H 
ATOM    204 2H11 ARG d   1      37.471  11.480   5.637  0.00  0.00     0.035 H 
BRANCH 202 205
ATOM    205  CD  ARG d   1      37.106  10.503   3.737  0.00  0.00     0.009 C 
ATOM    206 3H11 ARG d   1      36.448   9.667   4.017  0.00  0.00     0.064 H 
ATOM    207 4H11 ARG d   1      37.727  10.209   2.878  0.00  0.00     0.064 H 
BRANCH 205 208
ATOM    208  NE  ARG d   1      36.286  11.657   3.365  0.00  0.00    -0.227 N 
ATOM    209  CZ  ARG d   1      36.770  12.721   2.745  0.00  0.00     0.665 C 
ATOM    210  NH1 ARG d   1      38.022  12.788   2.428  0.00  0.00    -0.235 N 
ATOM    211  NH2 ARG d   1      35.985  13.701   2.460  0.00  0.00    -0.235 N 
ATOM    212 6H11 ARG d   1      38.387  13.621   1.946  0.00  0.00     0.174 HD
ATOM    213 7H11 ARG d   1      38.654  12.008   2.658  0.00  0.00     0.174 HD
ATOM    214 8H11 ARG d   1      34.987  13.651   2.711  0.00  0.00     0.174 HD
ATOM    215 9H11 ARG d   1      36.355  14.535   1.981  0.00  0.00     0.174 HD
ATOM    216 5H11 ARG d   1      35.283  11.640   3.597  0.00  0.00     0.177 HD
ENDBRANCH 205 208
ENDBRANCH 202 205
ENDBRANCH 199 202
ENDBRANCH 162 199
ENDBRANCH 160 162
ENDBRANCH 156 158
BRANCH 156 217
ATOM    217  CB  ALA d   1      43.789  10.348   7.149  0.00  0.00    -0.049 C 
ATOM    218 4H10 ALA d   1      43.327   9.437   7.557  0.00  0.00     0.030 H 
ATOM    219 5H10 ALA d   1      43.795  11.133   7.920  0.00  0.00     0.030 H 
ATOM    220 6H10 ALA d   1      44.822  10.129   6.841  0.00  0.00     0.030 H 
ENDBRANCH 156 217
ENDBRANCH 154 156
ENDBRANCH 149 152
ENDBRANCH 147 149
ENDBRANCH 143 145
BRANCH 143 221
ATOM    221  CB  LEU d   1      49.347  13.970   2.639  0.00  0.00    -0.035 C 
ATOM    222  H90 LEU d   1      48.840  14.890   2.313  0.00  0.00     0.037 H 
ATOM    223  H91 LEU d   1      48.962  13.115   2.063  0.00  0.00     0.037 H 
BRANCH 221 224
ATOM    224  CG  LEU d   1      50.867  14.109   2.396  0.00  0.00    -0.059 C 
ATOM    225  H92 LEU d   1      51.393  13.314   2.945  0.00  0.00     0.038 H 
BRANCH 224 226
ATOM    226  CD1 LEU d   1      51.179  13.981   0.893  0.00  0.00    -0.073 C 
ATOM    227  H93 LEU d   1      52.263  14.082   0.734  0.00  0.00     0.028 H 
ATOM    228  H94 LEU d   1      50.652  14.773   0.340  0.00  0.00     0.028 H 
ATOM    229  H95 LEU d   1      50.845  12.997   0.532  0.00  0.00     0.028 H 
ENDBRANCH 224 226
BRANCH 224 230
ATOM    230  CD2 LEU d   1      51.353  15.479   2.896  0.00  0.00    -0.073 C 
ATOM    231  H96 LEU d   1      51.133  15.577   3.969  0.00  0.00     0.028 H 
ATOM    232  H97 LEU d   1      50.836  16.276   2.342  0.00  0.00     0.028 H 
ATOM    233  H98 LEU d   1      52.438  15.565   2.735  0.00  0.00     0.028 H 
ENDBRANCH 224 230
ENDBRANCH 221 224
ENDBRANCH 143 221
ENDBRANCH 141 143
ENDBRANCH 137 139
BRANCH 137 234
ATOM    234  CB  LEU d   1      49.437   9.635   6.014  0.00  0.00    -0.035 C 
ATOM    235  H79 LEU d   1      48.353   9.664   6.197  0.00  0.00     0.037 H 
ATOM    236  H80 LEU d   1      49.941  10.351   6.680  0.00  0.00     0.037 H 
BRANCH 234 237
ATOM    237  CG  LEU d   1      49.966   8.219   6.288  0.00  0.00    -0.059 C 
ATOM    238  H81 LEU d   1      51.038   8.185   6.044  0.00  0.00     0.038 H 
BRANCH 237 239
ATOM    239  CD1 LEU d   1      49.783   7.863   7.765  0.00  0.00    -0.073 C 
ATOM    240  H82 LEU d   1      50.165   6.848   7.948  0.00  0.00     0.028 H 
ATOM    241  H83 LEU d   1      48.714   7.904   8.022  0.00  0.00     0.028 H 
ATOM    242  H84 LEU d   1      50.338   8.581   8.387  0.00  0.00     0.028 H 
ENDBRANCH 237 239
BRANCH 237 243
ATOM    243  CD2 LEU d   1      49.223   7.207   5.407  0.00  0.00    -0.073 C 
ATOM    244  H85 LEU d   1      49.361   7.472   4.348  0.00  0.00     0.028 H 
ATOM    245  H86 LEU d   1      48.151   7.224   5.653  0.00  0.00     0.028 H 
ATOM    246  H87 LEU d   1      49.624   6.199   5.588  0.00  0.00     0.028 H 
ENDBRANCH 237 243
ENDBRANCH 234 237
ENDBRANCH 137 234
ENDBRANCH 135 137
ENDBRANCH 131 133
BRANCH 131 247
ATOM    247  CB  ALA d   1      53.579   9.085   2.324  0.00  0.00    -0.049 C 
ATOM    248  H74 ALA d   1      52.995   8.875   1.416  0.00  0.00     0.030 H 
ATOM    249  H75 ALA d   1      53.410   8.287   3.062  0.00  0.00     0.030 H 
ATOM    250  H76 ALA d   1      54.648   9.129   2.070  0.00  0.00     0.030 H 
ENDBRANCH 131 247
ENDBRANCH 129 131
ENDBRANCH   1 127
BRANCH   1 251
ATOM    251  CB  GLN d   1      55.729  13.216   5.512  0.00  0.00    -0.030 C 
ATOM    252  H66 GLN d   1      55.146  14.143   5.410  0.00  0.00     0.037 H 
ATOM    253  H67 GLN d   1      56.200  12.970   4.548  0.00  0.00     0.037 H 
BRANCH 251 254
ATOM    254  CG  GLN d   1      56.817  13.411   6.577  0.00  0.00     0.011 C 
ATOM    255  H68 GLN d   1      56.589  12.783   7.450  0.00  0.00     0.047 H 
ATOM    256  H69 GLN d   1      56.843  14.467   6.882  0.00  0.00     0.047 H 
BRANCH 254 257
ATOM    257  CD  GLN d   1      58.173  13.016   6.013  0.00  0.00     0.215 C 
ATOM    258  OE1 GLN d   1      58.392  11.855   5.679  0.00  0.00    -0.274 OA
ATOM    259  NE2 GLN d   1      59.097  13.917   5.877  0.00  0.00    -0.370 N 
ATOM    260  H70 GLN d   1      59.991  13.665   5.507  0.00  0.00     0.159 HD
ATOM    261  H71 GLN d   1      58.915  14.864   6.142  0.00  0.00     0.159 HD
ENDBRANCH 254 257
ENDBRANCH 251 254
ENDBRANCH   1 251
TORSDOF 79
