REMARK WARNING: 32 MAX_TORS EXCEEDED!!!
REMARK  47 active torsions:
REMARK  status: ('A' for Active; 'I' for Inactive)
REMARK    1  A    between atoms: N_1  and  CA_2 
REMARK    2  A    between atoms: CA_2  and  C_3 
REMARK    3  A    between atoms: CA_2  and  CB_5 
REMARK       I    between atoms: C_3  and  N_12 
REMARK    4  A    between atoms: CB_5  and  CG_6 
REMARK    5  A    between atoms: CG_6  and  CD_7 
REMARK    6  A    between atoms: CD_7  and  NE_8 
REMARK       I    between atoms: NE_8  and  CZ_9 
REMARK       I    between atoms: CZ_9  and  NH1_10 
REMARK    7  A    between atoms: CA_13  and  C_14 
REMARK       I    between atoms: C_14  and  N_19 
REMARK    8  A    between atoms: N_19  and  CA_20 
REMARK    9  A    between atoms: CA_20  and  C_21 
REMARK   10  A    between atoms: CA_20  and  CB_23 
REMARK       I    between atoms: C_21  and  N_28 
REMARK   11  A    between atoms: CB_23  and  CG_24 
REMARK   12  A    between atoms: CG_24  and  CD_25 
REMARK   13  A    between atoms: CD_25  and  CE_26 
REMARK   14  A    between atoms: CE_26  and  NZ_27 
REMARK   15  A    between atoms: CA_29  and  C_30 
REMARK       I    between atoms: C_30  and  N_35 
REMARK   16  A    between atoms: N_35  and  CA_36 
REMARK   17  A    between atoms: CA_36  and  C_37 
REMARK   18  A    between atoms: CA_36  and  CB_39 
REMARK       I    between atoms: C_37  and  N_44 
REMARK   19  A    between atoms: CB_39  and  CG_40 
REMARK   20  A    between atoms: CG_40  and  CD_41 
REMARK       I    between atoms: CD_41  and  NE2_43 
REMARK   21  A    between atoms: N_44  and  CA_45 
REMARK   22  A    between atoms: CA_45  and  C_46 
REMARK   23  A    between atoms: CA_45  and  CB_48 
REMARK       I    between atoms: C_46  and  N_53 
REMARK   24  A    between atoms: CB_48  and  CG_49 
REMARK   25  A    between atoms: CG_49  and  CD_50 
REMARK       I    between atoms: CD_50  and  NE2_52 
REMARK   26  A    between atoms: N_53  and  CA_54 
REMARK   27  A    between atoms: CA_54  and  C_55 
REMARK   28  A    between atoms: CA_54  and  CB_57 
REMARK       I    between atoms: C_55  and  N_64 
REMARK   29  A    between atoms: CB_57  and  CG_58 
REMARK   30  A    between atoms: N_64  and  CA_65 
REMARK   31  A    between atoms: CA_65  and  C_66 
REMARK   32  A    between atoms: CA_65  and  CB_68 
REMARK       I    between atoms: C_66  and  N_75 
REMARK   33  A    between atoms: CB_68  and  CG_69 
REMARK   34  A    between atoms: N_75  and  CA_76 
REMARK   35  A    between atoms: CA_76  and  C_77 
REMARK       I    between atoms: C_77  and  N_79 
REMARK   36  A    between atoms: N_79  and  CA_80 
REMARK   37  A    between atoms: CA_80  and  C_81 
REMARK   38  A    between atoms: CA_80  and  CB_83 
REMARK       I    between atoms: C_81  and  N_87 
REMARK   39  A    between atoms: CB_83  and  CG_84 
REMARK   40  A    between atoms: CG_84  and  CD1_85 
REMARK   41  A    between atoms: CG_84  and  CD2_86 
REMARK   42  A    between atoms: N_87  and  CA_88 
REMARK   43  A    between atoms: CA_88  and  C_89 
REMARK   44  A    between atoms: CA_88  and  CB_91 
REMARK   45  A    between atoms: CB_91  and  CG_92 
REMARK   46  A    between atoms: CG_92  and  SD_93 
REMARK   47  A    between atoms: SD_93  and  CE_94 
ROOT
ATOM      1  CA  GLN d   1     -18.577  -8.322 -29.372  0.00  0.00     0.090 C 
ATOM      2  H52 GLN d   1     -18.049  -8.413 -30.333  0.00  0.00     0.087 H 
ENDROOT
BRANCH   1   3
ATOM      3  N   GLN d   1     -17.749  -8.915 -28.316  0.00  0.00    -0.346 N 
ATOM      4  C   GLN d   1     -16.447  -9.132 -28.491  0.00  0.00     0.241 C 
ATOM      5  O   GLN d   1     -15.856  -8.855 -29.535  0.00  0.00    -0.271 OA
ATOM      6  H51 GLN d   1     -18.172  -9.162 -27.444  0.00  0.00     0.163 HD
BRANCH   4   7
ATOM      7  CA  GLN d   1     -15.701  -9.758 -27.317  0.00  0.00     0.090 C 
ATOM      8  H44 GLN d   1     -16.436 -10.130 -26.588  0.00  0.00     0.087 H 
BRANCH   7   9
ATOM      9  N   GLN d   1     -14.888 -10.873 -27.774  0.00  0.00    -0.346 N 
ATOM     10  C   PRO d   1     -15.453 -12.006 -28.173  0.00  0.00     0.241 C 
ATOM     11  O   PRO d   1     -16.673 -12.177 -28.178  0.00  0.00    -0.271 OA
ATOM     12  H43 GLN d   1     -13.892 -10.786 -27.788  0.00  0.00     0.163 HD
BRANCH  10  13
ATOM     13  CA  PRO d   1     -14.510 -13.108 -28.646  0.00  0.00     0.091 C 
ATOM     14  N   PRO d   1     -15.078 -14.468 -28.397  0.00  0.00    -0.337 N 
ATOM     15  C   LYS d   1     -15.234 -14.952 -27.188  0.00  0.00     0.243 C 
ATOM     16  CD  PRO d   1     -15.438 -15.134 -29.665  0.00  0.00    -0.001 C 
ATOM     17  O   LYS d   1     -14.914 -14.299 -26.194  0.00  0.00    -0.271 OA
ATOM     18  CG  PRO d   1     -15.370 -13.996 -30.682  0.00  0.00    -0.048 C 
ATOM     19  H41 PRO d   1     -16.451 -15.559 -29.615  0.00  0.00     0.064 H 
ATOM     20  H42 PRO d   1     -14.719 -15.929 -29.912  0.00  0.00     0.064 H 
ATOM     21  CB  PRO d   1     -14.320 -13.075 -30.168  0.00  0.00    -0.036 C 
ATOM     22  H39 PRO d   1     -15.093 -14.382 -31.674  0.00  0.00     0.035 H 
ATOM     23  H40 PRO d   1     -16.339 -13.479 -30.747  0.00  0.00     0.035 H 
ATOM     24  H37 PRO d   1     -13.317 -13.432 -30.445  0.00  0.00     0.036 H 
ATOM     25  H38 PRO d   1     -14.467 -12.057 -30.558  0.00  0.00     0.036 H 
ATOM     26  H36 PRO d   1     -13.543 -12.994 -28.134  0.00  0.00     0.087 H 
BRANCH  15  27
ATOM     27  CA  LYS d   1     -15.812 -16.361 -27.026  0.00  0.00     0.089 C 
ATOM     28  H24 LYS d   1     -15.627 -16.934 -27.946  0.00  0.00     0.087 H 
BRANCH  27  29
ATOM     29  N   LYS d   1     -15.161 -17.030 -25.912  0.00  0.00    -0.346 N 
ATOM     30  C   PRO d   1     -13.865 -17.300 -25.971  0.00  0.00     0.241 C 
ATOM     31  O   PRO d   1     -13.173 -17.007 -26.946  0.00  0.00    -0.271 OA
ATOM     32  H23 LYS d   1     -15.690 -17.286 -25.103  0.00  0.00     0.163 HD
BRANCH  30  33
ATOM     33  CA  PRO d   1     -13.248 -18.004 -24.770  0.00  0.00     0.091 C 
ATOM     34  N   PRO d   1     -12.233 -18.997 -25.222  0.00  0.00    -0.337 N 
ATOM     35  C   ARG d   1     -12.561 -20.067 -25.893  0.00  0.00     0.251 C 
ATOM     36  CD  PRO d   1     -10.870 -18.603 -24.827  0.00  0.00    -0.001 C 
ATOM     37  O   ARG d   1     -13.731 -20.309 -26.178  0.00  0.00    -0.271 OA
ATOM     38  CG  PRO d   1     -11.041 -17.146 -24.392  0.00  0.00    -0.048 C 
ATOM     39  H21 PRO d   1     -10.175 -18.683 -25.676  0.00  0.00     0.064 H 
ATOM     40  H22 PRO d   1     -10.505 -19.223 -23.995  0.00  0.00     0.064 H 
ATOM     41  CB  PRO d   1     -12.443 -17.036 -23.889  0.00  0.00    -0.036 C 
ATOM     42  H19 PRO d   1     -10.326 -16.898 -23.593  0.00  0.00     0.035 H 
ATOM     43  H20 PRO d   1     -10.886 -16.470 -25.246  0.00  0.00     0.035 H 
ATOM     44  H17 PRO d   1     -12.501 -17.334 -22.832  0.00  0.00     0.036 H 
ATOM     45  H18 PRO d   1     -12.816 -16.007 -24.001  0.00  0.00     0.036 H 
ATOM     46  H16 PRO d   1     -14.042 -18.491 -24.185  0.00  0.00     0.087 H 
BRANCH  35  47
ATOM     47  CA  ARG d   1     -11.432 -21.000 -26.322  0.00  0.00     0.176 C 
ATOM     48  H4  ARG d   1     -10.772 -20.467 -27.022  0.00  0.00     0.099 H 
BRANCH  47  49
ATOM     49  N   ARG d   1     -10.657 -21.407 -25.115  0.00  0.00    -0.067 N 
ATOM     50  H1  ARG d   1      -9.908 -22.024 -25.389  0.00  0.00     0.275 HD
ATOM     51  H2  ARG d   1     -11.267 -21.884 -24.469  0.00  0.00     0.275 HD
ATOM     52  H3  ARG d   1     -10.272 -20.588 -24.671  0.00  0.00     0.275 HD
ENDBRANCH  47  49
BRANCH  47  53
ATOM     53  CB  ARG d   1     -11.979 -22.269 -27.012  0.00  0.00    -0.029 C 
ATOM     54  H5  ARG d   1     -12.921 -22.558 -26.522  0.00  0.00     0.036 H 
ATOM     55  H6  ARG d   1     -11.242 -23.078 -26.896  0.00  0.00     0.036 H 
BRANCH  53  56
ATOM     56  CG  ARG d   1     -12.251 -22.058 -28.524  0.00  0.00    -0.047 C 
ATOM     57  H7  ARG d   1     -11.380 -22.412 -29.094  0.00  0.00     0.035 H 
ATOM     58  H8  ARG d   1     -12.400 -20.984 -28.711  0.00  0.00     0.035 H 
BRANCH  56  59
ATOM     59  CD  ARG d   1     -13.497 -22.821 -28.998  0.00  0.00     0.009 C 
ATOM     60  H9  ARG d   1     -13.608 -23.742 -28.407  0.00  0.00     0.064 H 
ATOM     61  H10 ARG d   1     -13.385 -23.079 -30.061  0.00  0.00     0.064 H 
BRANCH  59  62
ATOM     62  NE  ARG d   1     -14.683 -21.989 -28.824  0.00  0.00    -0.227 N 
ATOM     63  CZ  ARG d   1     -15.848 -22.331 -29.363  0.00  0.00     0.665 C 
ATOM     64  NH1 ARG d   1     -15.947 -23.430 -30.060  0.00  0.00    -0.235 N 
ATOM     65  NH2 ARG d   1     -16.894 -21.567 -29.196  0.00  0.00    -0.235 N 
ATOM     66  H12 ARG d   1     -16.850 -23.695 -30.478  0.00  0.00     0.174 HD
ATOM     67  H13 ARG d   1     -15.122 -24.032 -30.192  0.00  0.00     0.174 HD
ATOM     68  H14 ARG d   1     -16.816 -20.700 -28.646  0.00  0.00     0.174 HD
ATOM     69  H15 ARG d   1     -17.797 -21.832 -29.614  0.00  0.00     0.174 HD
ATOM     70  H11 ARG d   1     -14.616 -21.121 -28.273  0.00  0.00     0.177 HD
ENDBRANCH  59  62
ENDBRANCH  56  59
ENDBRANCH  53  56
ENDBRANCH  47  53
ENDBRANCH  35  47
ENDBRANCH  30  33
ENDBRANCH  27  29
BRANCH  27  71
ATOM     71  CB  LYS d   1     -17.322 -16.278 -26.785  0.00  0.00    -0.038 C 
ATOM     72  H25 LYS d   1     -17.813 -15.870 -27.680  0.00  0.00     0.036 H 
ATOM     73  H26 LYS d   1     -17.519 -15.620 -25.926  0.00  0.00     0.036 H 
BRANCH  71  74
ATOM     74  CG  LYS d   1     -17.877 -17.676 -26.493  0.00  0.00    -0.061 C 
ATOM     75  H27 LYS d   1     -17.061 -18.411 -26.544  0.00  0.00     0.033 H 
ATOM     76  H28 LYS d   1     -18.645 -17.928 -27.240  0.00  0.00     0.033 H 
BRANCH  74  77
ATOM     77  CD  LYS d   1     -18.501 -17.704 -25.091  0.00  0.00    -0.043 C 
ATOM     78  H29 LYS d   1     -17.831 -18.240 -24.403  0.00  0.00     0.035 H 
ATOM     79  H30 LYS d   1     -19.472 -18.220 -25.133  0.00  0.00     0.035 H 
BRANCH  77  80
ATOM     80  CE  LYS d   1     -18.707 -16.272 -24.588  0.00  0.00     0.080 C 
ATOM     81  H31 LYS d   1     -18.347 -15.562 -25.347  0.00  0.00     0.075 H 
ATOM     82  H32 LYS d   1     -18.144 -16.127 -23.654  0.00  0.00     0.075 H 
BRANCH  80  83
ATOM     83  NZ  LYS d   1     -20.156 -16.036 -24.335  0.00  0.00    -0.079 N 
ATOM     84  H33 LYS d   1     -20.290 -15.093 -24.004  0.00  0.00     0.274 HD
ATOM     85  H34 LYS d   1     -20.486 -16.686 -23.639  0.00  0.00     0.274 HD
ATOM     86  H35 LYS d   1     -20.672 -16.168 -25.191  0.00  0.00     0.274 HD
ENDBRANCH  80  83
ENDBRANCH  77  80
ENDBRANCH  74  77
ENDBRANCH  71  74
ENDBRANCH  27  71
ENDBRANCH  15  27
ENDBRANCH  10  13
ENDBRANCH   7   9
BRANCH   7  87
ATOM     87  CB  GLN d   1     -14.818  -8.708 -26.638  0.00  0.00    -0.030 C 
ATOM     88  H45 GLN d   1     -13.760  -8.974 -26.779  0.00  0.00     0.037 H 
ATOM     89  H46 GLN d   1     -15.049  -8.677 -25.563  0.00  0.00     0.037 H 
BRANCH  87  90
ATOM     90  CG  GLN d   1     -15.082  -7.331 -27.255  0.00  0.00     0.011 C 
ATOM     91  H47 GLN d   1     -15.694  -7.449 -28.162  0.00  0.00     0.047 H 
ATOM     92  H48 GLN d   1     -14.123  -6.860 -27.518  0.00  0.00     0.047 H 
BRANCH  90  93
ATOM     93  CD  GLN d   1     -15.823  -6.446 -26.258  0.00  0.00     0.215 C 
ATOM     94  OE1 GLN d   1     -16.894  -5.924 -26.567  0.00  0.00    -0.274 OA
ATOM     95  NE2 GLN d   1     -15.315  -6.247 -25.073  0.00  0.00    -0.370 N 
ATOM     96  H49 GLN d   1     -15.795  -5.668 -24.414  0.00  0.00     0.159 HD
ATOM     97  H50 GLN d   1     -14.445  -6.673 -24.824  0.00  0.00     0.159 HD
ENDBRANCH  90  93
ENDBRANCH  87  90
ENDBRANCH   7  87
ENDBRANCH   4   7
ENDBRANCH   1   3
BRANCH   1  98
ATOM     98  C   GLN d   1     -18.839  -6.847 -29.087  0.00  0.00     0.241 C 
ATOM     99  O   GLN d   1     -19.491  -6.502 -28.101  0.00  0.00    -0.271 OA
ATOM    100  N   PHE d   1     -18.334  -5.984 -29.961  0.00  0.00    -0.346 N 
ATOM    101  H59 PHE d   1     -17.813  -6.325 -30.743  0.00  0.00     0.163 HD
BRANCH 100 102
ATOM    102  CA  PHE d   1     -18.526  -4.547 -29.800  0.00  0.00     0.093 C 
ATOM    103  H60 PHE d   1     -18.154  -4.247 -28.809  0.00  0.00     0.088 H 
BRANCH 102 104
ATOM    104  C   PHE d   1     -20.006  -4.195 -29.900  0.00  0.00     0.241 C 
ATOM    105  O   PHE d   1     -20.517  -3.382 -29.129  0.00  0.00    -0.271 OA
ATOM    106  N   PHE d   1     -20.687  -4.813 -30.859  0.00  0.00    -0.346 N 
ATOM    107  H68 PHE d   1     -20.213  -5.462 -31.455  0.00  0.00     0.163 HD
BRANCH 106 108
ATOM    108  CA  PHE d   1     -22.109  -4.566 -31.062  0.00  0.00     0.093 C 
ATOM    109  H69 PHE d   1     -22.265  -3.484 -31.187  0.00  0.00     0.088 H 
BRANCH 108 110
ATOM    110  C   PHE d   1     -22.915  -5.043 -29.859  0.00  0.00     0.241 C 
ATOM    111  O   PHE d   1     -23.911  -4.426 -29.480  0.00  0.00    -0.271 OA
ATOM    112  N   GLY d   1     -22.480  -6.149 -29.267  0.00  0.00    -0.351 N 
ATOM    113  H77 GLY d   1     -21.666  -6.609 -29.622  0.00  0.00     0.163 HD
BRANCH 112 114
ATOM    114  CA  GLY d   1     -23.169  -6.705 -28.109  0.00  0.00     0.069 C 
ATOM    115  H78 GLY d   1     -22.644  -7.614 -27.779  0.00  0.00     0.078 H 
ATOM    116  H79 GLY d   1     -24.201  -6.960 -28.392  0.00  0.00     0.078 H 
BRANCH 114 117
ATOM    117  C   GLY d   1     -23.199  -5.703 -26.963  0.00  0.00     0.236 C 
ATOM    118  O   GLY d   1     -24.152  -5.663 -26.185  0.00  0.00    -0.272 OA
ATOM    119  N   LEU d   1     -22.150  -4.892 -26.861  0.00  0.00    -0.346 N 
ATOM    120  H80 LEU d   1     -21.402  -4.969 -27.520  0.00  0.00     0.163 HD
BRANCH 119 121
ATOM    121  CA  LEU d   1     -22.075  -3.892 -25.802  0.00  0.00     0.089 C 
ATOM    122  H81 LEU d   1     -22.263  -4.382 -24.835  0.00  0.00     0.087 H 
BRANCH 121 123
ATOM    123  C   LEU d   1     -23.131  -2.815 -26.021  0.00  0.00     0.241 C 
ATOM    124  O   LEU d   1     -23.267  -2.279 -27.121  0.00  0.00    -0.271 OA
ATOM    125  N   MET d   1     -23.878  -2.502 -24.965  0.00  0.00    -0.345 N 
ATOM    126  H91 MET d   1     -23.718  -2.972 -24.097  0.00  0.00     0.163 HD
BRANCH 125 127
ATOM    127  CA  MET d   1     -24.928  -1.486 -25.046  0.00  0.00     0.097 C 
ATOM    128  H92 MET d   1     -25.309  -1.448 -26.077  0.00  0.00     0.089 H 
BRANCH 127 129
ATOM    129  C   MET d   1     -24.376  -0.114 -24.671  0.00  0.00     0.196 C 
ATOM    130  O   MET d   1     -24.277   0.723 -25.553  0.00  0.00    -0.646 OA
ATOM    131  OXT MET d   1     -24.061   0.077 -23.509  0.00  0.00    -0.646 OA
ENDBRANCH 127 129
BRANCH 127 132
ATOM    132  CB  MET d   1     -26.075  -1.850 -24.101  0.00  0.00    -0.029 C 
ATOM    133  H93 MET d   1     -26.669  -0.950 -23.882  0.00  0.00     0.037 H 
ATOM    134  H94 MET d   1     -25.663  -2.255 -23.165  0.00  0.00     0.037 H 
BRANCH 132 135
ATOM    135  CG  MET d   1     -26.969  -2.902 -24.761  0.00  0.00    -0.021 C 
ATOM    136  H95 MET d   1     -26.616  -3.094 -25.785  0.00  0.00     0.049 H 
ATOM    137  H96 MET d   1     -28.005  -2.535 -24.793  0.00  0.00     0.049 H 
BRANCH 135 138
ATOM    138  SD  MET d   1     -26.901  -4.437 -23.801  0.00  0.00    -0.173 SA
BRANCH 138 139
ATOM    139  CE  MET d   1     -28.119  -3.990 -22.537  0.00  0.00    -0.035 C 
ATOM    140  H97 MET d   1     -28.231  -4.821 -21.825  0.00  0.00     0.041 H 
ATOM    141  H98 MET d   1     -29.087  -3.785 -23.017  0.00  0.00     0.041 H 
ATOM    142  H99 MET d   1     -27.778  -3.092 -22.001  0.00  0.00     0.041 H 
ENDBRANCH 138 139
ENDBRANCH 135 138
ENDBRANCH 132 135
ENDBRANCH 127 132
ENDBRANCH 125 127
ENDBRANCH 121 123
BRANCH 121 143
ATOM    143  CB  LEU d   1     -20.672  -3.264 -25.776  0.00  0.00    -0.035 C 
ATOM    144  H82 LEU d   1     -20.759  -2.179 -25.932  0.00  0.00     0.037 H 
ATOM    145  H83 LEU d   1     -20.064  -3.703 -26.581  0.00  0.00     0.037 H 
BRANCH 143 146
ATOM    146  CG  LEU d   1     -19.978  -3.531 -24.408  0.00  0.00    -0.059 C 
ATOM    147  H84 LEU d   1     -20.364  -4.472 -23.988  0.00  0.00     0.038 H 
BRANCH 146 148
ATOM    148  CD1 LEU d   1     -18.458  -3.646 -24.602  0.00  0.00    -0.073 C 
ATOM    149  H85 LEU d   1     -17.978  -3.834 -23.631  0.00  0.00     0.028 H 
ATOM    150  H86 LEU d   1     -18.071  -2.708 -25.027  0.00  0.00     0.028 H 
ATOM    151  H87 LEU d   1     -18.238  -4.478 -25.287  0.00  0.00     0.028 H 
ENDBRANCH 146 148
BRANCH 146 152
ATOM    152  CD2 LEU d   1     -20.266  -2.379 -23.425  0.00  0.00    -0.073 C 
ATOM    153  H88 LEU d   1     -21.352  -2.286 -23.277  0.00  0.00     0.028 H 
ATOM    154  H89 LEU d   1     -19.870  -1.439 -23.836  0.00  0.00     0.028 H 
ATOM    155  H90 LEU d   1     -19.782  -2.590 -22.460  0.00  0.00     0.028 H 
ENDBRANCH 146 152
ENDBRANCH 143 146
ENDBRANCH 121 143
ENDBRANCH 119 121
ENDBRANCH 114 117
ENDBRANCH 112 114
ENDBRANCH 108 110
BRANCH 108 156
ATOM    156  CB  PHE d   1     -22.591  -5.286 -32.323  0.00  0.00    -0.014 C 
ATOM    157  H70 PHE d   1     -23.037  -6.253 -32.046  0.00  0.00     0.043 H 
ATOM    158  H71 PHE d   1     -21.739  -5.455 -32.998  0.00  0.00     0.043 H 
BRANCH 156 159
ATOM    159  CG  PHE d   1     -23.626  -4.434 -33.022  0.00  0.00    -0.056 A 
ATOM    160  CD1 PHE d   1     -23.943  -3.167 -32.521  0.00  0.00    -0.077 A 
ATOM    161  CE1 PHE d   1     -24.901  -2.378 -33.169  0.00  0.00    -0.082 A 
ATOM    162  H72 PHE d   1     -23.447  -2.796 -31.631  0.00  0.00     0.084 H 
ATOM    163  CZ  PHE d   1     -25.543  -2.859 -34.316  0.00  0.00    -0.083 A 
ATOM    164  H74 PHE d   1     -25.145  -1.395 -32.783  0.00  0.00     0.083 H 
ATOM    165  CE2 PHE d   1     -25.226  -4.127 -34.817  0.00  0.00    -0.082 A 
ATOM    166  H76 PHE d   1     -26.286  -2.249 -34.817  0.00  0.00     0.083 H 
ATOM    167  CD2 PHE d   1     -24.267  -4.915 -34.169  0.00  0.00    -0.077 A 
ATOM    168  H75 PHE d   1     -25.723  -4.499 -35.706  0.00  0.00     0.083 H 
ATOM    169  H73 PHE d   1     -24.021  -5.897 -34.556  0.00  0.00     0.084 H 
ENDBRANCH 156 159
ENDBRANCH 108 156
ENDBRANCH 106 108
ENDBRANCH 102 104
BRANCH 102 170
ATOM    170  CB  PHE d   1     -17.743  -3.792 -30.876  0.00  0.00    -0.014 C 
ATOM    171  H61 PHE d   1     -18.322  -3.783 -31.811  0.00  0.00     0.043 H 
ATOM    172  H62 PHE d   1     -16.778  -4.293 -31.046  0.00  0.00     0.043 H 
BRANCH 170 173
ATOM    173  CG  PHE d   1     -17.500  -2.374 -30.421  0.00  0.00    -0.056 A 
ATOM    174  CD1 PHE d   1     -18.456  -1.384 -30.674  0.00  0.00    -0.077 A 
ATOM    175  CE1 PHE d   1     -18.230  -0.068 -30.253  0.00  0.00    -0.082 A 
ATOM    176  H63 PHE d   1     -19.372  -1.636 -31.196  0.00  0.00     0.084 H 
ATOM    177  CZ  PHE d   1     -17.048   0.258 -29.578  0.00  0.00    -0.083 A 
ATOM    178  H65 PHE d   1     -18.971   0.699 -30.450  0.00  0.00     0.083 H 
ATOM    179  CE2 PHE d   1     -16.091  -0.733 -29.324  0.00  0.00    -0.082 A 
ATOM    180  H67 PHE d   1     -16.873   1.277 -29.252  0.00  0.00     0.083 H 
ATOM    181  CD2 PHE d   1     -16.316  -2.048 -29.746  0.00  0.00    -0.077 A 
ATOM    182  H66 PHE d   1     -15.176  -0.481 -28.800  0.00  0.00     0.083 H 
ATOM    183  H64 PHE d   1     -15.575  -2.814 -29.551  0.00  0.00     0.084 H 
ENDBRANCH 170 173
ENDBRANCH 102 170
ENDBRANCH 100 102
ENDBRANCH   1  98
BRANCH   1 184
ATOM    184  CB  GLN d   1     -19.911  -9.066 -29.459  0.00  0.00    -0.030 C 
ATOM    185  H53 GLN d   1     -20.320  -8.966 -30.475  0.00  0.00     0.037 H 
ATOM    186  H54 GLN d   1     -20.618  -8.636 -28.735  0.00  0.00     0.037 H 
BRANCH 184 187
ATOM    187  CG  GLN d   1     -19.694 -10.547 -29.141  0.00  0.00     0.011 C 
ATOM    188  H55 GLN d   1     -20.418 -10.866 -28.376  0.00  0.00     0.047 H 
ATOM    189  H56 GLN d   1     -18.672 -10.692 -28.762  0.00  0.00     0.047 H 
BRANCH 187 190
ATOM    190  CD  GLN d   1     -19.889 -11.383 -30.400  0.00  0.00     0.215 C 
ATOM    191  OE1 GLN d   1     -19.123 -11.257 -31.355  0.00  0.00    -0.274 OA
ATOM    192  NE2 GLN d   1     -20.876 -12.236 -30.461  0.00  0.00    -0.370 N 
ATOM    193  H57 GLN d   1     -21.010 -12.788 -31.284  0.00  0.00     0.159 HD
ATOM    194  H58 GLN d   1     -21.498 -12.337 -29.685  0.00  0.00     0.159 HD
ENDBRANCH 187 190
ENDBRANCH 184 187
ENDBRANCH   1 184
TORSDOF 47
