REMARK WARNING: 32 MAX_TORS EXCEEDED!!!
REMARK  66 active torsions:
REMARK  status: ('A' for Active; 'I' for Inactive)
REMARK    1  A    between atoms: N_1  and  CA_2 
REMARK    2  A    between atoms: CA_2  and  C_3 
REMARK    3  A    between atoms: CA_2  and  CB_5 
REMARK       I    between atoms: C_3  and  N_9 
REMARK    4  A    between atoms: CB_5  and  CG_6 
REMARK    5  A    between atoms: CG_6  and  CD1_7 
REMARK    6  A    between atoms: CG_6  and  CD2_8 
REMARK    7  A    between atoms: N_9  and  CA_10 
REMARK    8  A    between atoms: CA_10  and  C_11 
REMARK    9  A    between atoms: CA_10  and  CB_13 
REMARK       I    between atoms: C_11  and  N_18 
REMARK   10  A    between atoms: CB_13  and  CG_14 
REMARK   11  A    between atoms: CG_14  and  CD_15 
REMARK   12  A    between atoms: N_18  and  CA_19 
REMARK   13  A    between atoms: CA_19  and  C_20 
REMARK   14  A    between atoms: CA_19  and  CB_22 
REMARK       I    between atoms: C_20  and  N_24 
REMARK   15  A    between atoms: CB_22  and  OG_23 
REMARK   16  A    between atoms: N_24  and  CA_25 
REMARK   17  A    between atoms: CA_25  and  C_26 
REMARK   18  A    between atoms: CA_25  and  CB_28 
REMARK       I    between atoms: C_26  and  N_33 
REMARK   19  A    between atoms: CB_28  and  CG_29 
REMARK   20  A    between atoms: CG_29  and  CD_30 
REMARK   21  A    between atoms: CD_30  and  CE_31 
REMARK   22  A    between atoms: CE_31  and  NZ_32 
REMARK   23  A    between atoms: CA_34  and  C_35 
REMARK       I    between atoms: C_35  and  N_40 
REMARK   24  A    between atoms: N_40  and  CA_41 
REMARK   25  A    between atoms: CA_41  and  C_42 
REMARK   26  A    between atoms: CA_41  and  CB_44 
REMARK       I    between atoms: C_42  and  N_52 
REMARK   27  A    between atoms: CB_44  and  CG_45 
REMARK   28  A    between atoms: CZ_50  and  OH_51 
REMARK   29  A    between atoms: N_52  and  CA_53 
REMARK   30  A    between atoms: CA_53  and  C_54 
REMARK   31  A    between atoms: CA_53  and  CB_56 
REMARK       I    between atoms: C_54  and  N_60 
REMARK   32  A    between atoms: CB_56  and  CG_57 
REMARK       I    between atoms: CG_57  and  ND2_59 
REMARK   33  A    between atoms: CA_61  and  C_62 
REMARK       I    between atoms: C_62  and  N_67 
REMARK   34  A    between atoms: N_67  and  CA_68 
REMARK   35  A    between atoms: CA_68  and  C_69 
REMARK   36  A    between atoms: CA_68  and  CB_71 
REMARK       I    between atoms: C_69  and  N_78 
REMARK   37  A    between atoms: CB_71  and  CG_72 
REMARK   38  A    between atoms: N_78  and  CA_79 
REMARK   39  A    between atoms: CA_79  and  C_80 
REMARK   40  A    between atoms: CA_79  and  CB_82 
REMARK       I    between atoms: C_80  and  N_87 
REMARK   41  A    between atoms: CB_82  and  CG_83 
REMARK   42  A    between atoms: CG_83  and  CD_84 
REMARK   43  A    between atoms: N_87  and  CA_88 
REMARK   44  A    between atoms: CA_88  and  C_89 
REMARK   45  A    between atoms: CA_88  and  CB_91 
REMARK       I    between atoms: C_89  and  N_96 
REMARK   46  A    between atoms: CB_91  and  CG_92 
REMARK   47  A    between atoms: CG_92  and  CD_93 
REMARK   48  A    between atoms: N_96  and  CA_97 
REMARK   49  A    between atoms: CA_97  and  C_98 
REMARK   50  A    between atoms: CA_97  and  CB_100 
REMARK       I    between atoms: C_98  and  N_105 
REMARK   51  A    between atoms: CB_100  and  CG_101 
REMARK   52  A    between atoms: CG_101  and  CD_102 
REMARK   53  A    between atoms: N_105  and  CA_106 
REMARK   54  A    between atoms: CA_106  and  C_107 
REMARK   55  A    between atoms: CA_106  and  CB_109 
REMARK       I    between atoms: C_107  and  N_114 
REMARK   56  A    between atoms: CB_109  and  CG_110 
REMARK   57  A    between atoms: CG_110  and  CD_111 
REMARK   58  A    between atoms: N_114  and  CA_115 
REMARK   59  A    between atoms: CA_115  and  C_116 
REMARK   60  A    between atoms: CA_115  and  CB_118 
REMARK       I    between atoms: C_116  and  N_123 
REMARK   61  A    between atoms: CB_118  and  CG_119 
REMARK   62  A    between atoms: CG_119  and  CD_120 
REMARK   63  A    between atoms: N_123  and  CA_124 
REMARK   64  A    between atoms: CA_124  and  C_125 
REMARK   65  A    between atoms: CA_124  and  CB_127 
REMARK   66  A    between atoms: CB_127  and  CG_128 
ROOT
ATOM      1  N   PRO d   1      10.363   4.092   2.129  0.00  0.00    -0.337 N 
ATOM      2  CA  PRO d   1      11.696   3.487   2.004  0.00  0.00     0.091 C 
ATOM      3  CB  PRO d   1      11.469   2.037   2.432  0.00  0.00    -0.036 C 
ATOM      4  CG  PRO d   1      10.039   1.772   2.121  0.00  0.00    -0.048 C 
ATOM      5  CD  PRO d   1       9.321   3.074   2.354  0.00  0.00    -0.001 C 
ATOM      6  H60 PRO d   1      12.409   3.987   2.676  0.00  0.00     0.087 H 
ATOM      7  H61 PRO d   1      11.661   1.915   3.508  0.00  0.00     0.036 H 
ATOM      8  H62 PRO d   1      12.122   1.358   1.864  0.00  0.00     0.036 H 
ATOM      9  H63 PRO d   1       9.641   0.991   2.785  0.00  0.00     0.035 H 
ATOM     10  H64 PRO d   1       9.927   1.455   1.074  0.00  0.00     0.035 H 
ATOM     11  H65 PRO d   1       8.492   3.197   1.642  0.00  0.00     0.064 H 
ATOM     12  H66 PRO d   1       8.933   3.130   3.382  0.00  0.00     0.064 H 
ATOM     13  C   ASN d   1      10.152   5.419   2.059  0.00  0.00     0.243 C 
ATOM     14  O   ASN d   1      11.073   6.220   1.900  0.00  0.00    -0.271 OA
ENDROOT
BRANCH  13  15
ATOM     15  CA  ASN d   1       8.712   5.909   2.199  0.00  0.00     0.097 C 
ATOM     16  H55 ASN d   1       8.050   5.038   2.313  0.00  0.00     0.088 H 
BRANCH  15  17
ATOM     17  N   ASN d   1       8.593   6.752   3.371  0.00  0.00    -0.346 N 
ATOM     18  C   TYR d   1       7.853   6.407   4.410  0.00  0.00     0.241 C 
ATOM     19  O   TYR d   1       7.268   5.328   4.500  0.00  0.00    -0.271 OA
ATOM     20  H54 ASN d   1       9.086   7.622   3.394  0.00  0.00     0.163 HD
BRANCH  18  21
ATOM     21  CA  TYR d   1       7.765   7.445   5.514  0.00  0.00     0.093 C 
ATOM     22  H46 TYR d   1       8.213   7.032   6.430  0.00  0.00     0.088 H 
BRANCH  21  23
ATOM     23  N   TYR d   1       8.501   8.639   5.128  0.00  0.00    -0.346 N 
ATOM     24  C   PRO d   1       9.730   8.869   5.560  0.00  0.00     0.241 C 
ATOM     25  O   PRO d   1      10.349   8.076   6.271  0.00  0.00    -0.271 OA
ATOM     26  H45 TYR d   1       8.066   9.303   4.520  0.00  0.00     0.163 HD
BRANCH  24  27
ATOM     27  CA  PRO d   1      10.366  10.180   5.109  0.00  0.00     0.091 C 
ATOM     28  N   PRO d   1       9.395  11.131   4.576  0.00  0.00    -0.337 N 
ATOM     29  C   LYS d   1       8.984  11.129   3.298  0.00  0.00     0.243 C 
ATOM     30  CD  PRO d   1       8.946  12.056   5.613  0.00  0.00    -0.001 C 
ATOM     31  O   LYS d   1       9.293  10.227   2.518  0.00  0.00    -0.271 OA
ATOM     32  CG  PRO d   1      10.143  12.162   6.512  0.00  0.00    -0.048 C 
ATOM     33  H43 PRO d   1       8.079  11.651   6.155  0.00  0.00     0.064 H 
ATOM     34  H44 PRO d   1       8.686  13.035   5.184  0.00  0.00     0.064 H 
ATOM     35  CB  PRO d   1      10.967  10.921   6.313  0.00  0.00    -0.036 C 
ATOM     36  H41 PRO d   1      10.734  13.052   6.248  0.00  0.00     0.035 H 
ATOM     37  H42 PRO d   1       9.820  12.234   7.561  0.00  0.00     0.035 H 
ATOM     38  H39 PRO d   1      12.014  11.190   6.109  0.00  0.00     0.036 H 
ATOM     39  H40 PRO d   1      10.920  10.287   7.210  0.00  0.00     0.036 H 
ATOM     40  H38 PRO d   1      11.139   9.962   4.357  0.00  0.00     0.087 H 
BRANCH  29  41
ATOM     41  CA  LYS d   1       8.086  12.286   2.855  0.00  0.00     0.089 C 
ATOM     42  H26 LYS d   1       7.765  12.833   3.754  0.00  0.00     0.087 H 
BRANCH  41  43
ATOM     43  N   LYS d   1       8.809  13.208   1.995  0.00  0.00    -0.346 N 
ATOM     44  C   SER d   1       9.534  14.198   2.503  0.00  0.00     0.243 C 
ATOM     45  O   SER d   1       9.705  14.347   3.714  0.00  0.00    -0.271 OA
ATOM     46  H25 LYS d   1       8.760  13.095   1.003  0.00  0.00     0.163 HD
BRANCH  44  47
ATOM     47  CA  SER d   1      10.121  15.198   1.512  0.00  0.00     0.109 C 
ATOM     48  H21 SER d   1      10.042  14.790   0.494  0.00  0.00     0.090 H 
BRANCH  47  49
ATOM     49  N   SER d   1       9.356  16.426   1.599  0.00  0.00    -0.344 N 
ATOM     50  C   GLU d   1       8.130  16.495   1.112  0.00  0.00     0.241 C 
ATOM     51  O   GLU d   1       7.619  15.591   0.454  0.00  0.00    -0.271 OA
ATOM     52  H20 SER d   1       9.761  17.231   2.033  0.00  0.00     0.163 HD
BRANCH  50  53
ATOM     53  CA  GLU d   1       7.348  17.761   1.416  0.00  0.00     0.090 C 
ATOM     54  H15 GLU d   1       6.283  17.491   1.461  0.00  0.00     0.087 H 
BRANCH  53  55
ATOM     55  N   GLU d   1       7.718  18.317   2.709  0.00  0.00    -0.346 N 
ATOM     56  C   LEU d   1       7.143  17.879   3.824  0.00  0.00     0.249 C 
ATOM     57  O   LEU d   1       6.318  16.962   3.819  0.00  0.00    -0.271 OA
ATOM     58  H14 GLU d   1       8.412  19.036   2.759  0.00  0.00     0.163 HD
BRANCH  56  59
ATOM     59  CA  LEU d   1       7.539  18.560   5.133  0.00  0.00     0.176 C 
ATOM     60  H4  LEU d   1       7.848  17.784   5.848  0.00  0.00     0.099 H 
BRANCH  59  61
ATOM     61  N   LEU d   1       8.679  19.483   4.935  0.00  0.00    -0.066 N 
ATOM     62  H1  LEU d   1       8.917  19.916   5.814  0.00  0.00     0.275 HD
ATOM     63  H2  LEU d   1       8.424  20.194   4.268  0.00  0.00     0.275 HD
ATOM     64  H3  LEU d   1       9.473  18.967   4.589  0.00  0.00     0.275 HD
ENDBRANCH  59  61
BRANCH  59  65
ATOM     65  CB  LEU d   1       6.324  19.301   5.716  0.00  0.00    -0.028 C 
ATOM     66  H5  LEU d   1       6.666  19.864   6.597  0.00  0.00     0.037 H 
ATOM     67  H6  LEU d   1       5.588  18.545   6.027  0.00  0.00     0.037 H 
BRANCH  65  68
ATOM     68  CG  LEU d   1       5.613  20.288   4.778  0.00  0.00    -0.059 C 
ATOM     69  H7  LEU d   1       5.451  19.794   3.809  0.00  0.00     0.038 H 
BRANCH  68  70
ATOM     70  CD1 LEU d   1       4.267  20.670   5.364  0.00  0.00    -0.073 C 
ATOM     71  H8  LEU d   1       3.761  21.377   4.690  0.00  0.00     0.028 H 
ATOM     72  H9  LEU d   1       4.415  21.143   6.346  0.00  0.00     0.028 H 
ATOM     73  H10 LEU d   1       3.649  19.768   5.481  0.00  0.00     0.028 H 
ENDBRANCH  68  70
BRANCH  68  74
ATOM     74  CD2 LEU d   1       6.450  21.541   4.547  0.00  0.00    -0.073 C 
ATOM     75  H11 LEU d   1       7.424  21.258   4.122  0.00  0.00     0.028 H 
ATOM     76  H12 LEU d   1       6.604  22.061   5.504  0.00  0.00     0.028 H 
ATOM     77  H13 LEU d   1       5.925  22.209   3.848  0.00  0.00     0.028 H 
ENDBRANCH  68  74
ENDBRANCH  65  68
ENDBRANCH  59  65
ENDBRANCH  56  59
ENDBRANCH  53  55
BRANCH  53  78
ATOM     78  CB  GLU d   1       7.517  18.795   0.308  0.00  0.00    -0.029 C 
ATOM     79  H16 GLU d   1       7.452  18.286  -0.665  0.00  0.00     0.037 H 
ATOM     80  H17 GLU d   1       8.506  19.266   0.410  0.00  0.00     0.037 H 
BRANCH  78  81
ATOM     81  CG  GLU d   1       6.453  19.874   0.367  0.00  0.00     0.018 C 
ATOM     82  H18 GLU d   1       6.505  20.478  -0.551  0.00  0.00     0.049 H 
ATOM     83  H19 GLU d   1       6.644  20.516   1.240  0.00  0.00     0.049 H 
BRANCH  81  84
ATOM     84  CD  GLU d   1       5.064  19.282   0.487  0.00  0.00     0.172 C 
ATOM     85  OE1 GLU d   1       4.569  18.708  -0.501  0.00  0.00    -0.648 OA
ATOM     86  OE2 GLU d   1       4.445  19.423   1.561  0.00  0.00    -0.648 OA
ENDBRANCH  81  84
ENDBRANCH  78  81
ENDBRANCH  53  78
ENDBRANCH  50  53
ENDBRANCH  47  49
BRANCH  47  87
ATOM     87  CB  SER d   1      11.594  15.468   1.825  0.00  0.00     0.044 C 
ATOM     88  H22 SER d   1      12.181  14.566   1.600  0.00  0.00     0.077 H 
ATOM     89  H23 SER d   1      11.696  15.714   2.892  0.00  0.00     0.077 H 
BRANCH  87  90
ATOM     90  OG  SER d   1      12.089  16.550   1.049  0.00  0.00    -0.398 OA
ATOM     91  H24 SER d   1      13.003  16.698   1.261  0.00  0.00     0.209 HD
ENDBRANCH  87  90
ENDBRANCH  47  87
ENDBRANCH  44  47
ENDBRANCH  41  43
BRANCH  41  92
ATOM     92  CB  LYS d   1       6.835  11.763   2.138  0.00  0.00    -0.038 C 
ATOM     93  H27 LYS d   1       6.335  11.040   2.799  0.00  0.00     0.036 H 
ATOM     94  H28 LYS d   1       7.152  11.258   1.214  0.00  0.00     0.036 H 
BRANCH  92  95
ATOM     95  CG  LYS d   1       5.828  12.854   1.769  0.00  0.00    -0.061 C 
ATOM     96  H29 LYS d   1       4.990  12.395   1.223  0.00  0.00     0.033 H 
ATOM     97  H30 LYS d   1       6.325  13.594   1.124  0.00  0.00     0.033 H 
BRANCH  95  98
ATOM     98  CD  LYS d   1       5.282  13.564   3.004  0.00  0.00    -0.043 C 
ATOM     99  H31 LYS d   1       6.101  14.120   3.484  0.00  0.00     0.035 H 
ATOM    100  H32 LYS d   1       4.893  12.809   3.703  0.00  0.00     0.035 H 
BRANCH  98 101
ATOM    101  CE  LYS d   1       4.159  14.542   2.661  0.00  0.00     0.080 C 
ATOM    102  H33 LYS d   1       3.719  14.916   3.597  0.00  0.00     0.075 H 
ATOM    103  H34 LYS d   1       3.391  14.008   2.082  0.00  0.00     0.075 H 
BRANCH 101 104
ATOM    104  NZ  LYS d   1       4.639  15.702   1.862  0.00  0.00    -0.079 N 
ATOM    105  H35 LYS d   1       3.865  16.316   1.662  0.00  0.00     0.274 HD
ATOM    106  H36 LYS d   1       5.038  15.372   0.997  0.00  0.00     0.274 HD
ATOM    107  H37 LYS d   1       5.339  16.204   2.385  0.00  0.00     0.274 HD
ENDBRANCH 101 104
ENDBRANCH  98 101
ENDBRANCH  95  98
ENDBRANCH  92  95
ENDBRANCH  41  92
ENDBRANCH  29  41
ENDBRANCH  24  27
ENDBRANCH  21  23
BRANCH  21 108
ATOM    108  CB  TYR d   1       6.300   7.784   5.792  0.00  0.00    -0.014 C 
ATOM    109  H47 TYR d   1       5.794   6.875   6.148  0.00  0.00     0.043 H 
ATOM    110  H48 TYR d   1       5.836   8.118   4.853  0.00  0.00     0.043 H 
BRANCH 108 111
ATOM    111  CG  TYR d   1       6.118   8.867   6.826  0.00  0.00    -0.056 A 
ATOM    112  CD1 TYR d   1       6.040   8.560   8.177  0.00  0.00    -0.074 A 
ATOM    113  CE1 TYR d   1       5.872   9.550   9.123  0.00  0.00    -0.051 A 
ATOM    114  H49 TYR d   1       6.112   7.526   8.494  0.00  0.00     0.084 H 
ATOM    115  CZ  TYR d   1       5.785  10.865   8.725  0.00  0.00     0.065 A 
ATOM    116  H51 TYR d   1       5.809   9.294  10.174  0.00  0.00     0.087 H 
ATOM    117  CE2 TYR d   1       5.862  11.195   7.389  0.00  0.00    -0.051 A 
ATOM    118  CD2 TYR d   1       6.027  10.198   6.448  0.00  0.00    -0.074 A 
ATOM    119  H52 TYR d   1       5.793  12.231   7.079  0.00  0.00     0.087 H 
ATOM    120  H50 TYR d   1       6.086  10.460   5.398  0.00  0.00     0.084 H 
BRANCH 115 121
ATOM    121  OH  TYR d   1       5.616  11.850   9.668  0.00  0.00    -0.361 OA
ATOM    122  H53 TYR d   1       5.583  11.457  10.532  0.00  0.00     0.217 HD
ENDBRANCH 115 121
ENDBRANCH 108 111
ENDBRANCH  21 108
ENDBRANCH  18  21
ENDBRANCH  15  17
BRANCH  15 123
ATOM    123  CB  ASN d   1       8.283   6.700   0.959  0.00  0.00     0.036 C 
ATOM    124  H56 ASN d   1       9.042   7.471   0.759  0.00  0.00     0.051 H 
ATOM    125  H57 ASN d   1       7.317   7.182   1.171  0.00  0.00     0.051 H 
BRANCH 123 126
ATOM    126  CG  ASN d   1       8.128   5.844  -0.287  0.00  0.00     0.217 C 
ATOM    127  OD1 ASN d   1       8.713   4.773  -0.406  0.00  0.00    -0.274 OA
ATOM    128  ND2 ASN d   1       7.357   6.333  -1.244  0.00  0.00    -0.370 N 
ATOM    129  H58 ASN d   1       7.217   5.814  -2.088  0.00  0.00     0.159 HD
ATOM    130  H59 ASN d   1       6.914   7.221  -1.124  0.00  0.00     0.159 HD
ENDBRANCH 123 126
ENDBRANCH  15 123
ENDBRANCH  13  15
BRANCH   2 131
ATOM    131  C   PRO d   1      12.234   3.542   0.575  0.00  0.00     0.241 C 
ATOM    132  O   PRO d   1      13.338   3.086   0.297  0.00  0.00    -0.271 OA
ATOM    133  N   PHE d   1      11.429   4.057  -0.335  0.00  0.00    -0.346 N 
ATOM    134  H67 PHE d   1      10.499   4.316  -0.073  0.00  0.00     0.163 HD
BRANCH 133 135
ATOM    135  CA  PHE d   1      11.859   4.257  -1.705  0.00  0.00     0.093 C 
ATOM    136  H68 PHE d   1      12.818   3.741  -1.860  0.00  0.00     0.088 H 
BRANCH 135 137
ATOM    137  C   PHE d   1      12.051   5.743  -1.959  0.00  0.00     0.241 C 
ATOM    138  O   PHE d   1      12.315   6.173  -3.081  0.00  0.00    -0.271 OA
ATOM    139  N   GLU d   1      11.918   6.511  -0.891  0.00  0.00    -0.346 N 
ATOM    140  H76 GLU d   1      11.746   6.078  -0.006  0.00  0.00     0.163 HD
BRANCH 139 141
ATOM    141  CA  GLU d   1      12.012   7.957  -0.954  0.00  0.00     0.090 C 
ATOM    142  H77 GLU d   1      12.379   8.265  -1.944  0.00  0.00     0.087 H 
BRANCH 141 143
ATOM    143  C   GLU d   1      12.996   8.426   0.116  0.00  0.00     0.241 C 
ATOM    144  O   GLU d   1      13.035   9.598   0.491  0.00  0.00    -0.271 OA
ATOM    145  N   GLU d   1      13.799   7.482   0.596  0.00  0.00    -0.346 N 
ATOM    146  H82 GLU d   1      13.736   6.556   0.223  0.00  0.00     0.163 HD
BRANCH 145 147
ATOM    147  CA  GLU d   1      14.767   7.754   1.648  0.00  0.00     0.090 C 
ATOM    148  H83 GLU d   1      14.290   8.427   2.376  0.00  0.00     0.087 H 
BRANCH 147 149
ATOM    149  C   GLU d   1      16.004   8.474   1.098  0.00  0.00     0.241 C 
ATOM    150  O   GLU d   1      16.993   7.846   0.724  0.00  0.00    -0.271 OA
ATOM    151  N   GLU d   1      15.901   9.811   1.046  0.00  0.00    -0.346 N 
ATOM    152  H88 GLU d   1      15.039  10.226   1.337  0.00  0.00     0.163 HD
BRANCH 151 153
ATOM    153  CA  GLU d   1      16.973  10.704   0.589  0.00  0.00     0.090 C 
ATOM    154  H89 GLU d   1      16.664  11.734   0.822  0.00  0.00     0.087 H 
BRANCH 153 155
ATOM    155  C   GLU d   1      17.173  10.619  -0.928  0.00  0.00     0.241 C 
ATOM    156  O   GLU d   1      16.937   9.584  -1.546  0.00  0.00    -0.271 OA
ATOM    157  N   GLU d   1      17.589  11.729  -1.529  0.00  0.00    -0.346 N 
ATOM    158  H94 GLU d   1      17.850  12.520  -0.976  0.00  0.00     0.163 HD
BRANCH 157 159
ATOM    159  CA  GLU d   1      17.670  11.810  -2.981  0.00  0.00     0.090 C 
ATOM    160  H95 GLU d   1      17.124  10.954  -3.404  0.00  0.00     0.087 H 
BRANCH 159 161
ATOM    161  C   GLU d   1      19.120  11.739  -3.463  0.00  0.00     0.241 C 
ATOM    162  O   GLU d   1      19.552  10.727  -4.015  0.00  0.00    -0.271 OA
ATOM    163  N   GLU d   1      19.867  12.815  -3.255  0.00  0.00    -0.346 N 
ATOM    164 0H10 GLU d   1      19.476  13.596  -2.768  0.00  0.00     0.163 HD
BRANCH 163 165
ATOM    165  CA  GLU d   1      21.251  12.882  -3.723  0.00  0.00     0.090 C 
ATOM    166 1H10 GLU d   1      21.491  11.950  -4.257  0.00  0.00     0.087 H 
BRANCH 165 167
ATOM    167  C   GLU d   1      22.200  13.034  -2.544  0.00  0.00     0.241 C 
ATOM    168  O   GLU d   1      23.373  12.660  -2.615  0.00  0.00    -0.271 OA
ATOM    169  N   ASP d   1      21.669  13.595  -1.474  0.00  0.00    -0.344 N 
ATOM    170 6H10 ASP d   1      20.711  13.878  -1.512  0.00  0.00     0.163 HD
BRANCH 169 171
ATOM    171  CA  ASP d   1      22.407  13.822  -0.244  0.00  0.00     0.105 C 
ATOM    172 7H10 ASP d   1      23.227  13.092  -0.178  0.00  0.00     0.090 H 
BRANCH 171 173
ATOM    173  C   ASP d   1      21.470  13.631   0.927  0.00  0.00     0.197 C 
ATOM    174  O   ASP d   1      21.749  12.768   1.781  0.00  0.00    -0.646 OA
ATOM    175  OXT ASP d   1      20.428  14.323   0.957  0.00  0.00    -0.646 OA
ENDBRANCH 171 173
BRANCH 171 176
ATOM    176  CB  ASP d   1      22.998  15.237  -0.201  0.00  0.00     0.044 C 
ATOM    177 8H10 ASP d   1      23.057  15.559   0.849  0.00  0.00     0.053 H 
ATOM    178 9H10 ASP d   1      22.329  15.912  -0.755  0.00  0.00     0.053 H 
BRANCH 176 179
ATOM    179  CG  ASP d   1      24.382  15.325  -0.810  0.00  0.00     0.175 C 
ATOM    180  OD1 ASP d   1      24.489  15.583  -2.028  0.00  0.00    -0.648 OA
ATOM    181  OD2 ASP d   1      25.374  15.170  -0.064  0.00  0.00    -0.648 OA
ENDBRANCH 176 179
ENDBRANCH 171 176
ENDBRANCH 169 171
ENDBRANCH 165 167
BRANCH 165 182
ATOM    182  CB  GLU d   1      21.428  14.060  -4.677  0.00  0.00    -0.029 C 
ATOM    183 2H10 GLU d   1      22.439  14.008  -5.107  0.00  0.00     0.037 H 
ATOM    184 3H10 GLU d   1      21.322  14.991  -4.101  0.00  0.00     0.037 H 
BRANCH 182 185
ATOM    185  CG  GLU d   1      20.424  14.086  -5.817  0.00  0.00     0.018 C 
ATOM    186 4H10 GLU d   1      19.424  14.282  -5.403  0.00  0.00     0.049 H 
ATOM    187 5H10 GLU d   1      20.429  13.105  -6.315  0.00  0.00     0.049 H 
BRANCH 185 188
ATOM    188  CD  GLU d   1      20.745  15.152  -6.839  0.00  0.00     0.172 C 
ATOM    189  OE1 GLU d   1      20.510  16.346  -6.556  0.00  0.00    -0.648 OA
ATOM    190  OE2 GLU d   1      21.256  14.799  -7.922  0.00  0.00    -0.648 OA
ENDBRANCH 185 188
ENDBRANCH 182 185
ENDBRANCH 165 182
ENDBRANCH 163 165
ENDBRANCH 159 161
BRANCH 159 191
ATOM    191  CB  GLU d   1      17.009  13.101  -3.478  0.00  0.00    -0.029 C 
ATOM    192  H96 GLU d   1      17.664  13.947  -3.224  0.00  0.00     0.037 H 
ATOM    193  H97 GLU d   1      16.043  13.218  -2.964  0.00  0.00     0.037 H 
BRANCH 191 194
ATOM    194  CG  GLU d   1      16.761  13.118  -4.978  0.00  0.00     0.018 C 
ATOM    195  H98 GLU d   1      16.027  12.336  -5.221  0.00  0.00     0.049 H 
ATOM    196  H99 GLU d   1      17.709  12.904  -5.493  0.00  0.00     0.049 H 
BRANCH 194 197
ATOM    197  CD  GLU d   1      16.232  14.447  -5.475  0.00  0.00     0.172 C 
ATOM    198  OE1 GLU d   1      15.100  14.816  -5.095  0.00  0.00    -0.648 OA
ATOM    199  OE2 GLU d   1      16.943  15.132  -6.239  0.00  0.00    -0.648 OA
ENDBRANCH 194 197
ENDBRANCH 191 194
ENDBRANCH 159 191
ENDBRANCH 157 159
ENDBRANCH 153 155
BRANCH 153 200
ATOM    200  CB  GLU d   1      18.282  10.437   1.343  0.00  0.00    -0.029 C 
ATOM    201  H90 GLU d   1      19.033  11.170   1.014  0.00  0.00     0.037 H 
ATOM    202  H91 GLU d   1      18.628   9.422   1.098  0.00  0.00     0.037 H 
BRANCH 200 203
ATOM    203  CG  GLU d   1      18.124  10.546   2.851  0.00  0.00     0.018 C 
ATOM    204  H92 GLU d   1      17.503   9.707   3.200  0.00  0.00     0.049 H 
ATOM    205  H93 GLU d   1      17.620  11.496   3.083  0.00  0.00     0.049 H 
BRANCH 203 206
ATOM    206  CD  GLU d   1      19.444  10.508   3.590  0.00  0.00     0.172 C 
ATOM    207  OE1 GLU d   1      20.118   9.459   3.573  0.00  0.00    -0.648 OA
ATOM    208  OE2 GLU d   1      19.803  11.524   4.218  0.00  0.00    -0.648 OA
ENDBRANCH 203 206
ENDBRANCH 200 203
ENDBRANCH 153 200
ENDBRANCH 151 153
ENDBRANCH 147 149
BRANCH 147 209
ATOM    209  CB  GLU d   1      15.145   6.456   2.390  0.00  0.00    -0.029 C 
ATOM    210  H84 GLU d   1      14.332   6.210   3.089  0.00  0.00     0.037 H 
ATOM    211  H85 GLU d   1      16.071   6.639   2.954  0.00  0.00     0.037 H 
BRANCH 209 212
ATOM    212  CG  GLU d   1      15.371   5.255   1.479  0.00  0.00     0.018 C 
ATOM    213  H86 GLU d   1      16.233   5.468   0.829  0.00  0.00     0.049 H 
ATOM    214  H87 GLU d   1      14.472   5.113   0.861  0.00  0.00     0.049 H 
BRANCH 212 215
ATOM    215  CD  GLU d   1      15.646   3.960   2.237  0.00  0.00     0.172 C 
ATOM    216  OE1 GLU d   1      14.707   3.390   2.845  0.00  0.00    -0.648 OA
ATOM    217  OE2 GLU d   1      16.796   3.479   2.197  0.00  0.00    -0.648 OA
ENDBRANCH 212 215
ENDBRANCH 209 212
ENDBRANCH 147 209
ENDBRANCH 145 147
ENDBRANCH 141 143
BRANCH 141 218
ATOM    218  CB  GLU d   1      10.612   8.542  -0.728  0.00  0.00    -0.029 C 
ATOM    219  H78 GLU d   1      10.402   8.511   0.351  0.00  0.00     0.037 H 
ATOM    220  H79 GLU d   1       9.889   7.907  -1.261  0.00  0.00     0.037 H 
BRANCH 218 221
ATOM    221  CG  GLU d   1      10.415   9.974  -1.202  0.00  0.00     0.018 C 
ATOM    222  H80 GLU d   1      10.770  10.057  -2.240  0.00  0.00     0.049 H 
ATOM    223  H81 GLU d   1      11.002  10.646  -0.559  0.00  0.00     0.049 H 
BRANCH 221 224
ATOM    224  CD  GLU d   1       8.955  10.393  -1.147  0.00  0.00     0.172 C 
ATOM    225  OE1 GLU d   1       8.078   9.599  -1.545  0.00  0.00    -0.648 OA
ATOM    226  OE2 GLU d   1       8.672  11.532  -0.697  0.00  0.00    -0.648 OA
ENDBRANCH 221 224
ENDBRANCH 218 221
ENDBRANCH 141 218
ENDBRANCH 139 141
ENDBRANCH 135 137
BRANCH 135 227
ATOM    227  CB  PHE d   1      10.827   3.674  -2.667  0.00  0.00    -0.014 C 
ATOM    228  H69 PHE d   1      11.267   3.634  -3.674  0.00  0.00     0.043 H 
ATOM    229  H70 PHE d   1       9.945   4.331  -2.678  0.00  0.00     0.043 H 
BRANCH 227 230
ATOM    230  CG  PHE d   1      10.394   2.295  -2.277  0.00  0.00    -0.056 A 
ATOM    231  CD1 PHE d   1      11.252   1.223  -2.422  0.00  0.00    -0.077 A 
ATOM    232  CE1 PHE d   1      10.862  -0.048  -2.055  0.00  0.00    -0.082 A 
ATOM    233  H71 PHE d   1      12.244   1.382  -2.829  0.00  0.00     0.084 H 
ATOM    234  CZ  PHE d   1       9.601  -0.257  -1.536  0.00  0.00    -0.083 A 
ATOM    235  H73 PHE d   1      11.545  -0.881  -2.174  0.00  0.00     0.083 H 
ATOM    236  CE2 PHE d   1       8.733   0.804  -1.386  0.00  0.00    -0.082 A 
ATOM    237  H75 PHE d   1       9.293  -1.255  -1.246  0.00  0.00     0.083 H 
ATOM    238  CD2 PHE d   1       9.130   2.072  -1.755  0.00  0.00    -0.077 A 
ATOM    239  H74 PHE d   1       7.741   0.642  -0.979  0.00  0.00     0.083 H 
ATOM    240  H72 PHE d   1       8.445   2.904  -1.635  0.00  0.00     0.084 H 
ENDBRANCH 227 230
ENDBRANCH 135 227
ENDBRANCH 133 135
ENDBRANCH   2 131
TORSDOF 66
