REMARK WARNING: 32 MAX_TORS EXCEEDED!!!
REMARK  83 active torsions:
REMARK  status: ('A' for Active; 'I' for Inactive)
REMARK    1  A    between atoms: N_1  and  CA_2 
REMARK    2  A    between atoms: CA_2  and  C_3 
REMARK    3  A    between atoms: CA_2  and  CB_5 
REMARK       I    between atoms: C_3  and  N_9 
REMARK    4  A    between atoms: CB_5  and  CG_6 
REMARK    5  A    between atoms: CG_6  and  CD1_7 
REMARK    6  A    between atoms: CG_6  and  CD2_8 
REMARK    7  A    between atoms: N_9  and  CA_10 
REMARK    8  A    between atoms: CA_10  and  C_11 
REMARK    9  A    between atoms: CA_10  and  CB_13 
REMARK       I    between atoms: C_11  and  N_20 
REMARK   10  A    between atoms: CB_13  and  CG_14 
REMARK   11  A    between atoms: N_20  and  CA_21 
REMARK   12  A    between atoms: CA_21  and  C_22 
REMARK   13  A    between atoms: CA_21  and  CB_24 
REMARK       I    between atoms: C_22  and  N_31 
REMARK   14  A    between atoms: CB_24  and  CG_25 
REMARK   15  A    between atoms: CG_25  and  CD_26 
REMARK   16  A    between atoms: CD_26  and  NE_27 
REMARK       I    between atoms: NE_27  and  CZ_28 
REMARK       I    between atoms: CZ_28  and  NH1_29 
REMARK       I    between atoms: CZ_28  and  NH2_30 
REMARK   17  A    between atoms: N_31  and  CA_32 
REMARK   18  A    between atoms: CA_32  and  C_33 
REMARK   19  A    between atoms: CA_32  and  CB_35 
REMARK       I    between atoms: C_33  and  N_39 
REMARK   20  A    between atoms: CB_35  and  CG_36 
REMARK   21  A    between atoms: CG_36  and  CD1_37 
REMARK   22  A    between atoms: CG_36  and  CD2_38 
REMARK   23  A    between atoms: N_39  and  CA_40 
REMARK   24  A    between atoms: CA_40  and  C_41 
REMARK   25  A    between atoms: CA_40  and  CB_43 
REMARK       I    between atoms: C_41  and  N_50 
REMARK   26  A    between atoms: CB_43  and  CG_44 
REMARK   27  A    between atoms: CG_44  and  CD_45 
REMARK   28  A    between atoms: CD_45  and  NE_46 
REMARK       I    between atoms: NE_46  and  CZ_47 
REMARK       I    between atoms: CZ_47  and  NH1_48 
REMARK   29  A    between atoms: N_50  and  CA_51 
REMARK   30  A    between atoms: CA_51  and  C_52 
REMARK   31  A    between atoms: CA_51  and  CB_54 
REMARK       I    between atoms: C_52  and  N_60 
REMARK   32  A    between atoms: CB_54  and  CG_55 
REMARK   33  A    between atoms: N_60  and  CA_61 
REMARK   34  A    between atoms: CA_61  and  C_62 
REMARK   35  A    between atoms: CA_61  and  CB_64 
REMARK       I    between atoms: C_62  and  N_71 
REMARK   36  A    between atoms: CB_64  and  CG_65 
REMARK   37  A    between atoms: CA_72  and  C_73 
REMARK       I    between atoms: C_73  and  N_78 
REMARK   38  A    between atoms: N_78  and  CA_79 
REMARK   39  A    between atoms: CA_79  and  C_80 
REMARK   40  A    between atoms: CA_79  and  CB_82 
REMARK       I    between atoms: C_80  and  N_84 
REMARK   41  A    between atoms: CB_82  and  SG_83 
REMARK   42  A    between atoms: N_84  and  CA_85 
REMARK   43  A    between atoms: CA_85  and  C_86 
REMARK       I    between atoms: C_86  and  N_88 
REMARK   44  A    between atoms: N_88  and  CA_89 
REMARK   45  A    between atoms: CA_89  and  C_90 
REMARK   46  A    between atoms: CA_89  and  CB_92 
REMARK       I    between atoms: C_90  and  N_96 
REMARK   47  A    between atoms: CB_92  and  CG_93 
REMARK       I    between atoms: CG_93  and  ND2_95 
REMARK   48  A    between atoms: N_96  and  CA_97 
REMARK   49  A    between atoms: CA_97  and  C_98 
REMARK   50  A    between atoms: CA_97  and  CB_100 
REMARK       I    between atoms: C_98  and  N_103 
REMARK   51  A    between atoms: CB_100  and  CG1_101 
REMARK   52  A    between atoms: CB_100  and  CG2_102 
REMARK   53  A    between atoms: N_103  and  CA_104 
REMARK   54  A    between atoms: CA_104  and  C_105 
REMARK   55  A    between atoms: CA_104  and  CB_107 
REMARK       I    between atoms: C_105  and  N_111 
REMARK   56  A    between atoms: CB_107  and  CG_108 
REMARK       I    between atoms: CG_108  and  ND2_110 
REMARK   57  A    between atoms: N_111  and  CA_112 
REMARK   58  A    between atoms: CA_112  and  C_113 
REMARK   59  A    between atoms: CA_112  and  CB_115 
REMARK       I    between atoms: C_113  and  N_123 
REMARK   60  A    between atoms: CB_115  and  CG_116 
REMARK   61  A    between atoms: CZ_121  and  OH_122 
REMARK   62  A    between atoms: N_123  and  CA_124 
REMARK   63  A    between atoms: CA_124  and  C_125 
REMARK       I    between atoms: C_125  and  N_127 
REMARK   64  A    between atoms: N_127  and  CA_128 
REMARK   65  A    between atoms: CA_128  and  C_129 
REMARK   66  A    between atoms: CA_128  and  CB_131 
REMARK       I    between atoms: C_129  and  N_139 
REMARK   67  A    between atoms: CB_131  and  CG_132 
REMARK   68  A    between atoms: CZ_137  and  OH_138 
REMARK   69  A    between atoms: N_139  and  CA_140 
REMARK   70  A    between atoms: CA_140  and  C_141 
REMARK   71  A    between atoms: CA_140  and  CB_143 
REMARK       I    between atoms: C_141  and  N_148 
REMARK   72  A    between atoms: CB_143  and  CG_144 
REMARK   73  A    between atoms: CG_144  and  CD_145 
REMARK       I    between atoms: CD_145  and  NE2_147 
REMARK   74  A    between atoms: N_148  and  CA_149 
REMARK   75  A    between atoms: CA_149  and  C_150 
REMARK   76  A    between atoms: CA_149  and  CB_152 
REMARK       I    between atoms: C_150  and  N_157 
REMARK   77  A    between atoms: CB_152  and  CG_153 
REMARK   78  A    between atoms: CG_153  and  CD_154 
REMARK       I    between atoms: CD_154  and  NE2_156 
REMARK   79  A    between atoms: N_157  and  CA_158 
REMARK   80  A    between atoms: CA_158  and  C_159 
REMARK   81  A    between atoms: CA_158  and  CB_161 
REMARK   82  A    between atoms: CB_161  and  CG_162 
REMARK   83  A    between atoms: CG_162  and  CD_163 
REMARK       I    between atoms: CD_163  and  NE2_165 
ROOT
ATOM      1  C   PRO d   1      -8.707  -6.197  14.555  0.00  0.00     0.241 C 
ATOM      2  O   PRO d   1      -8.362  -7.343  14.842  0.00  0.00    -0.271 OA
ATOM      3  N   CYS d   1      -7.816  -5.252  14.228  0.00  0.00    -0.345 N 
ATOM      4  H83 CYS d   1      -8.152  -4.316  14.127  0.00  0.00     0.163 HD
ENDROOT
BRANCH   3   5
ATOM      5  CA  CYS d   1      -6.388  -5.485  14.007  0.00  0.00     0.097 C 
ATOM      6  H84 CYS d   1      -6.143  -6.515  14.307  0.00  0.00     0.088 H 
BRANCH   5   7
ATOM      7  C   CYS d   1      -5.510  -4.533  14.842  0.00  0.00     0.241 C 
ATOM      8  O   CYS d   1      -5.729  -3.318  14.850  0.00  0.00    -0.271 OA
ATOM      9  N   GLY d   1      -4.502  -5.087  15.532  0.00  0.00    -0.351 N 
ATOM     10  H88 GLY d   1      -4.375  -6.076  15.452  0.00  0.00     0.163 HD
BRANCH   9  11
ATOM     11  CA  GLY d   1      -3.567  -4.348  16.399  0.00  0.00     0.069 C 
ATOM     12  H89 GLY d   1      -3.311  -4.993  17.252  0.00  0.00     0.078 H 
ATOM     13  H90 GLY d   1      -4.080  -3.446  16.763  0.00  0.00     0.078 H 
BRANCH  11  14
ATOM     14  C   GLY d   1      -2.259  -3.911  15.724  0.00  0.00     0.236 C 
ATOM     15  O   GLY d   1      -1.583  -3.022  16.242  0.00  0.00    -0.272 OA
ATOM     16  N   ASN d   1      -1.904  -4.503  14.578  0.00  0.00    -0.346 N 
ATOM     17  H91 ASN d   1      -2.516  -5.205  14.214  0.00  0.00     0.163 HD
BRANCH  16  18
ATOM     18  CA  ASN d   1      -0.684  -4.203  13.811  0.00  0.00     0.097 C 
ATOM     19  H92 ASN d   1      -0.073  -3.488  14.382  0.00  0.00     0.088 H 
BRANCH  18  20
ATOM     20  C   ASN d   1      -1.047  -3.566  12.460  0.00  0.00     0.241 C 
ATOM     21  O   ASN d   1      -1.639  -4.222  11.603  0.00  0.00    -0.271 OA
ATOM     22  N   VAL d   1      -0.710  -2.290  12.262  0.00  0.00    -0.346 N 
ATOM     23  H97 VAL d   1      -0.105  -1.851  12.926  0.00  0.00     0.163 HD
BRANCH  22  24
ATOM     24  CA  VAL d   1      -1.181  -1.496  11.120  0.00  0.00     0.092 C 
ATOM     25  H98 VAL d   1      -1.200  -2.162  10.245  0.00  0.00     0.088 H 
BRANCH  24  26
ATOM     26  C   VAL d   1      -0.224  -0.348  10.786  0.00  0.00     0.241 C 
ATOM     27  O   VAL d   1       0.243   0.380  11.659  0.00  0.00    -0.271 OA
ATOM     28  N   ASN d   1       0.047  -0.213   9.489  0.00  0.00    -0.346 N 
ATOM     29 6H10 ASN d   1      -0.281  -0.941   8.887  0.00  0.00     0.163 HD
BRANCH  28  30
ATOM     30  CA  ASN d   1       0.771   0.883   8.851  0.00  0.00     0.097 C 
ATOM     31 7H10 ASN d   1       1.411   1.354   9.611  0.00  0.00     0.088 H 
BRANCH  30  32
ATOM     32  C   ASN d   1      -0.217   1.954   8.347  0.00  0.00     0.241 C 
ATOM     33  O   ASN d   1      -1.090   1.688   7.521  0.00  0.00    -0.271 OA
ATOM     34  N   TYR d   1      -0.082   3.184   8.853  0.00  0.00    -0.346 N 
ATOM     35 2H11 TYR d   1       0.623   3.333   9.546  0.00  0.00     0.163 HD
BRANCH  34  36
ATOM     36  CA  TYR d   1      -0.909   4.328   8.450  0.00  0.00     0.093 C 
ATOM     37 3H11 TYR d   1      -1.923   3.966   8.227  0.00  0.00     0.088 H 
BRANCH  36  38
ATOM     38  C   TYR d   1      -0.341   4.972   7.171  0.00  0.00     0.241 C 
ATOM     39  O   TYR d   1       0.754   5.543   7.184  0.00  0.00    -0.271 OA
ATOM     40  N   GLY d   1      -1.072   4.842   6.058  0.00  0.00    -0.351 N 
ATOM     41 1H12 GLY d   1      -1.987   4.448   6.143  0.00  0.00     0.163 HD
BRANCH  40  42
ATOM     42  CA  GLY d   1      -0.618   5.241   4.718  0.00  0.00     0.069 C 
ATOM     43 2H12 GLY d   1      -1.131   4.617   3.971  0.00  0.00     0.078 H 
ATOM     44 3H12 GLY d   1       0.467   5.076   4.650  0.00  0.00     0.078 H 
BRANCH  42  45
ATOM     45  C   GLY d   1      -0.910   6.707   4.415  0.00  0.00     0.236 C 
ATOM     46  O   GLY d   1       0.009   7.517   4.288  0.00  0.00    -0.272 OA
ATOM     47  N   TYR d   1      -2.195   7.045   4.294  0.00  0.00    -0.346 N 
ATOM     48 4H12 TYR d   1      -2.883   6.347   4.495  0.00  0.00     0.163 HD
BRANCH  47  49
ATOM     49  CA  TYR d   1      -2.665   8.373   3.885  0.00  0.00     0.093 C 
ATOM     50 5H12 TYR d   1      -1.836   8.889   3.379  0.00  0.00     0.088 H 
BRANCH  49  51
ATOM     51  C   TYR d   1      -3.065   9.222   5.106  0.00  0.00     0.241 C 
ATOM     52  O   TYR d   1      -3.957   8.855   5.873  0.00  0.00    -0.271 OA
ATOM     53  N   GLN d   1      -2.413  10.378   5.271  0.00  0.00    -0.346 N 
ATOM     54 3H13 GLN d   1      -1.725  10.617   4.585  0.00  0.00     0.163 HD
BRANCH  53  55
ATOM     55  CA  GLN d   1      -2.621  11.329   6.376  0.00  0.00     0.090 C 
ATOM     56 4H13 GLN d   1      -3.078  10.769   7.205  0.00  0.00     0.087 H 
BRANCH  55  57
ATOM     57  C   GLN d   1      -3.615  12.457   6.011  0.00  0.00     0.241 C 
ATOM     58  O   GLN d   1      -3.530  13.570   6.532  0.00  0.00    -0.271 OA
ATOM     59  N   GLN d   1      -4.549  12.180   5.095  0.00  0.00    -0.346 N 
ATOM     60 1H14 GLN d   1      -4.575  11.245   4.742  0.00  0.00     0.163 HD
BRANCH  59  61
ATOM     61  CA  GLN d   1      -5.538  13.121   4.560  0.00  0.00     0.090 C 
ATOM     62 2H14 GLN d   1      -5.497  14.056   5.138  0.00  0.00     0.087 H 
BRANCH  61  63
ATOM     63  C   GLN d   1      -6.954  12.526   4.711  0.00  0.00     0.241 C 
ATOM     64  O   GLN d   1      -7.121  11.303   4.715  0.00  0.00    -0.271 OA
ATOM     65  N   GLN d   1      -7.963  13.392   4.885  0.00  0.00    -0.345 N 
ATOM     66 9H14 GLN d   1      -7.762  14.362   4.751  0.00  0.00     0.163 HD
BRANCH  65  67
ATOM     67  CA  GLN d   1      -9.344  13.033   5.258  0.00  0.00     0.096 C 
ATOM     68 0H15 GLN d   1      -9.293  12.457   6.194  0.00  0.00     0.089 H 
BRANCH  67  69
ATOM     69  C   GLN d   1     -10.057  12.134   4.229  0.00  0.00     0.196 C 
ATOM     70  O   GLN d   1     -10.136  12.511   3.040  0.00  0.00    -0.646 OA
ATOM     71  OXT GLN d   1     -10.543  11.045   4.603  0.00  0.00    -0.646 OA
ENDBRANCH  67  69
BRANCH  67  72
ATOM     72  CB  GLN d   1     -10.116  14.335   5.551  0.00  0.00    -0.029 C 
ATOM     73 1H15 GLN d   1     -10.329  14.830   4.592  0.00  0.00     0.037 H 
ATOM     74 2H15 GLN d   1      -9.473  14.984   6.164  0.00  0.00     0.037 H 
BRANCH  72  75
ATOM     75  CG  GLN d   1     -11.452  14.139   6.297  0.00  0.00     0.011 C 
ATOM     76 3H15 GLN d   1     -11.743  15.107   6.731  0.00  0.00     0.047 H 
ATOM     77 4H15 GLN d   1     -11.285  13.411   7.104  0.00  0.00     0.047 H 
BRANCH  75  78
ATOM     78  CD  GLN d   1     -12.621  13.635   5.441  0.00  0.00     0.215 C 
ATOM     79  OE1 GLN d   1     -13.254  12.625   5.726  0.00  0.00    -0.274 OA
ATOM     80  NE2 GLN d   1     -12.998  14.342   4.393  0.00  0.00    -0.370 N 
ATOM     81 5H15 GLN d   1     -13.758  14.027   3.825  0.00  0.00     0.159 HD
ATOM     82 6H15 GLN d   1     -12.524  15.193   4.167  0.00  0.00     0.159 HD
ENDBRANCH  75  78
ENDBRANCH  72  75
ENDBRANCH  67  72
ENDBRANCH  65  67
ENDBRANCH  61  63
BRANCH  61  83
ATOM     83  CB  GLN d   1      -5.157  13.433   3.100  0.00  0.00    -0.030 C 
ATOM     84 3H14 GLN d   1      -5.369  12.544   2.488  0.00  0.00     0.037 H 
ATOM     85 4H14 GLN d   1      -4.080  13.656   3.062  0.00  0.00     0.037 H 
BRANCH  83  86
ATOM     86  CG  GLN d   1      -5.921  14.626   2.504  0.00  0.00     0.011 C 
ATOM     87 5H14 GLN d   1      -5.798  15.496   3.165  0.00  0.00     0.047 H 
ATOM     88 6H14 GLN d   1      -6.988  14.368   2.433  0.00  0.00     0.047 H 
BRANCH  86  89
ATOM     89  CD  GLN d   1      -5.400  14.983   1.108  0.00  0.00     0.215 C 
ATOM     90  OE1 GLN d   1      -5.872  14.492   0.090  0.00  0.00    -0.274 OA
ATOM     91  NE2 GLN d   1      -4.397  15.834   1.000  0.00  0.00    -0.370 N 
ATOM     92 7H14 GLN d   1      -4.044  16.079   0.097  0.00  0.00     0.159 HD
ATOM     93 8H14 GLN d   1      -3.990  16.234   1.821  0.00  0.00     0.159 HD
ENDBRANCH  86  89
ENDBRANCH  83  86
ENDBRANCH  61  83
ENDBRANCH  59  61
ENDBRANCH  55  57
BRANCH  55  94
ATOM     94  CB  GLN d   1      -1.254  11.845   6.879  0.00  0.00    -0.030 C 
ATOM     95 5H13 GLN d   1      -0.658  10.979   7.201  0.00  0.00     0.037 H 
ATOM     96 6H13 GLN d   1      -1.433  12.507   7.739  0.00  0.00     0.037 H 
BRANCH  94  97
ATOM     97  CG  GLN d   1      -0.437  12.627   5.832  0.00  0.00     0.011 C 
ATOM     98 7H13 GLN d   1      -1.077  13.405   5.391  0.00  0.00     0.047 H 
ATOM     99 8H13 GLN d   1      -0.110  11.931   5.045  0.00  0.00     0.047 H 
BRANCH  97 100
ATOM    100  CD  GLN d   1       0.797  13.293   6.447  0.00  0.00     0.215 C 
ATOM    101  OE1 GLN d   1       0.851  14.503   6.642  0.00  0.00    -0.274 OA
ATOM    102  NE2 GLN d   1       1.833  12.545   6.776  0.00  0.00    -0.370 N 
ATOM    103 9H13 GLN d   1       2.646  12.966   7.179  0.00  0.00     0.159 HD
ATOM    104 0H14 GLN d   1       1.805  11.557   6.623  0.00  0.00     0.159 HD
ENDBRANCH  97 100
ENDBRANCH  94  97
ENDBRANCH  55  94
ENDBRANCH  53  55
ENDBRANCH  49  51
BRANCH  49 105
ATOM    105  CB  TYR d   1      -3.816   8.218   2.871  0.00  0.00    -0.014 C 
ATOM    106 6H12 TYR d   1      -4.297   9.198   2.740  0.00  0.00     0.043 H 
ATOM    107 7H12 TYR d   1      -4.545   7.503   3.281  0.00  0.00     0.043 H 
BRANCH 105 108
ATOM    108  CG  TYR d   1      -3.370   7.717   1.504  0.00  0.00    -0.056 A 
ATOM    109  CD1 TYR d   1      -3.016   6.366   1.323  0.00  0.00    -0.074 A 
ATOM    110  CE1 TYR d   1      -2.592   5.903   0.064  0.00  0.00    -0.051 A 
ATOM    111 8H12 TYR d   1      -3.071   5.678   2.159  0.00  0.00     0.084 H 
ATOM    112  CZ  TYR d   1      -2.524   6.787  -1.033  0.00  0.00     0.065 A 
ATOM    113 0H13 TYR d   1      -2.316   4.862  -0.064  0.00  0.00     0.087 H 
ATOM    114  CE2 TYR d   1      -2.876   8.144  -0.854  0.00  0.00    -0.051 A 
ATOM    115  CD2 TYR d   1      -3.301   8.600   0.408  0.00  0.00    -0.074 A 
ATOM    116 1H13 TYR d   1      -2.819   8.834  -1.688  0.00  0.00     0.087 H 
ATOM    117 9H12 TYR d   1      -3.578   9.640   0.538  0.00  0.00     0.084 H 
BRANCH 112 118
ATOM    118  OH  TYR d   1      -2.148   6.323  -2.257  0.00  0.00    -0.361 OA
ATOM    119 2H13 TYR d   1      -1.948   5.396  -2.195  0.00  0.00     0.217 HD
ENDBRANCH 112 118
ENDBRANCH 105 108
ENDBRANCH  49 105
ENDBRANCH  47  49
ENDBRANCH  42  45
ENDBRANCH  40  42
ENDBRANCH  36  38
BRANCH  36 120
ATOM    120  CB  TYR d   1      -1.003   5.327   9.611  0.00  0.00    -0.014 C 
ATOM    121 4H11 TYR d   1      -1.659   6.154   9.302  0.00  0.00     0.043 H 
ATOM    122 5H11 TYR d   1       0.006   5.716   9.814  0.00  0.00     0.043 H 
BRANCH 120 123
ATOM    123  CG  TYR d   1      -1.554   4.736  10.898  0.00  0.00    -0.056 A 
ATOM    124  CD1 TYR d   1      -2.923   4.420  10.995  0.00  0.00    -0.074 A 
ATOM    125  CE1 TYR d   1      -3.443   3.856  12.175  0.00  0.00    -0.051 A 
ATOM    126 6H11 TYR d   1      -3.581   4.612  10.155  0.00  0.00     0.084 H 
ATOM    127  CZ  TYR d   1      -2.590   3.608  13.273  0.00  0.00     0.065 A 
ATOM    128 8H11 TYR d   1      -4.497   3.612  12.241  0.00  0.00     0.087 H 
ATOM    129  CE2 TYR d   1      -1.215   3.927  13.179  0.00  0.00    -0.051 A 
ATOM    130  CD2 TYR d   1      -0.703   4.488  11.992  0.00  0.00    -0.074 A 
ATOM    131 9H11 TYR d   1      -0.556   3.740  14.019  0.00  0.00     0.087 H 
ATOM    132 7H11 TYR d   1       0.351   4.730  11.921  0.00  0.00     0.084 H 
BRANCH 127 133
ATOM    133  OH  TYR d   1      -3.097   3.070  14.417  0.00  0.00    -0.361 OA
ATOM    134 0H12 TYR d   1      -4.029   2.919  14.309  0.00  0.00     0.217 HD
ENDBRANCH 127 133
ENDBRANCH 120 123
ENDBRANCH  36 120
ENDBRANCH  34  36
ENDBRANCH  30  32
BRANCH  30 135
ATOM    135  CB  ASN d   1       1.696   0.352   7.729  0.00  0.00     0.036 C 
ATOM    136 8H10 ASN d   1       2.595  -0.058   8.213  0.00  0.00     0.051 H 
ATOM    137 9H10 ASN d   1       1.977   1.211   7.102  0.00  0.00     0.051 H 
BRANCH 135 138
ATOM    138  CG  ASN d   1       1.143  -0.735   6.794  0.00  0.00     0.217 C 
ATOM    139  OD1 ASN d   1       0.027  -1.224   6.911  0.00  0.00    -0.274 OA
ATOM    140  ND2 ASN d   1       1.948  -1.196   5.852  0.00  0.00    -0.370 N 
ATOM    141 0H11 ASN d   1       1.627  -1.904   5.223  0.00  0.00     0.159 HD
ATOM    142 1H11 ASN d   1       2.878  -0.837   5.769  0.00  0.00     0.159 HD
ENDBRANCH 135 138
ENDBRANCH  30 135
ENDBRANCH  28  30
ENDBRANCH  24  26
BRANCH  24 143
ATOM    143  CB  VAL d   1      -2.632  -1.008  11.355  0.00  0.00    -0.033 C 
ATOM    144  H99 VAL d   1      -3.260  -1.907  11.445  0.00  0.00     0.042 H 
BRANCH 143 145
ATOM    145  CG1 VAL d   1      -2.826  -0.184  12.639  0.00  0.00    -0.071 C 
ATOM    146 0H10 VAL d   1      -3.880   0.119  12.725  0.00  0.00     0.028 H 
ATOM    147 1H10 VAL d   1      -2.189   0.712  12.600  0.00  0.00     0.028 H 
ATOM    148 2H10 VAL d   1      -2.548  -0.793  13.511  0.00  0.00     0.028 H 
ENDBRANCH 143 145
BRANCH 143 149
ATOM    149  CG2 VAL d   1      -3.140  -0.195  10.164  0.00  0.00    -0.071 C 
ATOM    150 3H10 VAL d   1      -3.006  -0.776   9.240  0.00  0.00     0.028 H 
ATOM    151 4H10 VAL d   1      -2.572   0.744  10.092  0.00  0.00     0.028 H 
ATOM    152 5H10 VAL d   1      -4.207   0.031  10.303  0.00  0.00     0.028 H 
ENDBRANCH 143 149
ENDBRANCH  24 143
ENDBRANCH  22  24
ENDBRANCH  18  20
BRANCH  18 153
ATOM    153  CB  ASN d   1       0.129  -5.495  13.610  0.00  0.00     0.036 C 
ATOM    154  H93 ASN d   1       0.944  -5.292  12.899  0.00  0.00     0.051 H 
ATOM    155  H94 ASN d   1      -0.535  -6.268  13.196  0.00  0.00     0.051 H 
BRANCH 153 156
ATOM    156  CG  ASN d   1       0.734  -6.016  14.913  0.00  0.00     0.217 C 
ATOM    157  OD1 ASN d   1       1.376  -5.289  15.662  0.00  0.00    -0.274 OA
ATOM    158  ND2 ASN d   1       0.556  -7.289  15.220  0.00  0.00    -0.370 N 
ATOM    159  H95 ASN d   1       0.941  -7.658  16.066  0.00  0.00     0.159 HD
ATOM    160  H96 ASN d   1       0.037  -7.883  14.606  0.00  0.00     0.159 HD
ENDBRANCH 153 156
ENDBRANCH  18 153
ENDBRANCH  16  18
ENDBRANCH  11  14
ENDBRANCH   9  11
ENDBRANCH   5   7
BRANCH   5 161
ATOM    161  CB  CYS d   1      -6.157  -5.341  12.497  0.00  0.00     0.001 C 
ATOM    162  H85 CYS d   1      -6.460  -4.334  12.173  0.00  0.00     0.052 H 
ATOM    163  H86 CYS d   1      -6.753  -6.094  11.960  0.00  0.00     0.052 H 
BRANCH 161 164
ATOM    164  SG  CYS d   1      -4.405  -5.590  12.138  0.00  0.00    -0.180 SA
ATOM    165  H87 CYS d   1      -4.130  -6.513  12.436  0.00  0.00     0.101 HD
ENDBRANCH 161 164
ENDBRANCH   5 161
ENDBRANCH   3   5
BRANCH   1 166
ATOM    166  CA  PRO d   1     -10.206  -5.834  14.556  0.00  0.00     0.091 C 
ATOM    167  N   PRO d   1     -10.489  -4.490  14.045  0.00  0.00    -0.337 N 
ATOM    168  C   PHE d   1     -10.369  -3.362  14.783  0.00  0.00     0.243 C 
ATOM    169  CD  PRO d   1     -11.019  -4.594  12.688  0.00  0.00    -0.001 C 
ATOM    170  O   PHE d   1      -9.863  -3.378  15.909  0.00  0.00    -0.271 OA
ATOM    171  CG  PRO d   1     -10.922  -6.067  12.297  0.00  0.00    -0.048 C 
ATOM    172  H81 PRO d   1     -10.423  -3.978  11.999  0.00  0.00     0.064 H 
ATOM    173  H82 PRO d   1     -12.068  -4.262  12.663  0.00  0.00     0.064 H 
ATOM    174  CB  PRO d   1     -11.014  -6.768  13.648  0.00  0.00    -0.036 C 
ATOM    175  H79 PRO d   1     -11.753  -6.360  11.639  0.00  0.00     0.035 H 
ATOM    176  H80 PRO d   1      -9.966  -6.285  11.799  0.00  0.00     0.035 H 
ATOM    177  H77 PRO d   1     -12.058  -6.847  13.986  0.00  0.00     0.036 H 
ATOM    178  H78 PRO d   1     -10.565  -7.771  13.608  0.00  0.00     0.036 H 
ATOM    179  H76 PRO d   1     -10.572  -5.914  15.590  0.00  0.00     0.087 H 
BRANCH 168 180
ATOM    180  CA  PHE d   1     -10.865  -2.013  14.209  0.00  0.00     0.093 C 
ATOM    181  H68 PHE d   1     -11.378  -2.231  13.261  0.00  0.00     0.088 H 
BRANCH 180 182
ATOM    182  N   PHE d   1     -11.827  -1.374  15.110  0.00  0.00    -0.346 N 
ATOM    183  C   HIS d   1     -13.118  -1.722  15.154  0.00  0.00     0.241 C 
ATOM    184  O   HIS d   1     -13.559  -2.666  14.489  0.00  0.00    -0.271 OA
ATOM    185  H67 PHE d   1     -11.505  -0.648  15.717  0.00  0.00     0.163 HD
BRANCH 183 186
ATOM    186  CA  HIS d   1     -14.058  -0.891  16.056  0.00  0.00     0.094 C 
ATOM    187  H61 HIS d   1     -13.916   0.169  15.797  0.00  0.00     0.088 H 
BRANCH 186 188
ATOM    188  N   HIS d   1     -15.469  -1.232  15.817  0.00  0.00    -0.346 N 
ATOM    189  C   ARG d   1     -16.532  -0.501  16.159  0.00  0.00     0.241 C 
ATOM    190  O   ARG d   1     -16.427   0.606  16.688  0.00  0.00    -0.271 OA
ATOM    191  H60 HIS d   1     -15.650  -2.098  15.352  0.00  0.00     0.163 HD
BRANCH 189 192
ATOM    192  CA  ARG d   1     -17.922  -1.090  15.864  0.00  0.00     0.089 C 
ATOM    193  H48 ARG d   1     -18.589  -0.263  15.580  0.00  0.00     0.087 H 
BRANCH 192 194
ATOM    194  N   ARG d   1     -17.925  -2.072  14.766  0.00  0.00    -0.346 N 
ATOM    195  C   LEU d   1     -17.920  -1.769  13.462  0.00  0.00     0.241 C 
ATOM    196  O   LEU d   1     -17.878  -0.612  13.034  0.00  0.00    -0.271 OA
ATOM    197  H47 ARG d   1     -17.931  -3.041  15.014  0.00  0.00     0.163 HD
BRANCH 195 198
ATOM    198  CA  LEU d   1     -17.913  -2.975  12.514  0.00  0.00     0.089 C 
ATOM    199  H37 LEU d   1     -18.558  -3.750  12.954  0.00  0.00     0.087 H 
BRANCH 198 200
ATOM    200  N   LEU d   1     -18.439  -2.659  11.178  0.00  0.00    -0.346 N 
ATOM    201  C   ARG d   1     -19.736  -2.483  10.909  0.00  0.00     0.241 C 
ATOM    202  O   ARG d   1     -20.609  -2.623  11.771  0.00  0.00    -0.271 OA
ATOM    203  H36 LEU d   1     -17.787  -2.570  10.425  0.00  0.00     0.163 HD
BRANCH 201 204
ATOM    204  CA  ARG d   1     -20.119  -2.095   9.474  0.00  0.00     0.089 C 
ATOM    205  H24 ARG d   1     -19.201  -1.865   8.912  0.00  0.00     0.087 H 
BRANCH 204 206
ATOM    206  N   ARG d   1     -20.798  -3.223   8.823  0.00  0.00    -0.346 N 
ATOM    207  C   PHE d   1     -20.173  -4.171   8.112  0.00  0.00     0.241 C 
ATOM    208  O   PHE d   1     -18.960  -4.158   7.898  0.00  0.00    -0.271 OA
ATOM    209  H23 ARG d   1     -21.791  -3.288   8.917  0.00  0.00     0.163 HD
BRANCH 207 210
ATOM    210  CA  PHE d   1     -21.029  -5.331   7.586  0.00  0.00     0.093 C 
ATOM    211  H15 PHE d   1     -22.088  -5.071   7.729  0.00  0.00     0.088 H 
BRANCH 210 212
ATOM    212  N   PHE d   1     -20.788  -5.561   6.156  0.00  0.00    -0.346 N 
ATOM    213  C   LEU d   1     -21.318  -4.818   5.181  0.00  0.00     0.249 C 
ATOM    214  O   LEU d   1     -22.095  -3.891   5.415  0.00  0.00    -0.271 OA
ATOM    215  H14 PHE d   1     -20.191  -6.320   5.896  0.00  0.00     0.163 HD
BRANCH 213 216
ATOM    216  CA  LEU d   1     -20.931  -5.171   3.739  0.00  0.00     0.176 C 
ATOM    217  H4  LEU d   1     -19.968  -5.703   3.768  0.00  0.00     0.099 H 
BRANCH 216 218
ATOM    218  N   LEU d   1     -21.941  -6.098   3.155  0.00  0.00    -0.066 N 
ATOM    219  H1  LEU d   1     -21.680  -6.325   2.208  0.00  0.00     0.275 HD
ATOM    220  H2  LEU d   1     -22.846  -5.654   3.157  0.00  0.00     0.275 HD
ATOM    221  H3  LEU d   1     -21.980  -6.942   3.705  0.00  0.00     0.275 HD
ENDBRANCH 216 218
BRANCH 216 222
ATOM    222  CB  LEU d   1     -20.728  -3.890   2.883  0.00  0.00    -0.028 C 
ATOM    223  H5  LEU d   1     -20.394  -3.090   3.560  0.00  0.00     0.037 H 
ATOM    224  H6  LEU d   1     -21.704  -3.623   2.453  0.00  0.00     0.037 H 
BRANCH 222 225
ATOM    225  CG  LEU d   1     -19.714  -3.966   1.720  0.00  0.00    -0.059 C 
ATOM    226  H7  LEU d   1     -19.722  -2.984   1.225  0.00  0.00     0.038 H 
BRANCH 225 227
ATOM    227  CD1 LEU d   1     -18.294  -4.244   2.208  0.00  0.00    -0.073 C 
ATOM    228  H8  LEU d   1     -17.612  -4.289   1.346  0.00  0.00     0.028 H 
ATOM    229  H9  LEU d   1     -18.272  -5.205   2.743  0.00  0.00     0.028 H 
ATOM    230  H10 LEU d   1     -17.975  -3.439   2.886  0.00  0.00     0.028 H 
ENDBRANCH 225 227
BRANCH 225 231
ATOM    231  CD2 LEU d   1     -20.044  -5.023   0.667  0.00  0.00    -0.073 C 
ATOM    232  H11 LEU d   1     -21.063  -4.857   0.288  0.00  0.00     0.028 H 
ATOM    233  H12 LEU d   1     -19.979  -6.024   1.119  0.00  0.00     0.028 H 
ATOM    234  H13 LEU d   1     -19.327  -4.949  -0.164  0.00  0.00     0.028 H 
ENDBRANCH 225 231
ENDBRANCH 222 225
ENDBRANCH 216 222
ENDBRANCH 213 216
ENDBRANCH 210 212
BRANCH 210 235
ATOM    235  CB  PHE d   1     -20.731  -6.626   8.351  0.00  0.00    -0.014 C 
ATOM    236  H16 PHE d   1     -19.641  -6.768   8.381  0.00  0.00     0.043 H 
ATOM    237  H17 PHE d   1     -21.195  -7.463   7.809  0.00  0.00     0.043 H 
BRANCH 235 238
ATOM    238  CG  PHE d   1     -21.252  -6.632   9.775  0.00  0.00    -0.056 A 
ATOM    239  CD1 PHE d   1     -20.485  -6.085  10.824  0.00  0.00    -0.077 A 
ATOM    240  CE1 PHE d   1     -20.994  -6.075  12.136  0.00  0.00    -0.082 A 
ATOM    241  H18 PHE d   1     -19.504  -5.672  10.620  0.00  0.00     0.084 H 
ATOM    242  CZ  PHE d   1     -22.261  -6.623  12.406  0.00  0.00    -0.083 A 
ATOM    243  H20 PHE d   1     -20.409  -5.644  12.940  0.00  0.00     0.083 H 
ATOM    244  CE2 PHE d   1     -23.020  -7.183  11.363  0.00  0.00    -0.082 A 
ATOM    245  H22 PHE d   1     -22.652  -6.614  13.417  0.00  0.00     0.083 H 
ATOM    246  CD2 PHE d   1     -22.518  -7.182  10.050  0.00  0.00    -0.077 A 
ATOM    247  H21 PHE d   1     -23.992  -7.615  11.572  0.00  0.00     0.083 H 
ATOM    248  H19 PHE d   1     -23.108  -7.606   9.246  0.00  0.00     0.084 H 
ENDBRANCH 235 238
ENDBRANCH 210 235
ENDBRANCH 207 210
ENDBRANCH 204 206
BRANCH 204 249
ATOM    249  CB  ARG d   1     -21.017  -0.841   9.480  0.00  0.00    -0.036 C 
ATOM    250  H25 ARG d   1     -20.605  -0.133  10.214  0.00  0.00     0.036 H 
ATOM    251  H26 ARG d   1     -22.026  -1.149   9.793  0.00  0.00     0.036 H 
BRANCH 249 252
ATOM    252  CG  ARG d   1     -21.143  -0.107   8.134  0.00  0.00    -0.048 C 
ATOM    253  H27 ARG d   1     -20.132   0.025   7.721  0.00  0.00     0.035 H 
ATOM    254  H28 ARG d   1     -21.594   0.878   8.323  0.00  0.00     0.035 H 
BRANCH 252 255
ATOM    255  CD  ARG d   1     -21.997  -0.828   7.082  0.00  0.00     0.009 C 
ATOM    256  H29 ARG d   1     -22.961  -1.110   7.531  0.00  0.00     0.064 H 
ATOM    257  H30 ARG d   1     -21.469  -1.733   6.747  0.00  0.00     0.064 H 
BRANCH 255 258
ATOM    258  NE  ARG d   1     -22.242   0.048   5.920  0.00  0.00    -0.227 N 
ATOM    259  CZ  ARG d   1     -22.962  -0.247   4.845  0.00  0.00     0.665 C 
ATOM    260  NH1 ARG d   1     -23.453  -1.452   4.639  0.00  0.00    -0.235 N 
ATOM    261  NH2 ARG d   1     -23.198   0.685   3.947  0.00  0.00    -0.235 N 
ATOM    262  H32 ARG d   1     -24.008  -1.644   3.793  0.00  0.00     0.174 HD
ATOM    263  H33 ARG d   1     -23.282  -2.202   5.324  0.00  0.00     0.174 HD
ATOM    264  H34 ARG d   1     -22.826   1.636   4.082  0.00  0.00     0.174 HD
ATOM    265  H35 ARG d   1     -23.754   0.464   3.109  0.00  0.00     0.174 HD
ATOM    266  H31 ARG d   1     -21.811   0.983   5.946  0.00  0.00     0.177 HD
ENDBRANCH 255 258
ENDBRANCH 252 255
ENDBRANCH 249 252
ENDBRANCH 204 249
ENDBRANCH 201 204
ENDBRANCH 198 200
BRANCH 198 267
ATOM    267  CB  LEU d   1     -16.488  -3.544  12.393  0.00  0.00    -0.035 C 
ATOM    268  H38 LEU d   1     -16.001  -3.456  13.375  0.00  0.00     0.037 H 
ATOM    269  H39 LEU d   1     -15.940  -2.938  11.656  0.00  0.00     0.037 H 
BRANCH 267 270
ATOM    270  CG  LEU d   1     -16.410  -5.011  11.954  0.00  0.00    -0.059 C 
ATOM    271  H40 LEU d   1     -16.964  -5.138  11.012  0.00  0.00     0.038 H 
BRANCH 270 272
ATOM    272  CD1 LEU d   1     -14.938  -5.372  11.751  0.00  0.00    -0.073 C 
ATOM    273  H41 LEU d   1     -14.858  -6.423  11.435  0.00  0.00     0.028 H 
ATOM    274  H42 LEU d   1     -14.392  -5.231  12.695  0.00  0.00     0.028 H 
ATOM    275  H43 LEU d   1     -14.505  -4.722  10.976  0.00  0.00     0.028 H 
ENDBRANCH 270 272
BRANCH 270 276
ATOM    276  CD2 LEU d   1     -16.983  -5.956  13.011  0.00  0.00    -0.073 C 
ATOM    277  H44 LEU d   1     -18.044  -5.719  13.178  0.00  0.00     0.028 H 
ATOM    278  H45 LEU d   1     -16.427  -5.833  13.952  0.00  0.00     0.028 H 
ATOM    279  H46 LEU d   1     -16.890  -6.995  12.663  0.00  0.00     0.028 H 
ENDBRANCH 270 276
ENDBRANCH 267 270
ENDBRANCH 198 267
ENDBRANCH 195 198
ENDBRANCH 192 194
BRANCH 192 280
ATOM    280  CB  ARG d   1     -18.467  -1.750  17.143  0.00  0.00    -0.036 C 
ATOM    281  H49 ARG d   1     -18.435  -1.012  17.958  0.00  0.00     0.036 H 
ATOM    282  H50 ARG d   1     -17.823  -2.604  17.397  0.00  0.00     0.036 H 
BRANCH 280 283
ATOM    283  CG  ARG d   1     -19.913  -2.255  16.998  0.00  0.00    -0.048 C 
ATOM    284  H51 ARG d   1     -19.941  -3.042  16.230  0.00  0.00     0.035 H 
ATOM    285  H52 ARG d   1     -20.555  -1.417  16.688  0.00  0.00     0.035 H 
BRANCH 283 286
ATOM    286  CD  ARG d   1     -20.445  -2.828  18.318  0.00  0.00     0.009 C 
ATOM    287  H53 ARG d   1     -21.518  -3.042  18.205  0.00  0.00     0.064 H 
ATOM    288  H54 ARG d   1     -20.302  -2.081  19.112  0.00  0.00     0.064 H 
BRANCH 286 289
ATOM    289  NE  ARG d   1     -19.750  -4.072  18.704  0.00  0.00    -0.227 N 
ATOM    290  CZ  ARG d   1     -19.613  -4.553  19.934  0.00  0.00     0.665 C 
ATOM    291  NH1 ARG d   1     -20.034  -3.901  20.999  0.00  0.00    -0.235 N 
ATOM    292  NH2 ARG d   1     -19.046  -5.725  20.109  0.00  0.00    -0.235 N 
ATOM    293  H56 ARG d   1     -19.908  -4.310  21.936  0.00  0.00     0.174 HD
ATOM    294  H57 ARG d   1     -20.489  -2.983  20.894  0.00  0.00     0.174 HD
ATOM    295  H58 ARG d   1     -18.706  -6.259  19.297  0.00  0.00     0.174 HD
ATOM    296  H59 ARG d   1     -18.941  -6.110  21.059  0.00  0.00     0.174 HD
ATOM    297  H55 ARG d   1     -19.329  -4.622  17.942  0.00  0.00     0.177 HD
ENDBRANCH 286 289
ENDBRANCH 283 286
ENDBRANCH 280 283
ENDBRANCH 192 280
ENDBRANCH 189 192
ENDBRANCH 186 188
BRANCH 186 298
ATOM    298  CB  HIS d   1     -13.719  -1.063  17.550  0.00  0.00     0.004 C 
ATOM    299  H62 HIS d   1     -14.565  -0.683  18.142  0.00  0.00     0.046 H 
ATOM    300  H63 HIS d   1     -12.821  -0.468  17.771  0.00  0.00     0.046 H 
BRANCH 298 301
ATOM    301  CG  HIS d   1     -13.455  -2.488  17.964  0.00  0.00     0.053 A 
ATOM    302  ND1 HIS d   1     -12.200  -3.000  18.299  0.00  0.00    -0.247 NA
ATOM    303  CE1 HIS d   1     -12.394  -4.304  18.552  0.00  0.00     0.064 A 
ATOM    304  NE2 HIS d   1     -13.690  -4.631  18.395  0.00  0.00    -0.359 N 
ATOM    305  H65 HIS d   1     -11.610  -5.001  18.844  0.00  0.00     0.143 H 
ATOM    306  CD2 HIS d   1     -14.374  -3.494  18.023  0.00  0.00     0.002 A 
ATOM    307  H66 HIS d   1     -14.099  -5.567  18.529  0.00  0.00     0.166 HD
ATOM    308  H64 HIS d   1     -15.440  -3.414  17.816  0.00  0.00     0.114 H 
ENDBRANCH 298 301
ENDBRANCH 186 298
ENDBRANCH 183 186
ENDBRANCH 180 182
BRANCH 180 309
ATOM    309  CB  PHE d   1      -9.725  -1.023  13.906  0.00  0.00    -0.014 C 
ATOM    310  H69 PHE d   1      -9.007  -1.052  14.739  0.00  0.00     0.043 H 
ATOM    311  H70 PHE d   1     -10.153  -0.013  13.825  0.00  0.00     0.043 H 
BRANCH 309 312
ATOM    312  CG  PHE d   1      -8.984  -1.334  12.624  0.00  0.00    -0.056 A 
ATOM    313  CD1 PHE d   1      -9.697  -1.414  11.414  0.00  0.00    -0.077 A 
ATOM    314  CE1 PHE d   1      -9.037  -1.750  10.227  0.00  0.00    -0.082 A 
ATOM    315  H71 PHE d   1     -10.762  -1.214  11.401  0.00  0.00     0.084 H 
ATOM    316  CZ  PHE d   1      -7.651  -1.964  10.230  0.00  0.00    -0.083 A 
ATOM    317  H73 PHE d   1      -9.598  -1.845   9.304  0.00  0.00     0.083 H 
ATOM    318  CE2 PHE d   1      -6.926  -1.845  11.427  0.00  0.00    -0.082 A 
ATOM    319  H75 PHE d   1      -7.140  -2.221   9.309  0.00  0.00     0.083 H 
ATOM    320  CD2 PHE d   1      -7.592  -1.536  12.624  0.00  0.00    -0.077 A 
ATOM    321  H74 PHE d   1      -5.852  -1.992  11.427  0.00  0.00     0.083 H 
ATOM    322  H72 PHE d   1      -7.033  -1.453  13.549  0.00  0.00     0.084 H 
ENDBRANCH 309 312
ENDBRANCH 180 309
ENDBRANCH 168 180
ENDBRANCH   1 166
TORSDOF 83
