REMARK WARNING: 32 MAX_TORS EXCEEDED!!!
REMARK  72 active torsions:
REMARK  status: ('A' for Active; 'I' for Inactive)
REMARK    1  A    between atoms: CA_2  and  N_1 
REMARK    2  A    between atoms: C_3  and  CA_2 
REMARK       I    between atoms: N_5  and  C_3 
REMARK    3  A    between atoms: CA_6  and  N_5 
REMARK    4  A    between atoms: C_7  and  CA_6 
REMARK    5  A    between atoms: CA_6  and  CB_9 
REMARK       I    between atoms: N_13  and  C_7 
REMARK    6  A    between atoms: CB_9  and  CG_10 
REMARK    7  A    between atoms: CG_10  and  CD1_11 
REMARK    8  A    between atoms: CG_10  and  CD2_12 
REMARK    9  A    between atoms: CA_14  and  N_13 
REMARK   10  A    between atoms: C_15  and  CA_14 
REMARK       I    between atoms: N_17  and  C_15 
REMARK   11  A    between atoms: CA_18  and  N_17 
REMARK   12  A    between atoms: C_19  and  CA_18 
REMARK   13  A    between atoms: CA_18  and  CB_21 
REMARK       I    between atoms: N_26  and  C_19 
REMARK   14  A    between atoms: CB_21  and  CG_22 
REMARK   15  A    between atoms: CG_22  and  CD_23 
REMARK   16  A    between atoms: CD_23  and  CE_24 
REMARK   17  A    between atoms: CE_24  and  NZ_25 
REMARK   18  A    between atoms: CA_27  and  N_26 
REMARK   19  A    between atoms: C_28  and  CA_27 
REMARK       I    between atoms: N_30  and  C_28 
REMARK   20  A    between atoms: CA_31  and  N_30 
REMARK   21  A    between atoms: C_32  and  CA_31 
REMARK       I    between atoms: N_34  and  C_32 
REMARK   22  A    between atoms: CA_35  and  N_34 
REMARK   23  A    between atoms: C_36  and  CA_35 
REMARK   24  A    between atoms: CA_35  and  CB_38 
REMARK       I    between atoms: N_48  and  C_36 
REMARK   25  A    between atoms: CH_40  and  CH3_41 
REMARK       I    between atoms: NZ_42  and  CH_40 
REMARK   26  A    between atoms: CE_43  and  NZ_42 
REMARK   27  A    between atoms: CD_44  and  CE_43 
REMARK   28  A    between atoms: CG_45  and  CD_44 
REMARK   29  A    between atoms: CB_46  and  CG_45 
REMARK   30  A    between atoms: CA_47  and  CB_46 
REMARK   31  A    between atoms: CA_47  and  N_48 
REMARK   32  A    between atoms: CA_47  and  C_49 
REMARK       I    between atoms: C_49  and  N_51 
REMARK   33  A    between atoms: N_51  and  CA_52 
REMARK   34  A    between atoms: CA_52  and  C_53 
REMARK   35  A    between atoms: CA_52  and  CB_55 
REMARK       I    between atoms: C_53  and  N_62 
REMARK   36  A    between atoms: CB_55  and  CG_56 
REMARK   37  A    between atoms: CG_56  and  CD_57 
REMARK   38  A    between atoms: CD_57  and  NE_58 
REMARK       I    between atoms: NE_58  and  CZ_59 
REMARK       I    between atoms: CZ_59  and  NH1_60 
REMARK       I    between atoms: CZ_59  and  NH2_61 
REMARK   39  A    between atoms: N_62  and  CA_63 
REMARK   40  A    between atoms: CA_63  and  C_64 
REMARK   41  A    between atoms: CA_63  and  CB_66 
REMARK       I    between atoms: C_64  and  N_72 
REMARK   42  A    between atoms: CB_66  and  CG_67 
REMARK   43  A    between atoms: N_72  and  CA_73 
REMARK   44  A    between atoms: CA_73  and  C_74 
REMARK   45  A    between atoms: CA_73  and  CB_76 
REMARK       I    between atoms: C_74  and  N_83 
REMARK   46  A    between atoms: CB_76  and  CG_77 
REMARK   47  A    between atoms: CG_77  and  CD_78 
REMARK   48  A    between atoms: CD_78  and  NE_79 
REMARK       I    between atoms: NE_79  and  CZ_80 
REMARK       I    between atoms: CZ_80  and  NH1_81 
REMARK       I    between atoms: CZ_80  and  NH2_82 
REMARK   49  A    between atoms: N_83  and  CA_84 
REMARK   50  A    between atoms: CA_84  and  C_85 
REMARK   51  A    between atoms: CA_84  and  CB_87 
REMARK       I    between atoms: C_85  and  N_92 
REMARK   52  A    between atoms: CB_87  and  CG_88 
REMARK   53  A    between atoms: CG_88  and  CD_89 
REMARK   54  A    between atoms: CD_89  and  CE_90 
REMARK   55  A    between atoms: CE_90  and  NZ_91 
REMARK   56  A    between atoms: N_92  and  CA_93 
REMARK   57  A    between atoms: CA_93  and  C_94 
REMARK   58  A    between atoms: CA_93  and  CB_96 
REMARK       I    between atoms: C_94  and  N_99 
REMARK   59  A    between atoms: CB_96  and  CG1_97 
REMARK   60  A    between atoms: CB_96  and  CG2_98 
REMARK   61  A    between atoms: N_99  and  CA_100 
REMARK   62  A    between atoms: CA_100  and  C_101 
REMARK   63  A    between atoms: CA_100  and  CB_103 
REMARK       I    between atoms: C_101  and  N_107 
REMARK   64  A    between atoms: CB_103  and  CG_104 
REMARK   65  A    between atoms: CG_104  and  CD1_105 
REMARK   66  A    between atoms: CG_104  and  CD2_106 
REMARK   67  A    between atoms: N_107  and  CA_108 
REMARK   68  A    between atoms: CA_108  and  C_109 
REMARK   69  A    between atoms: CA_108  and  CB_111 
REMARK   70  A    between atoms: CB_111  and  CG_112 
REMARK   71  A    between atoms: CG_112  and  CD_113 
REMARK   72  A    between atoms: CD_113  and  NE_114 
REMARK       I    between atoms: NE_114  and  CZ_115 
REMARK       I    between atoms: CZ_115  and  NH1_116 
ROOT
ATOM      1  CA  ARG d   1      -2.585  -3.932   5.247  0.00  0.00     0.089 C 
ATOM      2  H59 ARG d   1      -2.979  -3.047   4.726  0.00  0.00     0.087 H 
ENDROOT
BRANCH   1   3
ATOM      3  N   ARG d   1      -3.671  -4.540   6.013  0.00  0.00    -0.346 N 
ATOM      4  C   ALY d   1      -3.499  -5.672   6.695  0.00  0.00     0.241 C 
ATOM      5  O   ALY d   1      -2.423  -6.270   6.743  0.00  0.00    -0.271 OA
ATOM      6  H58 ARG d   1      -4.566  -4.095   6.026  0.00  0.00     0.163 HD
BRANCH   4   7
ATOM      7  CA  ALY d   1      -4.717  -6.212   7.437  0.00  0.00     0.089 C 
ATOM      8  H56 ALY d   1      -4.373  -6.960   8.167  0.00  0.00     0.087 H 
BRANCH   7   9
ATOM      9  CB  ALY d   1      -5.667  -6.901   6.448  0.00  0.00    -0.038 C 
ATOM     10  H54 ALY d   1      -5.115  -7.708   5.944  0.00  0.00     0.036 H 
ATOM     11  H55 ALY d   1      -6.505  -7.330   7.016  0.00  0.00     0.036 H 
BRANCH   9  12
ATOM     12  CG  ALY d   1      -6.236  -5.974   5.383  0.00  0.00    -0.061 C 
ATOM     13  H52 ALY d   1      -7.334  -5.979   5.456  0.00  0.00     0.033 H 
ATOM     14  H53 ALY d   1      -5.861  -4.955   5.560  0.00  0.00     0.033 H 
BRANCH  12  15
ATOM     15  CD  ALY d   1      -5.832  -6.412   3.981  0.00  0.00    -0.050 C 
ATOM     16  H50 ALY d   1      -4.746  -6.283   3.864  0.00  0.00     0.035 H 
ATOM     17  H51 ALY d   1      -6.092  -7.473   3.848  0.00  0.00     0.035 H 
BRANCH  15  18
ATOM     18  CE  ALY d   1      -6.546  -5.590   2.918  0.00  0.00    -0.005 C 
ATOM     19  H48 ALY d   1      -7.630  -5.661   3.088  0.00  0.00     0.064 H 
ATOM     20  H49 ALY d   1      -6.228  -4.541   3.012  0.00  0.00     0.064 H 
BRANCH  18  21
ATOM     21  NZ  ALY d   1      -6.255  -6.046   1.565  0.00  0.00    -0.361 N 
ATOM     22  CH  ALY d   1      -5.519  -5.326   0.726  0.00  0.00     0.213 C 
ATOM     23  OH  ALY d   1      -4.695  -4.511   1.142  0.00  0.00    -0.274 OA
ATOM     24  H47 ALY d   1      -6.620  -6.926   1.260  0.00  0.00     0.162 HD
BRANCH  22  25
ATOM     25  CH3 ALY d   1      -6.015  -5.171  -0.714  0.00  0.00    -0.003 C 
ATOM     26  H44 ALY d   1      -6.741  -5.966  -0.939  0.00  0.00     0.040 H 
ATOM     27  H45 ALY d   1      -5.163  -5.246  -1.405  0.00  0.00     0.040 H 
ATOM     28  H46 ALY d   1      -6.497  -4.189  -0.832  0.00  0.00     0.040 H 
ENDBRANCH  22  25
ENDBRANCH  18  21
ENDBRANCH  15  18
ENDBRANCH  12  15
ENDBRANCH   9  12
ENDBRANCH   7   9
BRANCH   7  29
ATOM     29  N   ALY d   1      -5.407  -5.150   8.165  0.00  0.00    -0.346 N 
ATOM     30  C   ALA d   1      -6.407  -5.416   9.004  0.00  0.00     0.240 C 
ATOM     31  O   ALA d   1      -6.817  -6.557   9.218  0.00  0.00    -0.271 OA
ATOM     32  H57 ALY d   1      -5.122  -4.201   8.030  0.00  0.00     0.163 HD
BRANCH  30  33
ATOM     33  CA  ALA d   1      -7.039  -4.218   9.709  0.00  0.00     0.086 C 
ATOM     34  H40 ALA d   1      -8.083  -4.471   9.946  0.00  0.00     0.086 H 
BRANCH  33  35
ATOM     35  N   ALA d   1      -6.347  -3.922  10.958  0.00  0.00    -0.347 N 
ATOM     36  C   GLY d   1      -6.999  -3.477  12.028  0.00  0.00     0.236 C 
ATOM     37  O   GLY d   1      -8.214  -3.284  12.043  0.00  0.00    -0.272 OA
ATOM     38  H39 ALA d   1      -5.358  -4.057  11.011  0.00  0.00     0.163 HD
BRANCH  36  39
ATOM     39  CA  GLY d   1      -6.159  -3.209  13.263  0.00  0.00     0.069 C 
ATOM     40  H37 GLY d   1      -5.922  -2.135  13.302  0.00  0.00     0.078 H 
ATOM     41  H38 GLY d   1      -6.741  -3.489  14.153  0.00  0.00     0.078 H 
BRANCH  39  42
ATOM     42  N   GLY d   1      -4.917  -3.960  13.264  0.00  0.00    -0.351 N 
ATOM     43  C   GLY d   1      -4.925  -5.289  13.307  0.00  0.00     0.235 C 
ATOM     44  O   GLY d   1      -5.962  -5.954  13.342  0.00  0.00    -0.272 OA
ATOM     45  H36 GLY d   1      -4.045  -3.472  13.232  0.00  0.00     0.163 HD
BRANCH  43  46
ATOM     46  CA  GLY d   1      -3.569  -5.970  13.303  0.00  0.00     0.069 C 
ATOM     47  H34 GLY d   1      -3.596  -6.802  12.584  0.00  0.00     0.078 H 
ATOM     48  H35 GLY d   1      -2.809  -5.239  12.989  0.00  0.00     0.078 H 
BRANCH  46  49
ATOM     49  N   GLY d   1      -3.199  -6.494  14.607  0.00  0.00    -0.351 N 
ATOM     50  C   LYS d   1      -3.917  -7.455  15.184  0.00  0.00     0.240 C 
ATOM     51  O   LYS d   1      -4.916  -7.950  14.663  0.00  0.00    -0.271 OA
ATOM     52  H33 GLY d   1      -2.395  -6.128  15.076  0.00  0.00     0.163 HD
BRANCH  50  53
ATOM     53  CA  LYS d   1      -3.435  -7.934  16.551  0.00  0.00     0.089 C 
ATOM     54  H21 LYS d   1      -3.956  -8.872  16.793  0.00  0.00     0.087 H 
BRANCH  53  55
ATOM     55  N   LYS d   1      -2.000  -8.196  16.535  0.00  0.00    -0.346 N 
ATOM     56  C   GLY d   1      -1.489  -9.237  15.885  0.00  0.00     0.236 C 
ATOM     57  O   GLY d   1      -2.180 -10.043  15.261  0.00  0.00    -0.272 OA
ATOM     58  H20 LYS d   1      -1.386  -7.577  17.025  0.00  0.00     0.163 HD
BRANCH  56  59
ATOM     59  CA  GLY d   1       0.017  -9.396  15.946  0.00  0.00     0.069 C 
ATOM     60  H18 GLY d   1       0.264 -10.462  15.834  0.00  0.00     0.078 H 
ATOM     61  H19 GLY d   1       0.465  -8.827  15.118  0.00  0.00     0.078 H 
BRANCH  59  62
ATOM     62  N   GLY d   1       0.578  -8.917  17.197  0.00  0.00    -0.351 N 
ATOM     63  C   LEU d   1       1.153  -7.720  17.272  0.00  0.00     0.240 C 
ATOM     64  O   LEU d   1       1.244  -6.957  16.309  0.00  0.00    -0.271 OA
ATOM     65  H17 GLY d   1       0.531  -9.494  18.012  0.00  0.00     0.163 HD
BRANCH  63  66
ATOM     66  CA  LEU d   1       1.707  -7.325  18.637  0.00  0.00     0.089 C 
ATOM     67  H7  LEU d   1       2.176  -8.209  19.093  0.00  0.00     0.087 H 
BRANCH  66  68
ATOM     68  N   LEU d   1       2.718  -6.281  18.508  0.00  0.00    -0.346 N 
ATOM     69  C   GLY d   1       4.015  -6.569  18.437  0.00  0.00     0.243 C 
ATOM     70  O   GLY d   1       4.448  -7.721  18.475  0.00  0.00    -0.272 OA
ATOM     71  H6  LEU d   1       2.429  -5.324  18.472  0.00  0.00     0.163 HD
BRANCH  69  72
ATOM     72  CA  GLY d   1       4.961  -5.392  18.305  0.00  0.00     0.152 C 
ATOM     73  H4  GLY d   1       5.497  -5.262  19.257  0.00  0.00     0.090 H 
ATOM     74  H5  GLY d   1       5.683  -5.609  17.504  0.00  0.00     0.090 H 
BRANCH  72  75
ATOM     75  N   GLY d   1       4.253  -4.123  17.979  0.00  0.00    -0.071 N 
ATOM     76  H1  GLY d   1       4.923  -3.374  17.902  0.00  0.00     0.274 HD
ATOM     77  H2  GLY d   1       3.593  -3.909  18.710  0.00  0.00     0.274 HD
ATOM     78  H3  GLY d   1       3.764  -4.226  17.104  0.00  0.00     0.274 HD
ENDBRANCH  72  75
ENDBRANCH  69  72
ENDBRANCH  66  68
BRANCH  66  79
ATOM     79  CB  LEU d   1       0.568  -6.853  19.544  0.00  0.00    -0.035 C 
ATOM     80  H8  LEU d   1      -0.194  -7.646  19.574  0.00  0.00     0.037 H 
ATOM     81  H9  LEU d   1       0.134  -5.945  19.101  0.00  0.00     0.037 H 
BRANCH  79  82
ATOM     82  CG  LEU d   1       0.972  -6.530  20.984  0.00  0.00    -0.059 C 
ATOM     83  H10 LEU d   1       1.767  -5.770  20.960  0.00  0.00     0.038 H 
BRANCH  82  84
ATOM     84  CD1 LEU d   1      -0.211  -5.964  21.754  0.00  0.00    -0.073 C 
ATOM     85  H11 LEU d   1       0.097  -5.738  22.785  0.00  0.00     0.028 H 
ATOM     86  H12 LEU d   1      -1.026  -6.702  21.768  0.00  0.00     0.028 H 
ATOM     87  H13 LEU d   1      -0.560  -5.042  21.265  0.00  0.00     0.028 H 
ENDBRANCH  82  84
BRANCH  82  88
ATOM     88  CD2 LEU d   1       1.515  -7.771  21.679  0.00  0.00    -0.073 C 
ATOM     89  H14 LEU d   1       2.369  -8.166  21.109  0.00  0.00     0.028 H 
ATOM     90  H15 LEU d   1       0.726  -8.535  21.734  0.00  0.00     0.028 H 
ATOM     91  H16 LEU d   1       1.843  -7.508  22.696  0.00  0.00     0.028 H 
ENDBRANCH  82  88
ENDBRANCH  79  82
ENDBRANCH  66  79
ENDBRANCH  63  66
ENDBRANCH  59  62
ENDBRANCH  56  59
ENDBRANCH  53  55
BRANCH  53  92
ATOM     92  CB  LYS d   1      -3.775  -6.899  17.627  0.00  0.00    -0.038 C 
ATOM     93  H22 LYS d   1      -3.597  -7.353  18.613  0.00  0.00     0.036 H 
ATOM     94  H23 LYS d   1      -4.839  -6.636  17.531  0.00  0.00     0.036 H 
BRANCH  92  95
ATOM     95  CG  LYS d   1      -2.956  -5.622  17.533  0.00  0.00    -0.061 C 
ATOM     96  H24 LYS d   1      -3.167  -5.132  16.571  0.00  0.00     0.033 H 
ATOM     97  H25 LYS d   1      -1.887  -5.878  17.588  0.00  0.00     0.033 H 
BRANCH  95  98
ATOM     98  CD  LYS d   1      -3.293  -4.660  18.662  0.00  0.00    -0.043 C 
ATOM     99  H26 LYS d   1      -3.077  -5.149  19.624  0.00  0.00     0.035 H 
ATOM    100  H27 LYS d   1      -4.363  -4.409  18.610  0.00  0.00     0.035 H 
BRANCH  98 101
ATOM    101  CE  LYS d   1      -2.481  -3.379  18.567  0.00  0.00     0.080 C 
ATOM    102  H28 LYS d   1      -2.788  -2.703  19.379  0.00  0.00     0.075 H 
ATOM    103  H29 LYS d   1      -2.683  -2.902  17.597  0.00  0.00     0.075 H 
BRANCH 101 104
ATOM    104  NZ  LYS d   1      -1.019  -3.636  18.682  0.00  0.00    -0.079 N 
ATOM    105  H30 LYS d   1      -0.518  -2.764  18.614  0.00  0.00     0.274 HD
ATOM    106  H31 LYS d   1      -0.726  -4.250  17.938  0.00  0.00     0.274 HD
ATOM    107  H32 LYS d   1      -0.823  -4.068  19.571  0.00  0.00     0.274 HD
ENDBRANCH 101 104
ENDBRANCH  98 101
ENDBRANCH  95  98
ENDBRANCH  92  95
ENDBRANCH  53  92
ENDBRANCH  50  53
ENDBRANCH  46  49
ENDBRANCH  43  46
ENDBRANCH  39  42
ENDBRANCH  36  39
ENDBRANCH  33  35
BRANCH  33 108
ATOM    108  CB  ALA d   1      -7.037  -2.998   8.800  0.00  0.00    -0.049 C 
ATOM    109  H41 ALA d   1      -7.562  -3.238   7.864  0.00  0.00     0.030 H 
ATOM    110  H42 ALA d   1      -6.000  -2.710   8.575  0.00  0.00     0.030 H 
ATOM    111  H43 ALA d   1      -7.548  -2.164   9.304  0.00  0.00     0.030 H 
ENDBRANCH  33 108
ENDBRANCH  30  33
ENDBRANCH   7  29
ENDBRANCH   4   7
ENDBRANCH   1   3
BRANCH   1 112
ATOM    112  C   ARG d   1      -2.054  -4.913   4.208  0.00  0.00     0.241 C 
ATOM    113  O   ARG d   1      -2.451  -6.079   4.170  0.00  0.00    -0.271 OA
ATOM    114  N   HIS d   1      -1.178  -4.421   3.354  0.00  0.00    -0.346 N 
ATOM    115  H71 HIS d   1      -0.932  -3.454   3.422  0.00  0.00     0.163 HD
BRANCH 114 116
ATOM    116  CA  HIS d   1      -0.559  -5.226   2.322  0.00  0.00     0.094 C 
ATOM    117  H72 HIS d   1      -1.344  -5.661   1.686  0.00  0.00     0.088 H 
BRANCH 116 118
ATOM    118  C   HIS d   1       0.267  -6.367   2.935  0.00  0.00     0.241 C 
ATOM    119  O   HIS d   1      -0.162  -7.009   3.895  0.00  0.00    -0.271 OA
ATOM    120  N   ARG d   1       1.441  -6.620   2.346  0.00  0.00    -0.346 N 
ATOM    121  H78 ARG d   1       1.697  -6.076   1.547  0.00  0.00     0.163 HD
BRANCH 120 122
ATOM    122  CA  ARG d   1       2.372  -7.653   2.810  0.00  0.00     0.089 C 
ATOM    123  H79 ARG d   1       3.366  -7.389   2.418  0.00  0.00     0.087 H 
BRANCH 122 124
ATOM    124  C   ARG d   1       2.053  -9.058   2.297  0.00  0.00     0.241 C 
ATOM    125  O   ARG d   1       2.948  -9.896   2.218  0.00  0.00    -0.271 OA
ATOM    126  N   LYS d   1       0.795  -9.308   1.959  0.00  0.00    -0.346 N 
ATOM    127  H91 LYS d   1       0.115  -8.584   2.071  0.00  0.00     0.163 HD
BRANCH 126 128
ATOM    128  CA  LYS d   1       0.362 -10.607   1.427  0.00  0.00     0.089 C 
ATOM    129  H92 LYS d   1      -0.733 -10.652   1.527  0.00  0.00     0.087 H 
BRANCH 128 130
ATOM    130  C   LYS d   1       0.938 -11.793   2.209  0.00  0.00     0.241 C 
ATOM    131  O   LYS d   1       2.105 -12.159   2.060  0.00  0.00    -0.271 OA
ATOM    132  N   VAL d   1       0.099 -12.397   3.043  0.00  0.00    -0.346 N 
ATOM    133 4H10 VAL d   1      -0.836 -12.053   3.128  0.00  0.00     0.163 HD
BRANCH 132 134
ATOM    134  CA  VAL d   1       0.507 -13.549   3.837  0.00  0.00     0.092 C 
ATOM    135 5H10 VAL d   1       1.597 -13.663   3.739  0.00  0.00     0.088 H 
BRANCH 134 136
ATOM    136  C   VAL d   1      -0.158 -14.823   3.311  0.00  0.00     0.241 C 
ATOM    137  O   VAL d   1      -1.163 -15.289   3.850  0.00  0.00    -0.271 OA
ATOM    138  N   LEU d   1       0.413 -15.376   2.243  0.00  0.00    -0.346 N 
ATOM    139 3H11 LEU d   1       1.229 -14.949   1.853  0.00  0.00     0.163 HD
BRANCH 138 140
ATOM    140  CA  LEU d   1      -0.118 -16.588   1.624  0.00  0.00     0.089 C 
ATOM    141 4H11 LEU d   1       0.489 -16.817   0.736  0.00  0.00     0.087 H 
BRANCH 140 142
ATOM    142  C   LEU d   1      -1.563 -16.378   1.179  0.00  0.00     0.241 C 
ATOM    143  O   LEU d   1      -2.499 -16.635   1.936  0.00  0.00    -0.271 OA
ATOM    144  N   ARG d   1      -1.731 -15.910  -0.057  0.00  0.00    -0.345 N 
ATOM    145 4H12 ARG d   1      -0.925 -15.729  -0.621  0.00  0.00     0.163 HD
BRANCH 144 146
ATOM    146  CA  ARG d   1      -3.057 -15.654  -0.614  0.00  0.00     0.096 C 
ATOM    147 5H12 ARG d   1      -2.932 -15.234  -1.623  0.00  0.00     0.089 H 
BRANCH 146 148
ATOM    148  C   ARG d   1      -3.820 -14.643   0.237  0.00  0.00     0.196 C 
ATOM    149  O   ARG d   1      -4.543 -15.071   1.161  0.00  0.00    -0.646 OA
ATOM    150  OXT ARG d   1      -3.685 -13.429  -0.027  0.00  0.00    -0.646 OA
ENDBRANCH 146 148
BRANCH 146 151
ATOM    151  CB  ARG d   1      -3.858 -16.954  -0.726  0.00  0.00    -0.035 C 
ATOM    152 6H12 ARG d   1      -4.891 -16.702  -1.009  0.00  0.00     0.036 H 
ATOM    153 7H12 ARG d   1      -3.857 -17.448   0.257  0.00  0.00     0.036 H 
BRANCH 151 154
ATOM    154  CG  ARG d   1      -3.303 -17.927  -1.753  0.00  0.00    -0.047 C 
ATOM    155 8H12 ARG d   1      -2.296 -18.241  -1.441  0.00  0.00     0.035 H 
ATOM    156 9H12 ARG d   1      -3.243 -17.422  -2.728  0.00  0.00     0.035 H 
BRANCH 154 157
ATOM    157  CD  ARG d   1      -4.186 -19.157  -1.886  0.00  0.00     0.009 C 
ATOM    158 0H13 ARG d   1      -3.743 -19.833  -2.632  0.00  0.00     0.064 H 
ATOM    159 1H13 ARG d   1      -5.185 -18.843  -2.223  0.00  0.00     0.064 H 
BRANCH 157 160
ATOM    160  NE  ARG d   1      -4.319 -19.873  -0.621  0.00  0.00    -0.227 N 
ATOM    161  CZ  ARG d   1      -5.214 -20.833  -0.406  0.00  0.00     0.665 C 
ATOM    162  NH1 ARG d   1      -6.051 -21.194  -1.371  0.00  0.00    -0.235 N 
ATOM    163  NH2 ARG d   1      -5.273 -21.433   0.775  0.00  0.00    -0.235 N 
ATOM    164 3H13 ARG d   1      -6.743 -21.938  -1.201  0.00  0.00     0.174 HD
ATOM    165 4H13 ARG d   1      -6.009 -20.730  -2.290  0.00  0.00     0.174 HD
ATOM    166 5H13 ARG d   1      -4.625 -21.156   1.526  0.00  0.00     0.174 HD
ATOM    167 6H13 ARG d   1      -5.966 -22.176   0.941  0.00  0.00     0.174 HD
ATOM    168 2H13 ARG d   1      -3.683 -19.620   0.149  0.00  0.00     0.177 HD
ENDBRANCH 157 160
ENDBRANCH 154 157
ENDBRANCH 151 154
ENDBRANCH 146 151
ENDBRANCH 144 146
ENDBRANCH 140 142
BRANCH 140 169
ATOM    169  CB  LEU d   1      -0.027 -17.772   2.591  0.00  0.00    -0.035 C 
ATOM    170 5H11 LEU d   1      -0.614 -17.525   3.488  0.00  0.00     0.037 H 
ATOM    171 6H11 LEU d   1       1.029 -17.904   2.869  0.00  0.00     0.037 H 
BRANCH 169 172
ATOM    172  CG  LEU d   1      -0.543 -19.105   2.040  0.00  0.00    -0.059 C 
ATOM    173 7H11 LEU d   1      -1.607 -18.987   1.789  0.00  0.00     0.038 H 
BRANCH 172 174
ATOM    174  CD1 LEU d   1       0.208 -19.490   0.774  0.00  0.00    -0.073 C 
ATOM    175 8H11 LEU d   1      -0.178 -20.448   0.396  0.00  0.00     0.028 H 
ATOM    176 9H11 LEU d   1       1.280 -19.590   1.000  0.00  0.00     0.028 H 
ATOM    177 0H12 LEU d   1       0.065 -18.711   0.011  0.00  0.00     0.028 H 
ENDBRANCH 172 174
BRANCH 172 178
ATOM    178  CD2 LEU d   1      -0.415 -20.199   3.088  0.00  0.00    -0.073 C 
ATOM    179 1H12 LEU d   1      -0.963 -19.904   3.995  0.00  0.00     0.028 H 
ATOM    180 2H12 LEU d   1       0.647 -20.349   3.334  0.00  0.00     0.028 H 
ATOM    181 3H12 LEU d   1      -0.836 -21.136   2.694  0.00  0.00     0.028 H 
ENDBRANCH 172 178
ENDBRANCH 169 172
ENDBRANCH 140 169
ENDBRANCH 138 140
ENDBRANCH 134 136
BRANCH 134 182
ATOM    182  CB  VAL d   1       0.179 -13.347   5.334  0.00  0.00    -0.033 C 
ATOM    183 6H10 VAL d   1       0.795 -12.516   5.707  0.00  0.00     0.042 H 
BRANCH 182 184
ATOM    184  CG1 VAL d   1      -1.283 -12.970   5.528  0.00  0.00    -0.071 C 
ATOM    185 7H10 VAL d   1      -1.487 -12.833   6.600  0.00  0.00     0.028 H 
ATOM    186 8H10 VAL d   1      -1.924 -13.772   5.132  0.00  0.00     0.028 H 
ATOM    187 9H10 VAL d   1      -1.494 -12.033   4.992  0.00  0.00     0.028 H 
ENDBRANCH 182 184
BRANCH 182 188
ATOM    188  CG2 VAL d   1       0.532 -14.591   6.139  0.00  0.00    -0.071 C 
ATOM    189 0H11 VAL d   1       1.591 -14.841   5.981  0.00  0.00     0.028 H 
ATOM    190 1H11 VAL d   1      -0.096 -15.432   5.809  0.00  0.00     0.028 H 
ATOM    191 2H11 VAL d   1       0.356 -14.399   7.208  0.00  0.00     0.028 H 
ENDBRANCH 182 188
ENDBRANCH 134 182
ENDBRANCH 132 134
ENDBRANCH 128 130
BRANCH 128 192
ATOM    192  CB  LYS d   1       0.700 -10.721  -0.074  0.00  0.00    -0.038 C 
ATOM    193  H93 LYS d   1       0.351  -9.803  -0.569  0.00  0.00     0.036 H 
ATOM    194  H94 LYS d   1       0.153 -11.586  -0.478  0.00  0.00     0.036 H 
BRANCH 192 195
ATOM    195  CG  LYS d   1       2.169 -10.901  -0.412  0.00  0.00    -0.061 C 
ATOM    196  H95 LYS d   1       2.495 -11.901  -0.090  0.00  0.00     0.033 H 
ATOM    197  H96 LYS d   1       2.759 -10.136   0.114  0.00  0.00     0.033 H 
BRANCH 195 198
ATOM    198  CD  LYS d   1       2.388 -10.760  -1.909  0.00  0.00    -0.043 C 
ATOM    199  H97 LYS d   1       2.062  -9.758  -2.223  0.00  0.00     0.035 H 
ATOM    200  H98 LYS d   1       1.788 -11.521  -2.429  0.00  0.00     0.035 H 
BRANCH 198 201
ATOM    201  CE  LYS d   1       3.843 -10.942  -2.286  0.00  0.00     0.080 C 
ATOM    202  H99 LYS d   1       4.232 -11.838  -1.781  0.00  0.00     0.075 H 
ATOM    203 0H10 LYS d   1       4.410 -10.059  -1.954  0.00  0.00     0.075 H 
BRANCH 201 204
ATOM    204  NZ  LYS d   1       4.019 -11.103  -3.756  0.00  0.00    -0.079 N 
ATOM    205 1H10 LYS d   1       4.998 -11.221  -3.966  0.00  0.00     0.274 HD
ATOM    206 2H10 LYS d   1       3.671 -10.283  -4.228  0.00  0.00     0.274 HD
ATOM    207 3H10 LYS d   1       3.508 -11.914  -4.069  0.00  0.00     0.274 HD
ENDBRANCH 201 204
ENDBRANCH 198 201
ENDBRANCH 195 198
ENDBRANCH 192 195
ENDBRANCH 128 192
ENDBRANCH 126 128
ENDBRANCH 122 124
BRANCH 122 208
ATOM    208  CB  ARG d   1       2.456  -7.634   4.327  0.00  0.00    -0.036 C 
ATOM    209  H80 ARG d   1       1.881  -8.487   4.716  0.00  0.00     0.036 H 
ATOM    210  H81 ARG d   1       2.009  -6.696   4.687  0.00  0.00     0.036 H 
BRANCH 208 211
ATOM    211  CG  ARG d   1       3.873  -7.726   4.866  0.00  0.00    -0.048 C 
ATOM    212  H82 ARG d   1       4.076  -6.842   5.489  0.00  0.00     0.035 H 
ATOM    213  H83 ARG d   1       4.576  -7.748   4.020  0.00  0.00     0.035 H 
BRANCH 211 214
ATOM    214  CD  ARG d   1       4.071  -8.976   5.705  0.00  0.00     0.009 C 
ATOM    215  H84 ARG d   1       3.108  -9.257   6.155  0.00  0.00     0.064 H 
ATOM    216  H85 ARG d   1       4.798  -8.757   6.501  0.00  0.00     0.064 H 
BRANCH 214 217
ATOM    217  NE  ARG d   1       4.565 -10.098   4.912  0.00  0.00    -0.227 N 
ATOM    218  CZ  ARG d   1       5.723 -10.710   5.143  0.00  0.00     0.665 C 
ATOM    219  NH1 ARG d   1       6.515 -10.293   6.124  0.00  0.00    -0.235 N 
ATOM    220  NH2 ARG d   1       6.094 -11.736   4.390  0.00  0.00    -0.235 N 
ATOM    221  H87 ARG d   1       7.411 -10.769   6.300  0.00  0.00     0.174 HD
ATOM    222  H88 ARG d   1       6.233  -9.493   6.709  0.00  0.00     0.174 HD
ATOM    223  H89 ARG d   1       5.483 -12.063   3.628  0.00  0.00     0.174 HD
ATOM    224  H90 ARG d   1       6.993 -12.206   4.567  0.00  0.00     0.174 HD
ATOM    225  H86 ARG d   1       3.985 -10.434   4.130  0.00  0.00     0.177 HD
ENDBRANCH 214 217
ENDBRANCH 211 214
ENDBRANCH 208 211
ENDBRANCH 122 208
ENDBRANCH 120 122
ENDBRANCH 116 118
BRANCH 116 226
ATOM    226  CB  HIS d   1       0.332  -4.322   1.472  0.00  0.00     0.004 C 
ATOM    227  H73 HIS d   1       0.594  -4.860   0.549  0.00  0.00     0.046 H 
ATOM    228  H74 HIS d   1       1.248  -4.102   2.040  0.00  0.00     0.046 H 
BRANCH 226 229
ATOM    229  CG  HIS d   1      -0.313  -3.031   1.099  0.00  0.00     0.053 A 
ATOM    230  ND1 HIS d   1      -0.005  -1.832   1.699  0.00  0.00    -0.247 NA
ATOM    231  CE1 HIS d   1      -0.738  -0.876   1.164  0.00  0.00     0.064 A 
ATOM    232  NE2 HIS d   1      -1.509  -1.411   0.237  0.00  0.00    -0.359 N 
ATOM    233  H76 HIS d   1      -0.712   0.177   1.440  0.00  0.00     0.143 H 
ATOM    234  CD2 HIS d   1      -1.259  -2.759   0.177  0.00  0.00     0.002 A 
ATOM    235  H77 HIS d   1      -2.188  -0.901  -0.346  0.00  0.00     0.166 HD
ATOM    236  H75 HIS d   1      -1.736  -3.475  -0.490  0.00  0.00     0.114 H 
ENDBRANCH 226 229
ENDBRANCH 116 226
ENDBRANCH 114 116
ENDBRANCH   1 112
BRANCH   1 237
ATOM    237  CB  ARG d   1      -1.446  -3.484   6.180  0.00  0.00    -0.036 C 
ATOM    238  H60 ARG d   1      -1.118  -4.358   6.762  0.00  0.00     0.036 H 
ATOM    239  H61 ARG d   1      -1.844  -2.718   6.861  0.00  0.00     0.036 H 
BRANCH 237 240
ATOM    240  CG  ARG d   1      -0.220  -2.898   5.469  0.00  0.00    -0.048 C 
ATOM    241  H62 ARG d   1       0.059  -3.563   4.639  0.00  0.00     0.035 H 
ATOM    242  H63 ARG d   1       0.611  -2.839   6.187  0.00  0.00     0.035 H 
BRANCH 240 243
ATOM    243  CD  ARG d   1      -0.488  -1.503   4.912  0.00  0.00     0.009 C 
ATOM    244  H64 ARG d   1      -1.089  -1.596   3.995  0.00  0.00     0.064 H 
ATOM    245  H65 ARG d   1       0.474  -1.025   4.673  0.00  0.00     0.064 H 
BRANCH 243 246
ATOM    246  NE  ARG d   1      -1.208  -0.662   5.863  0.00  0.00    -0.227 N 
ATOM    247  CZ  ARG d   1      -0.608   0.115   6.761  0.00  0.00     0.665 C 
ATOM    248  NH1 ARG d   1       0.715   0.141   6.841  0.00  0.00    -0.235 N 
ATOM    249  NH2 ARG d   1      -1.333   0.864   7.580  0.00  0.00    -0.235 N 
ATOM    250  H67 ARG d   1       1.177   0.743   7.537  0.00  0.00     0.174 HD
ATOM    251  H68 ARG d   1       1.281  -0.441   6.207  0.00  0.00     0.174 HD
ATOM    252  H69 ARG d   1      -2.361   0.846   7.520  0.00  0.00     0.174 HD
ATOM    253  H70 ARG d   1      -0.868   1.464   8.276  0.00  0.00     0.174 HD
ATOM    254  H66 ARG d   1      -2.238  -0.670   5.838  0.00  0.00     0.177 HD
ENDBRANCH 243 246
ENDBRANCH 240 243
ENDBRANCH 237 240
ENDBRANCH   1 237
TORSDOF 72
