REMARK WARNING: 32 MAX_TORS EXCEEDED!!!
REMARK  80 active torsions:
REMARK  status: ('A' for Active; 'I' for Inactive)
REMARK    1  A    between atoms: N_1  and  CA_2 
REMARK    2  A    between atoms: CA_2  and  C_3 
REMARK       I    between atoms: C_3  and  N_5 
REMARK    3  A    between atoms: N_5  and  CA_6 
REMARK    4  A    between atoms: CA_6  and  C_7 
REMARK    5  A    between atoms: CA_6  and  CB_9 
REMARK       I    between atoms: C_7  and  N_11 
REMARK    6  A    between atoms: CB_9  and  OG_10 
REMARK    7  A    between atoms: N_11  and  CA_12 
REMARK    8  A    between atoms: CA_12  and  C_13 
REMARK    9  A    between atoms: CA_12  and  CB_15 
REMARK       I    between atoms: C_13  and  N_20 
REMARK   10  A    between atoms: CB_15  and  CG_16 
REMARK   11  A    between atoms: CG_16  and  CD_17 
REMARK       I    between atoms: CD_17  and  NE2_19 
REMARK   12  A    between atoms: N_20  and  CA_21 
REMARK   13  A    between atoms: CA_21  and  C_22 
REMARK   14  A    between atoms: CA_21  and  CB_24 
REMARK       I    between atoms: C_22  and  N_29 
REMARK   15  A    between atoms: CB_24  and  CG_25 
REMARK   16  A    between atoms: CG_25  and  CD_26 
REMARK   17  A    between atoms: N_29  and  CA_30 
REMARK   18  A    between atoms: CA_30  and  C_31 
REMARK   19  A    between atoms: CA_30  and  CB_33 
REMARK       I    between atoms: C_31  and  N_37 
REMARK   20  A    between atoms: CB_33  and  CG_34 
REMARK   21  A    between atoms: N_37  and  CA_38 
REMARK   22  A    between atoms: CA_38  and  C_39 
REMARK   23  A    between atoms: CA_38  and  CB_41 
REMARK       I    between atoms: C_39  and  N_43 
REMARK   24  A    between atoms: CB_41  and  OG_42 
REMARK   25  A    between atoms: N_43  and  CA_44 
REMARK   26  A    between atoms: CA_44  and  C_45 
REMARK   27  A    between atoms: CA_44  and  CB_47 
REMARK       I    between atoms: C_45  and  N_51 
REMARK   28  A    between atoms: CB_47  and  CG_48 
REMARK   29  A    between atoms: N_51  and  CA_52 
REMARK   30  A    between atoms: CA_52  and  C_53 
REMARK   31  A    between atoms: CA_52  and  CB_55 
REMARK       I    between atoms: C_53  and  N_57 
REMARK   32  A    between atoms: CB_55  and  OG_56 
REMARK   33  A    between atoms: N_57  and  CA_58 
REMARK   34  A    between atoms: CA_58  and  C_59 
REMARK   35  A    between atoms: CA_58  and  CB_61 
REMARK       I    between atoms: C_59  and  N_66 
REMARK   36  A    between atoms: CB_61  and  CG_62 
REMARK   37  A    between atoms: CG_62  and  CD_63 
REMARK   38  A    between atoms: N_66  and  CA_67 
REMARK   39  A    between atoms: CA_67  and  C_68 
REMARK   40  A    between atoms: CA_67  and  CB_70 
REMARK       I    between atoms: C_68  and  N_74 
REMARK   41  A    between atoms: CB_70  and  CG_71 
REMARK   42  A    between atoms: CG_71  and  CD1_72 
REMARK   43  A    between atoms: CG_71  and  CD2_73 
REMARK   44  A    between atoms: N_74  and  CA_75 
REMARK   45  A    between atoms: CA_75  and  C_76 
REMARK   46  A    between atoms: CA_75  and  CB_78 
REMARK       I    between atoms: C_76  and  N_83 
REMARK   47  A    between atoms: CB_78  and  CG_79 
REMARK   48  A    between atoms: CG_79  and  CD_80 
REMARK   49  A    between atoms: N_83  and  CA_84 
REMARK   50  A    between atoms: CA_84  and  C_85 
REMARK   51  A    between atoms: CA_84  and  CB_87 
REMARK       I    between atoms: C_85  and  N_92 
REMARK   52  A    between atoms: CB_87  and  CG_88 
REMARK   53  A    between atoms: CG_88  and  CD_89 
REMARK       I    between atoms: CD_89  and  NE2_91 
REMARK   54  A    between atoms: N_92  and  CA_93 
REMARK   55  A    between atoms: CA_93  and  C_94 
REMARK   56  A    between atoms: CA_93  and  CB_96 
REMARK       I    between atoms: C_94  and  N_104 
REMARK   57  A    between atoms: CB_96  and  CG_97 
REMARK   58  A    between atoms: CZ_102  and  OH_103 
REMARK   59  A    between atoms: N_104  and  CA_105 
REMARK   60  A    between atoms: CA_105  and  C_106 
REMARK   61  A    between atoms: CA_105  and  CB_108 
REMARK       I    between atoms: C_106  and  N_115 
REMARK   62  A    between atoms: CB_108  and  CG_109 
REMARK   63  A    between atoms: N_115  and  CA_116 
REMARK   64  A    between atoms: CA_116  and  C_117 
REMARK   65  A    between atoms: CA_116  and  CB_119 
REMARK       I    between atoms: C_117  and  N_122 
REMARK   66  A    between atoms: CB_119  and  OG1_120 
REMARK   67  A    between atoms: CB_119  and  CG2_121 
REMARK   68  A    between atoms: N_122  and  CA_123 
REMARK   69  A    between atoms: CA_123  and  C_124 
REMARK   70  A    between atoms: CA_123  and  CB_126 
REMARK       I    between atoms: C_124  and  N_127 
REMARK   71  A    between atoms: N_127  and  CA_128 
REMARK   72  A    between atoms: CA_128  and  C_129 
REMARK   73  A    between atoms: CA_128  and  CB_131 
REMARK       I    between atoms: C_129  and  N_138 
REMARK   74  A    between atoms: CB_131  and  CG_132 
REMARK   75  A    between atoms: CG_132  and  CD_133 
REMARK   76  A    between atoms: CD_133  and  NE_134 
REMARK       I    between atoms: NE_134  and  CZ_135 
REMARK       I    between atoms: CZ_135  and  NH1_136 
REMARK   77  A    between atoms: N_138  and  CA_139 
REMARK   78  A    between atoms: CA_139  and  C_140 
REMARK   79  A    between atoms: CA_139  and  CB_142 
REMARK   80  A    between atoms: CB_142  and  CG_143 
ROOT
ATOM      1  CA  GLU d   1      12.762  -7.089   1.778  0.00  0.00     0.090 C 
ATOM      2  H61 GLU d   1      13.258  -6.112   1.872  0.00  0.00     0.087 H 
ENDROOT
BRANCH   1   3
ATOM      3  N   GLU d   1      11.424  -6.867   1.219  0.00  0.00    -0.346 N 
ATOM      4  C   LEU d   1      11.199  -6.473  -0.025  0.00  0.00     0.241 C 
ATOM      5  O   LEU d   1      12.076  -6.297  -0.871  0.00  0.00    -0.271 OA
ATOM      6  H60 GLU d   1      10.635  -7.022   1.813  0.00  0.00     0.163 HD
BRANCH   4   7
ATOM      7  CA  LEU d   1       9.735  -6.231  -0.321  0.00  0.00     0.089 C 
ATOM      8  H50 LEU d   1       9.590  -6.062  -1.398  0.00  0.00     0.087 H 
BRANCH   7   9
ATOM      9  N   LEU d   1       8.951  -7.372   0.101  0.00  0.00    -0.346 N 
ATOM     10  C   GLU d   1       8.807  -8.463  -0.629  0.00  0.00     0.241 C 
ATOM     11  O   GLU d   1       9.280  -8.592  -1.758  0.00  0.00    -0.271 OA
ATOM     12  H49 LEU d   1       8.495  -7.332   0.990  0.00  0.00     0.163 HD
BRANCH  10  13
ATOM     13  CA  GLU d   1       8.014  -9.588   0.038  0.00  0.00     0.090 C 
ATOM     14  H44 GLU d   1       8.353 -10.549  -0.375  0.00  0.00     0.087 H 
BRANCH  13  15
ATOM     15  N   GLU d   1       8.228  -9.585   1.479  0.00  0.00    -0.346 N 
ATOM     16  C   SER d   1       9.428  -9.657   2.038  0.00  0.00     0.243 C 
ATOM     17  O   SER d   1      10.475  -9.727   1.400  0.00  0.00    -0.271 OA
ATOM     18  H43 GLU d   1       7.429  -9.526   2.077  0.00  0.00     0.163 HD
BRANCH  16  19
ATOM     19  CA  SER d   1       9.437  -9.617   3.560  0.00  0.00     0.109 C 
ATOM     20  H39 SER d   1      10.284  -8.997   3.889  0.00  0.00     0.090 H 
BRANCH  19  21
ATOM     21  N   SER d   1       8.207  -9.038   4.075  0.00  0.00    -0.344 N 
ATOM     22  C   ASP d   1       7.876  -7.784   3.833  0.00  0.00     0.241 C 
ATOM     23  O   ASP d   1       8.548  -7.046   3.112  0.00  0.00    -0.271 OA
ATOM     24  H38 SER d   1       7.596  -9.605   4.627  0.00  0.00     0.163 HD
BRANCH  22  25
ATOM     25  CA  ASP d   1       6.561  -7.310   4.433  0.00  0.00     0.098 C 
ATOM     26  H35 ASP d   1       6.222  -6.430   3.866  0.00  0.00     0.088 H 
BRANCH  25  27
ATOM     27  N   ASP d   1       5.550  -8.348   4.317  0.00  0.00    -0.345 N 
ATOM     28  C   SER d   1       4.919  -8.590   3.186  0.00  0.00     0.243 C 
ATOM     29  O   SER d   1       5.132  -7.959   2.155  0.00  0.00    -0.271 OA
ATOM     30  H34 ASP d   1       5.326  -8.897   5.122  0.00  0.00     0.163 HD
BRANCH  28  31
ATOM     31  CA  SER d   1       3.886  -9.715   3.218  0.00  0.00     0.109 C 
ATOM     32  H30 SER d   1       2.975  -9.343   2.726  0.00  0.00     0.090 H 
BRANCH  31  33
ATOM     33  N   SER d   1       4.337 -10.895   2.493  0.00  0.00    -0.344 N 
ATOM     34  C   ASP d   1       5.444 -11.564   2.811  0.00  0.00     0.241 C 
ATOM     35  O   ASP d   1       6.265 -11.173   3.641  0.00  0.00    -0.271 OA
ATOM     36  H29 SER d   1       3.790 -11.218   1.721  0.00  0.00     0.163 HD
BRANCH  34  37
ATOM     37  CA  ASP d   1       5.657 -12.868   2.059  0.00  0.00     0.098 C 
ATOM     38  H26 ASP d   1       5.993 -13.633   2.775  0.00  0.00     0.088 H 
BRANCH  37  39
ATOM     39  N   ASP d   1       4.403 -13.315   1.465  0.00  0.00    -0.346 N 
ATOM     40  C   GLU d   1       3.448 -13.859   2.206  0.00  0.00     0.241 C 
ATOM     41  O   GLU d   1       3.569 -14.056   3.418  0.00  0.00    -0.271 OA
ATOM     42  H25 ASP d   1       4.261 -13.209   0.481  0.00  0.00     0.163 HD
BRANCH  40  43
ATOM     43  CA  GLU d   1       2.169 -14.256   1.484  0.00  0.00     0.090 C 
ATOM     44  H20 GLU d   1       2.424 -14.665   0.495  0.00  0.00     0.087 H 
BRANCH  43  45
ATOM     45  N   GLU d   1       1.501 -15.278   2.256  0.00  0.00    -0.346 N 
ATOM     46  C   GLN d   1       0.848 -16.287   1.697  0.00  0.00     0.241 C 
ATOM     47  O   GLN d   1       0.592 -16.345   0.493  0.00  0.00    -0.271 OA
ATOM     48  H19 GLU d   1       1.532 -15.222   3.254  0.00  0.00     0.163 HD
BRANCH  46  49
ATOM     49  CA  GLN d   1       0.390 -17.374   2.659  0.00  0.00     0.090 C 
ATOM     50  H12 GLN d   1       0.819 -18.333   2.332  0.00  0.00     0.087 H 
BRANCH  49  51
ATOM     51  N   GLN d   1       0.881 -17.084   4.001  0.00  0.00    -0.346 N 
ATOM     52  C   SER d   1       2.071 -17.510   4.412  0.00  0.00     0.243 C 
ATOM     53  O   SER d   1       2.758 -18.295   3.760  0.00  0.00    -0.271 OA
ATOM     54  H11 GLN d   1       0.309 -16.553   4.626  0.00  0.00     0.163 HD
BRANCH  52  55
ATOM     55  CA  SER d   1       2.538 -16.992   5.774  0.00  0.00     0.109 C 
ATOM     56  H7  SER d   1       2.033 -16.033   5.962  0.00  0.00     0.090 H 
BRANCH  55  57
ATOM     57  N   SER d   1       2.199 -17.904   6.854  0.00  0.00    -0.344 N 
ATOM     58  C   GLY d   1       0.954 -18.070   7.271  0.00  0.00     0.243 C 
ATOM     59  O   GLY d   1      -0.016 -17.527   6.737  0.00  0.00    -0.272 OA
ATOM     60  H6  SER d   1       2.930 -18.423   7.296  0.00  0.00     0.163 HD
BRANCH  58  61
ATOM     61  CA  GLY d   1       0.763 -18.986   8.460  0.00  0.00     0.152 C 
ATOM     62  H4  GLY d   1       1.149 -19.984   8.205  0.00  0.00     0.090 H 
ATOM     63  H5  GLY d   1       1.326 -18.582   9.314  0.00  0.00     0.090 H 
BRANCH  61  64
ATOM     64  N   GLY d   1      -0.662 -19.107   8.841  0.00  0.00    -0.071 N 
ATOM     65  H1  GLY d   1      -0.747 -19.723   9.634  0.00  0.00     0.274 HD
ATOM     66  H2  GLY d   1      -1.186 -19.483   8.066  0.00  0.00     0.274 HD
ATOM     67  H3  GLY d   1      -1.024 -18.198   9.082  0.00  0.00     0.274 HD
ENDBRANCH  61  64
ENDBRANCH  58  61
ENDBRANCH  55  57
BRANCH  55  68
ATOM     68  CB  SER d   1       4.050 -16.753   5.774  0.00  0.00     0.044 C 
ATOM     69  H8  SER d   1       4.294 -15.987   6.525  0.00  0.00     0.077 H 
ATOM     70  H9  SER d   1       4.360 -16.402   4.778  0.00  0.00     0.077 H 
BRANCH  68  71
ATOM     71  OG  SER d   1       4.750 -17.949   6.085  0.00  0.00    -0.398 OA
ATOM     72  H10 SER d   1       4.544 -18.613   5.437  0.00  0.00     0.209 HD
ENDBRANCH  68  71
ENDBRANCH  55  68
ENDBRANCH  52  55
ENDBRANCH  49  51
BRANCH  49  73
ATOM     73  CB  GLN d   1      -1.134 -17.503   2.644  0.00  0.00    -0.030 C 
ATOM     74  H13 GLN d   1      -1.464 -17.609   1.600  0.00  0.00     0.037 H 
ATOM     75  H14 GLN d   1      -1.565 -16.587   3.074  0.00  0.00     0.037 H 
BRANCH  73  76
ATOM     76  CG  GLN d   1      -1.646 -18.691   3.432  0.00  0.00     0.011 C 
ATOM     77  H15 GLN d   1      -2.742 -18.721   3.348  0.00  0.00     0.047 H 
ATOM     78  H16 GLN d   1      -1.363 -18.560   4.487  0.00  0.00     0.047 H 
BRANCH  76  79
ATOM     79  CD  GLN d   1      -1.086 -20.015   2.941  0.00  0.00     0.215 C 
ATOM     80  OE1 GLN d   1      -1.669 -20.670   2.077  0.00  0.00    -0.274 OA
ATOM     81  NE2 GLN d   1       0.052 -20.417   3.488  0.00  0.00    -0.370 N 
ATOM     82  H17 GLN d   1       0.466 -21.281   3.202  0.00  0.00     0.159 HD
ATOM     83  H18 GLN d   1       0.497 -19.856   4.186  0.00  0.00     0.159 HD
ENDBRANCH  76  79
ENDBRANCH  73  76
ENDBRANCH  49  73
ENDBRANCH  46  49
ENDBRANCH  43  45
BRANCH  43  84
ATOM     84  CB  GLU d   1       1.274 -13.029   1.289  0.00  0.00    -0.029 C 
ATOM     85  H21 GLU d   1       0.354 -13.353   0.780  0.00  0.00     0.037 H 
ATOM     86  H22 GLU d   1       1.811 -12.310   0.653  0.00  0.00     0.037 H 
BRANCH  84  87
ATOM     87  CG  GLU d   1       0.878 -12.318   2.578  0.00  0.00     0.018 C 
ATOM     88  H23 GLU d   1       0.872 -11.234   2.393  0.00  0.00     0.049 H 
ATOM     89  H24 GLU d   1       1.623 -12.554   3.352  0.00  0.00     0.049 H 
BRANCH  87  90
ATOM     90  CD  GLU d   1      -0.487 -12.728   3.083  0.00  0.00     0.172 C 
ATOM     91  OE1 GLU d   1      -1.451 -12.694   2.291  0.00  0.00    -0.648 OA
ATOM     92  OE2 GLU d   1      -0.606 -13.077   4.278  0.00  0.00    -0.648 OA
ENDBRANCH  87  90
ENDBRANCH  84  87
ENDBRANCH  43  84
ENDBRANCH  40  43
ENDBRANCH  37  39
BRANCH  37  93
ATOM     93  CB  ASP d   1       6.740 -12.697   0.995  0.00  0.00     0.043 C 
ATOM     94  H27 ASP d   1       7.631 -12.258   1.467  0.00  0.00     0.052 H 
ATOM     95  H28 ASP d   1       6.364 -12.017   0.216  0.00  0.00     0.052 H 
BRANCH  93  96
ATOM     96  CG  ASP d   1       7.132 -14.010   0.345  0.00  0.00     0.175 C 
ATOM     97  OD1 ASP d   1       7.737 -14.860   1.028  0.00  0.00    -0.648 OA
ATOM     98  OD2 ASP d   1       6.823 -14.200  -0.852  0.00  0.00    -0.648 OA
ENDBRANCH  93  96
ENDBRANCH  37  93
ENDBRANCH  34  37
ENDBRANCH  31  33
BRANCH  31  99
ATOM     99  CB  SER d   1       3.523 -10.106   4.655  0.00  0.00     0.044 C 
ATOM    100  H31 SER d   1       4.428 -10.468   5.164  0.00  0.00     0.077 H 
ATOM    101  H32 SER d   1       2.773 -10.910   4.626  0.00  0.00     0.077 H 
BRANCH  99 102
ATOM    102  OG  SER d   1       2.994  -9.013   5.384  0.00  0.00    -0.398 OA
ATOM    103  H33 SER d   1       2.208  -8.698   4.954  0.00  0.00     0.209 HD
ENDBRANCH  99 102
ENDBRANCH  31  99
ENDBRANCH  28  31
ENDBRANCH  25  27
BRANCH  25 104
ATOM    104  CB  ASP d   1       6.735  -6.895   5.908  0.00  0.00     0.043 C 
ATOM    105  H36 ASP d   1       5.799  -6.431   6.251  0.00  0.00     0.052 H 
ATOM    106  H37 ASP d   1       7.552  -6.161   5.968  0.00  0.00     0.052 H 
BRANCH 104 107
ATOM    107  CG  ASP d   1       7.063  -8.056   6.835  0.00  0.00     0.175 C 
ATOM    108  OD1 ASP d   1       6.335  -9.074   6.808  0.00  0.00    -0.648 OA
ATOM    109  OD2 ASP d   1       8.041  -7.952   7.605  0.00  0.00    -0.648 OA
ENDBRANCH 104 107
ENDBRANCH  25 104
ENDBRANCH  22  25
ENDBRANCH  19  21
BRANCH  19 110
ATOM    110  CB  SER d   1       9.607 -11.011   4.114  0.00  0.00     0.044 C 
ATOM    111  H40 SER d   1      10.590 -11.402   3.813  0.00  0.00     0.077 H 
ATOM    112  H41 SER d   1       8.816 -11.659   3.710  0.00  0.00     0.077 H 
BRANCH 110 113
ATOM    113  OG  SER d   1       9.523 -11.001   5.530  0.00  0.00    -0.398 OA
ATOM    114  H42 SER d   1      10.207 -10.444   5.883  0.00  0.00     0.209 HD
ENDBRANCH 110 113
ENDBRANCH  19 110
ENDBRANCH  16  19
ENDBRANCH  13  15
BRANCH  13 115
ATOM    115  CB  GLU d   1       6.519  -9.432  -0.225  0.00  0.00    -0.029 C 
ATOM    116  H45 GLU d   1       6.221  -8.417   0.076  0.00  0.00     0.037 H 
ATOM    117  H46 GLU d   1       5.983 -10.169   0.391  0.00  0.00     0.037 H 
BRANCH 115 118
ATOM    118  CG  GLU d   1       6.115  -9.635  -1.661  0.00  0.00     0.018 C 
ATOM    119  H47 GLU d   1       6.678 -10.488  -2.067  0.00  0.00     0.049 H 
ATOM    120  H48 GLU d   1       6.365  -8.726  -2.228  0.00  0.00     0.049 H 
BRANCH 118 121
ATOM    121  CD  GLU d   1       4.629  -9.914  -1.821  0.00  0.00     0.172 C 
ATOM    122  OE1 GLU d   1       3.810  -8.985  -1.644  0.00  0.00    -0.648 OA
ATOM    123  OE2 GLU d   1       4.276 -11.068  -2.137  0.00  0.00    -0.648 OA
ENDBRANCH 118 121
ENDBRANCH 115 118
ENDBRANCH  13 115
ENDBRANCH  10  13
ENDBRANCH   7   9
BRANCH   7 124
ATOM    124  CB  LEU d   1       9.317  -5.006   0.459  0.00  0.00    -0.035 C 
ATOM    125  H51 LEU d   1      10.036  -4.207   0.226  0.00  0.00     0.037 H 
ATOM    126  H52 LEU d   1       9.383  -5.258   1.528  0.00  0.00     0.037 H 
BRANCH 124 127
ATOM    127  CG  LEU d   1       7.919  -4.449   0.208  0.00  0.00    -0.059 C 
ATOM    128  H53 LEU d   1       7.755  -3.627   0.921  0.00  0.00     0.038 H 
BRANCH 127 129
ATOM    129  CD1 LEU d   1       7.795  -3.881  -1.184  0.00  0.00    -0.073 C 
ATOM    130  H54 LEU d   1       6.778  -3.489  -1.331  0.00  0.00     0.028 H 
ATOM    131  H55 LEU d   1       7.993  -4.672  -1.922  0.00  0.00     0.028 H 
ATOM    132  H56 LEU d   1       8.524  -3.067  -1.314  0.00  0.00     0.028 H 
ENDBRANCH 127 129
BRANCH 127 133
ATOM    133  CD2 LEU d   1       6.858  -5.492   0.459  0.00  0.00    -0.073 C 
ATOM    134  H57 LEU d   1       6.969  -5.890   1.478  0.00  0.00     0.028 H 
ATOM    135  H58 LEU d   1       6.968  -6.310  -0.268  0.00  0.00     0.028 H 
ATOM    136  H59 LEU d   1       5.863  -5.036   0.350  0.00  0.00     0.028 H 
ENDBRANCH 127 133
ENDBRANCH 124 127
ENDBRANCH   7 124
ENDBRANCH   4   7
ENDBRANCH   1   3
BRANCH   1 137
ATOM    137  C   GLU d   1      13.620  -7.983   0.892  0.00  0.00     0.241 C 
ATOM    138  O   GLU d   1      14.850  -7.934   0.954  0.00  0.00    -0.271 OA
ATOM    139  N   GLN d   1      12.951  -8.794   0.088  0.00  0.00    -0.346 N 
ATOM    140  H66 GLN d   1      11.952  -8.762   0.104  0.00  0.00     0.163 HD
BRANCH 139 141
ATOM    141  CA  GLN d   1      13.602  -9.734  -0.822  0.00  0.00     0.090 C 
ATOM    142  H67 GLN d   1      14.047 -10.546  -0.228  0.00  0.00     0.087 H 
BRANCH 141 143
ATOM    143  C   GLN d   1      14.695  -9.059  -1.627  0.00  0.00     0.241 C 
ATOM    144  O   GLN d   1      15.801  -9.581  -1.761  0.00  0.00    -0.271 OA
ATOM    145  N   TYR d   1      14.377  -7.897  -2.161  0.00  0.00    -0.346 N 
ATOM    146  H74 TYR d   1      13.482  -7.495  -1.968  0.00  0.00     0.163 HD
BRANCH 145 147
ATOM    147  CA  TYR d   1      15.305  -7.192  -3.024  0.00  0.00     0.093 C 
ATOM    148  H75 TYR d   1      16.233  -7.781  -3.066  0.00  0.00     0.088 H 
BRANCH 147 149
ATOM    149  C   TYR d   1      15.663  -5.804  -2.498  0.00  0.00     0.241 C 
ATOM    150  O   TYR d   1      16.760  -5.305  -2.763  0.00  0.00    -0.271 OA
ATOM    151  N   PHE d   1      14.767  -5.176  -1.745  0.00  0.00    -0.346 N 
ATOM    152  H83 PHE d   1      13.922  -5.643  -1.484  0.00  0.00     0.163 HD
BRANCH 151 153
ATOM    153  CA  PHE d   1      15.007  -3.814  -1.299  0.00  0.00     0.093 C 
ATOM    154  H84 PHE d   1      16.096  -3.670  -1.244  0.00  0.00     0.088 H 
BRANCH 153 155
ATOM    155  C   PHE d   1      14.439  -3.557   0.089  0.00  0.00     0.241 C 
ATOM    156  O   PHE d   1      13.424  -4.129   0.463  0.00  0.00    -0.271 OA
ATOM    157  N   THR d   1      15.135  -2.713   0.845  0.00  0.00    -0.344 N 
ATOM    158  H92 THR d   1      16.008  -2.374   0.494  0.00  0.00     0.163 HD
BRANCH 157 159
ATOM    159  CA  THR d   1      14.695  -2.253   2.161  0.00  0.00     0.113 C 
ATOM    160  H93 THR d   1      13.685  -1.831   2.051  0.00  0.00     0.091 H 
BRANCH 159 161
ATOM    161  C   THR d   1      15.630  -1.152   2.660  0.00  0.00     0.243 C 
ATOM    162  O   THR d   1      16.645  -0.867   2.025  0.00  0.00    -0.271 OA
ATOM    163  N   ALA d   1      15.286  -0.535   3.782  0.00  0.00    -0.346 N 
ATOM    164  H99 ALA d   1      14.462  -0.828   4.266  0.00  0.00     0.163 HD
BRANCH 163 165
ATOM    165  CA  ALA d   1      16.081   0.562   4.328  0.00  0.00     0.086 C 
ATOM    166 0H10 ALA d   1      16.740   0.944   3.534  0.00  0.00     0.086 H 
BRANCH 165 167
ATOM    167  C   ALA d   1      16.944   0.071   5.480  0.00  0.00     0.240 C 
ATOM    168  O   ALA d   1      17.220  -1.123   5.588  0.00  0.00    -0.271 OA
ATOM    169  N   ARG d   1      17.358   0.997   6.341  0.00  0.00    -0.346 N 
ATOM    170 4H10 ARG d   1      17.101   1.952   6.189  0.00  0.00     0.163 HD
BRANCH 169 171
ATOM    171  CA  ARG d   1      18.175   0.659   7.499  0.00  0.00     0.089 C 
ATOM    172 5H10 ARG d   1      19.109   0.202   7.139  0.00  0.00     0.087 H 
BRANCH 171 173
ATOM    173  C   ARG d   1      17.457  -0.353   8.394  0.00  0.00     0.241 C 
ATOM    174  O   ARG d   1      18.064  -1.317   8.860  0.00  0.00    -0.271 OA
ATOM    175  N   TRP d   1      16.156  -0.122   8.594  0.00  0.00    -0.344 N 
ATOM    176 7H11 TRP d   1      15.742   0.667   8.139  0.00  0.00     0.163 HD
BRANCH 175 177
ATOM    177  CA  TRP d   1      15.303  -0.955   9.438  0.00  0.00     0.100 C 
ATOM    178 8H11 TRP d   1      14.397  -0.377   9.673  0.00  0.00     0.090 H 
BRANCH 177 179
ATOM    179  C   TRP d   1      15.973  -1.315  10.762  0.00  0.00     0.197 C 
ATOM    180  O   TRP d   1      16.438  -2.466  10.912  0.00  0.00    -0.646 OA
ATOM    181  OXT TRP d   1      16.037  -0.434  11.644  0.00  0.00    -0.646 OA
ENDBRANCH 177 179
BRANCH 177 182
ATOM    182  CB  TRP d   1      14.877  -2.204   8.674  0.00  0.00    -0.011 C 
ATOM    183 9H11 TRP d   1      14.391  -2.900   9.373  0.00  0.00     0.044 H 
ATOM    184 0H12 TRP d   1      15.771  -2.680   8.244  0.00  0.00     0.044 H 
BRANCH 182 185
ATOM    185  CG  TRP d   1      13.928  -1.884   7.577  0.00  0.00    -0.028 A 
ATOM    186  CD1 TRP d   1      14.014  -0.848   6.710  0.00  0.00    -0.015 A 
ATOM    187  NE1 TRP d   1      12.947  -0.861   5.848  0.00  0.00    -0.365 N 
ATOM    188 1H12 TRP d   1      14.815  -0.110   6.699  0.00  0.00     0.112 H 
ATOM    189  CE2 TRP d   1      12.157  -1.935   6.152  0.00  0.00     0.042 A 
ATOM    190 2H12 TRP d   1      12.771  -0.177   5.098  0.00  0.00     0.165 HD
ATOM    191  CD2 TRP d   1      12.747  -2.595   7.241  0.00  0.00    -0.002 A 
ATOM    192  CZ2 TRP d   1      10.980  -2.378   5.570  0.00  0.00    -0.056 A 
ATOM    193  CE3 TRP d   1      12.131  -3.726   7.754  0.00  0.00    -0.070 A 
ATOM    194  CZ3 TRP d   1      10.965  -4.157   7.174  0.00  0.00    -0.082 A 
ATOM    195 3H12 TRP d   1      12.561  -4.258   8.595  0.00  0.00     0.084 H 
ATOM    196  CH2 TRP d   1      10.402  -3.487   6.093  0.00  0.00    -0.081 A 
ATOM    197 5H12 TRP d   1      10.472  -5.039   7.567  0.00  0.00     0.083 H 
ATOM    198 6H12 TRP d   1       9.481  -3.860   5.659  0.00  0.00     0.083 H 
ATOM    199 4H12 TRP d   1      10.538  -1.857   4.728  0.00  0.00     0.086 H 
ENDBRANCH 182 185
ENDBRANCH 177 182
ENDBRANCH 175 177
ENDBRANCH 171 173
BRANCH 171 200
ATOM    200  CB  ARG d   1      18.533   1.920   8.307  0.00  0.00    -0.036 C 
ATOM    201 6H10 ARG d   1      18.831   2.710   7.603  0.00  0.00     0.036 H 
ATOM    202 7H10 ARG d   1      19.379   1.680   8.968  0.00  0.00     0.036 H 
BRANCH 200 203
ATOM    203  CG  ARG d   1      17.391   2.445   9.161  0.00  0.00    -0.048 C 
ATOM    204 8H10 ARG d   1      17.783   2.698  10.157  0.00  0.00     0.035 H 
ATOM    205 9H10 ARG d   1      16.631   1.656   9.256  0.00  0.00     0.035 H 
BRANCH 203 206
ATOM    206  CD  ARG d   1      16.743   3.671   8.572  0.00  0.00     0.009 C 
ATOM    207 0H11 ARG d   1      15.727   3.769   8.982  0.00  0.00     0.064 H 
ATOM    208 1H11 ARG d   1      16.688   3.555   7.479  0.00  0.00     0.064 H 
BRANCH 206 209
ATOM    209  NE  ARG d   1      17.496   4.881   8.882  0.00  0.00    -0.227 N 
ATOM    210  CZ  ARG d   1      17.370   5.556  10.027  0.00  0.00     0.665 C 
ATOM    211  NH1 ARG d   1      16.551   5.114  10.982  0.00  0.00    -0.235 N 
ATOM    212  NH2 ARG d   1      18.072   6.663  10.221  0.00  0.00    -0.235 N 
ATOM    213 3H11 ARG d   1      16.457   5.638  11.864  0.00  0.00     0.174 HD
ATOM    214 4H11 ARG d   1      16.012   4.248  10.838  0.00  0.00     0.174 HD
ATOM    215 5H11 ARG d   1      18.705   7.007   9.485  0.00  0.00     0.174 HD
ATOM    216 6H11 ARG d   1      17.984   7.180  11.108  0.00  0.00     0.174 HD
ATOM    217 2H11 ARG d   1      18.161   5.234   8.179  0.00  0.00     0.177 HD
ENDBRANCH 206 209
ENDBRANCH 203 206
ENDBRANCH 200 203
ENDBRANCH 171 200
ENDBRANCH 169 171
ENDBRANCH 165 167
BRANCH 165 218
ATOM    218  CB  ALA d   1      15.177   1.697   4.797  0.00  0.00    -0.049 C 
ATOM    219 1H10 ALA d   1      15.793   2.512   5.204  0.00  0.00     0.030 H 
ATOM    220 2H10 ALA d   1      14.498   1.326   5.578  0.00  0.00     0.030 H 
ATOM    221 3H10 ALA d   1      14.588   2.072   3.947  0.00  0.00     0.030 H 
ENDBRANCH 165 218
ENDBRANCH 163 165
ENDBRANCH 159 161
BRANCH 159 222
ATOM    222  CB  THR d   1      14.622  -3.394   3.205  0.00  0.00     0.060 C 
ATOM    223  H94 THR d   1      14.930  -2.996   4.183  0.00  0.00     0.086 H 
BRANCH 222 224
ATOM    224  OG1 THR d   1      15.511  -4.459   2.841  0.00  0.00    -0.393 OA
ATOM    225  H95 THR d   1      15.263  -4.800   1.990  0.00  0.00     0.210 HD
ENDBRANCH 222 224
BRANCH 222 226
ATOM    226  CG2 THR d   1      13.204  -3.916   3.317  0.00  0.00    -0.050 C 
ATOM    227  H96 THR d   1      13.169  -4.725   4.062  0.00  0.00     0.031 H 
ATOM    228  H97 THR d   1      12.877  -4.302   2.340  0.00  0.00     0.031 H 
ATOM    229  H98 THR d   1      12.537  -3.100   3.631  0.00  0.00     0.031 H 
ENDBRANCH 222 226
ENDBRANCH 159 222
ENDBRANCH 157 159
ENDBRANCH 153 155
BRANCH 153 230
ATOM    230  CB  PHE d   1      14.449  -2.799  -2.314  0.00  0.00    -0.014 C 
ATOM    231  H85 PHE d   1      15.028  -2.902  -3.244  0.00  0.00     0.043 H 
ATOM    232  H86 PHE d   1      14.599  -1.792  -1.898  0.00  0.00     0.043 H 
BRANCH 230 233
ATOM    233  CG  PHE d   1      12.992  -2.938  -2.663  0.00  0.00    -0.056 A 
ATOM    234  CD1 PHE d   1      12.010  -2.864  -1.695  0.00  0.00    -0.077 A 
ATOM    235  CE1 PHE d   1      10.684  -2.972  -2.026  0.00  0.00    -0.082 A 
ATOM    236  H87 PHE d   1      12.292  -2.718  -0.658  0.00  0.00     0.084 H 
ATOM    237  CZ  PHE d   1      10.313  -3.161  -3.341  0.00  0.00    -0.083 A 
ATOM    238  H89 PHE d   1       9.926  -2.909  -1.253  0.00  0.00     0.083 H 
ATOM    239  CE2 PHE d   1      11.280  -3.234  -4.322  0.00  0.00    -0.082 A 
ATOM    240  H91 PHE d   1       9.265  -3.252  -3.603  0.00  0.00     0.083 H 
ATOM    241  CD2 PHE d   1      12.611  -3.121  -3.981  0.00  0.00    -0.077 A 
ATOM    242  H90 PHE d   1      10.994  -3.380  -5.357  0.00  0.00     0.083 H 
ATOM    243  H88 PHE d   1      13.368  -3.176  -4.755  0.00  0.00     0.084 H 
ENDBRANCH 230 233
ENDBRANCH 153 230
ENDBRANCH 151 153
ENDBRANCH 147 149
BRANCH 147 244
ATOM    244  CB  TYR d   1      14.738  -7.096  -4.443  0.00  0.00    -0.014 C 
ATOM    245  H76 TYR d   1      15.142  -7.933  -5.031  0.00  0.00     0.043 H 
ATOM    246  H77 TYR d   1      15.072  -6.144  -4.882  0.00  0.00     0.043 H 
BRANCH 244 247
ATOM    247  CG  TYR d   1      13.226  -7.149  -4.524  0.00  0.00    -0.056 A 
ATOM    248  CD1 TYR d   1      12.431  -6.312  -3.754  0.00  0.00    -0.074 A 
ATOM    249  CE1 TYR d   1      11.065  -6.347  -3.837  0.00  0.00    -0.051 A 
ATOM    250  H78 TYR d   1      12.902  -5.614  -3.071  0.00  0.00     0.084 H 
ATOM    251  CZ  TYR d   1      10.454  -7.231  -4.703  0.00  0.00     0.065 A 
ATOM    252  H80 TYR d   1      10.466  -5.683  -3.225  0.00  0.00     0.087 H 
ATOM    253  CE2 TYR d   1      11.216  -8.075  -5.481  0.00  0.00    -0.051 A 
ATOM    254  CD2 TYR d   1      12.593  -8.030  -5.391  0.00  0.00    -0.074 A 
ATOM    255  H81 TYR d   1      10.737  -8.771  -6.160  0.00  0.00     0.087 H 
ATOM    256  H79 TYR d   1      13.190  -8.693  -6.007  0.00  0.00     0.084 H 
BRANCH 251 257
ATOM    257  OH  TYR d   1       9.084  -7.266  -4.800  0.00  0.00    -0.361 OA
ATOM    258  H82 TYR d   1       8.709  -6.629  -4.203  0.00  0.00     0.217 HD
ENDBRANCH 251 257
ENDBRANCH 244 247
ENDBRANCH 147 244
ENDBRANCH 145 147
ENDBRANCH 141 143
BRANCH 141 259
ATOM    259  CB  GLN d   1      12.580 -10.324  -1.786  0.00  0.00    -0.030 C 
ATOM    260  H68 GLN d   1      13.089 -11.060  -2.425  0.00  0.00     0.037 H 
ATOM    261  H69 GLN d   1      12.181  -9.511  -2.410  0.00  0.00     0.037 H 
BRANCH 259 262
ATOM    262  CG  GLN d   1      11.427 -11.007  -1.098  0.00  0.00     0.011 C 
ATOM    263  H70 GLN d   1      10.714 -11.347  -1.863  0.00  0.00     0.047 H 
ATOM    264  H71 GLN d   1      10.935 -10.281  -0.435  0.00  0.00     0.047 H 
BRANCH 262 265
ATOM    265  CD  GLN d   1      11.854 -12.201  -0.273  0.00  0.00     0.215 C 
ATOM    266  OE1 GLN d   1      11.932 -13.326  -0.771  0.00  0.00    -0.274 OA
ATOM    267  NE2 GLN d   1      12.127 -11.967   0.996  0.00  0.00    -0.370 N 
ATOM    268  H72 GLN d   1      12.415 -12.717   1.592  0.00  0.00     0.159 HD
ATOM    269  H73 GLN d   1      12.046 -11.040   1.362  0.00  0.00     0.159 HD
ENDBRANCH 262 265
ENDBRANCH 259 262
ENDBRANCH 141 259
ENDBRANCH 139 141
ENDBRANCH   1 137
BRANCH   1 270
ATOM    270  CB  GLU d   1      12.668  -7.729   3.161  0.00  0.00    -0.029 C 
ATOM    271  H62 GLU d   1      13.647  -7.625   3.651  0.00  0.00     0.037 H 
ATOM    272  H63 GLU d   1      12.436  -8.796   3.027  0.00  0.00     0.037 H 
BRANCH 270 273
ATOM    273  CG  GLU d   1      11.616  -7.130   4.080  0.00  0.00     0.018 C 
ATOM    274  H64 GLU d   1      10.618  -7.406   3.709  0.00  0.00     0.049 H 
ATOM    275  H65 GLU d   1      11.719  -6.035   4.075  0.00  0.00     0.049 H 
BRANCH 273 276
ATOM    276  CD  GLU d   1      11.770  -7.634   5.505  0.00  0.00     0.172 C 
ATOM    277  OE1 GLU d   1      11.197  -8.697   5.831  0.00  0.00    -0.648 OA
ATOM    278  OE2 GLU d   1      12.498  -6.994   6.293  0.00  0.00    -0.648 OA
ENDBRANCH 273 276
ENDBRANCH 270 273
ENDBRANCH   1 270
TORSDOF 80
