REMARK  30 active torsions:
REMARK  status: ('A' for Active; 'I' for Inactive)
REMARK    1  A    between atoms: CA_2  and  C_3 
REMARK       I    between atoms: C_3  and  N_8 
REMARK    2  A    between atoms: N_8  and  CA_9 
REMARK    3  A    between atoms: CA_9  and  C_10 
REMARK    4  A    between atoms: CA_9  and  CB_12 
REMARK       I    between atoms: C_10  and  N_14 
REMARK    5  A    between atoms: CB_12  and  OG_13 
REMARK    6  A    between atoms: N_14  and  CA_15 
REMARK    7  A    between atoms: CA_15  and  C_16 
REMARK    8  A    between atoms: CA_15  and  CB_18 
REMARK       I    between atoms: C_16  and  N_26 
REMARK    9  A    between atoms: CB_18  and  CG_19 
REMARK   10  A    between atoms: CZ_24  and  OH_25 
REMARK   11  A    between atoms: N_26  and  CA_27 
REMARK   12  A    between atoms: CA_27  and  CB_28 
REMARK   13  A    between atoms: CA_27  and  C_30 
REMARK   14  A    between atoms: CB_28  and  OG_29 
REMARK   15  A    between atoms: OG_29  and  P_32 
REMARK       I    between atoms: C_30  and  N_36 
REMARK   16  A    between atoms: CA_37  and  C_38 
REMARK       I    between atoms: C_38  and  N_43 
REMARK   17  A    between atoms: N_43  and  CA_44 
REMARK   18  A    between atoms: CA_44  and  C_45 
REMARK   19  A    between atoms: CA_44  and  CB_47 
REMARK       I    between atoms: C_45  and  N_50 
REMARK   20  A    between atoms: CB_47  and  OG1_48 
REMARK   21  A    between atoms: CB_47  and  CG2_49 
REMARK   22  A    between atoms: N_50  and  CA_51 
REMARK   23  A    between atoms: CA_51  and  C_52 
REMARK   24  A    between atoms: CA_51  and  CB_54 
REMARK       I    between atoms: C_52  and  N_56 
REMARK   25  A    between atoms: CB_54  and  OG_55 
REMARK   26  A    between atoms: CA_57  and  C_58 
REMARK       I    between atoms: C_58  and  N_63 
REMARK   27  A    between atoms: N_63  and  CA_64 
REMARK   28  A    between atoms: CA_64  and  C_65 
REMARK   29  A    between atoms: CA_64  and  CB_67 
REMARK   30  A    between atoms: CB_67  and  OG_68 
ROOT
ATOM      1  N   PRO d   1      -2.814  -0.714  11.040  0.00  0.00    -0.337 N 
ATOM      2  CA  PRO d   1      -2.372   0.643  10.660  0.00  0.00     0.091 C 
ATOM      3  CB  PRO d   1      -3.630   1.267  10.057  0.00  0.00    -0.036 C 
ATOM      4  CG  PRO d   1      -4.398   0.110   9.526  0.00  0.00    -0.048 C 
ATOM      5  CD  PRO d   1      -4.142  -1.027  10.476  0.00  0.00    -0.001 C 
ATOM      6  H28 PRO d   1      -1.571   0.578   9.909  0.00  0.00     0.087 H 
ATOM      7  H29 PRO d   1      -3.369   1.965   9.248  0.00  0.00     0.036 H 
ATOM      8  H30 PRO d   1      -4.209   1.798  10.827  0.00  0.00     0.036 H 
ATOM      9  H31 PRO d   1      -4.049  -0.150   8.516  0.00  0.00     0.035 H 
ATOM     10  H32 PRO d   1      -5.472   0.346   9.493  0.00  0.00     0.035 H 
ATOM     11  H33 PRO d   1      -4.907  -1.059  11.266  0.00  0.00     0.064 H 
ATOM     12  H34 PRO d   1      -4.126  -1.989   9.942  0.00  0.00     0.064 H 
ATOM     13  C   SEP d   1      -2.071  -1.551  11.789  0.00  0.00     0.245 C 
ATOM     14  O   SEP d   1      -0.961  -1.246  12.203  0.00  0.00    -0.271 OA
ENDROOT
BRANCH  13  15
ATOM     15  CA  SEP d   1      -2.631  -2.931  12.099  0.00  0.00     0.110 C 
ATOM     16  H25 SEP d   1      -3.348  -3.214  11.314  0.00  0.00     0.090 H 
BRANCH  15  17
ATOM     17  N   SEP d   1      -1.535  -3.884  12.112  0.00  0.00    -0.344 N 
ATOM     18  C   TYR d   1      -1.547  -4.965  11.340  0.00  0.00     0.241 C 
ATOM     19  O   TYR d   1      -2.481  -5.238  10.581  0.00  0.00    -0.271 OA
ATOM     20  H24 SEP d   1      -0.754  -3.723  12.716  0.00  0.00     0.163 HD
BRANCH  18  21
ATOM     21  CA  TYR d   1      -0.327  -5.878  11.416  0.00  0.00     0.093 C 
ATOM     22  H16 TYR d   1       0.316  -5.544  12.244  0.00  0.00     0.088 H 
BRANCH  21  23
ATOM     23  N   TYR d   1      -0.726  -7.261  11.657  0.00  0.00    -0.346 N 
ATOM     24  C   SER d   1      -0.484  -7.876  12.806  0.00  0.00     0.243 C 
ATOM     25  O   SER d   1       0.078  -7.320  13.753  0.00  0.00    -0.271 OA
ATOM     26  H15 TYR d   1      -1.198  -7.761  10.931  0.00  0.00     0.163 HD
BRANCH  24  27
ATOM     27  CA  SER d   1      -0.965  -9.328  12.893  0.00  0.00     0.109 C 
ATOM     28  H11 SER d   1      -1.345  -9.610  11.900  0.00  0.00     0.090 H 
BRANCH  27  29
ATOM     29  N   SER d   1       0.118 -10.259  13.230  0.00  0.00    -0.344 N 
ATOM     30  C   PRO d   1       0.661 -10.333  14.449  0.00  0.00     0.249 C 
ATOM     31  O   PRO d   1       0.323  -9.603  15.383  0.00  0.00    -0.271 OA
ATOM     32  H10 SER d   1       0.466 -10.866  12.515  0.00  0.00     0.163 HD
BRANCH  30  33
ATOM     33  CA  PRO d   1       1.762 -11.376  14.657  0.00  0.00     0.178 C 
ATOM     34  N   PRO d   1       1.768 -12.418  13.601  0.00  0.00    -0.062 N 
ATOM     35  CD  PRO d   1       3.178 -12.561  13.158  0.00  0.00     0.083 C 
ATOM     36  H1  PRO d   1       1.187 -12.134  12.828  0.00  0.00     0.278 HD
ATOM     37  H2  PRO d   1       1.429 -13.292  13.972  0.00  0.00     0.278 HD
ATOM     38  CG  PRO d   1       4.000 -11.808  14.185  0.00  0.00    -0.040 C 
ATOM     39  H8  PRO d   1       3.314 -12.122  12.159  0.00  0.00     0.075 H 
ATOM     40  H9  PRO d   1       3.469 -13.622  13.135  0.00  0.00     0.075 H 
ATOM     41  CB  PRO d   1       3.124 -10.724  14.693  0.00  0.00    -0.028 C 
ATOM     42  H6  PRO d   1       4.294 -12.479  15.006  0.00  0.00     0.035 H 
ATOM     43  H7  PRO d   1       4.901 -11.384  13.717  0.00  0.00     0.035 H 
ATOM     44  H4  PRO d   1       3.401 -10.434  15.717  0.00  0.00     0.036 H 
ATOM     45  H5  PRO d   1       3.161  -9.841  14.039  0.00  0.00     0.036 H 
ATOM     46  H3  PRO d   1       1.582 -11.867  15.625  0.00  0.00     0.099 H 
ENDBRANCH  30  33
ENDBRANCH  27  29
BRANCH  27  47
ATOM     47  CB  SER d   1      -2.123  -9.455  13.893  0.00  0.00     0.044 C 
ATOM     48  H12 SER d   1      -2.938  -8.782  13.588  0.00  0.00     0.077 H 
ATOM     49  H13 SER d   1      -1.767  -9.169  14.894  0.00  0.00     0.077 H 
BRANCH  47  50
ATOM     50  OG  SER d   1      -2.612 -10.789  13.936  0.00  0.00    -0.398 OA
ATOM     51  H14 SER d   1      -3.326 -10.843  14.560  0.00  0.00     0.209 HD
ENDBRANCH  47  50
ENDBRANCH  27  47
ENDBRANCH  24  27
ENDBRANCH  21  23
BRANCH  21  52
ATOM     52  CB  TYR d   1       0.462  -5.795  10.102  0.00  0.00    -0.014 C 
ATOM     53  H17 TYR d   1      -0.152  -6.239   9.305  0.00  0.00     0.043 H 
ATOM     54  H18 TYR d   1       1.387  -6.378  10.220  0.00  0.00     0.043 H 
BRANCH  52  55
ATOM     55  CG  TYR d   1       0.840  -4.387   9.679  0.00  0.00    -0.056 A 
ATOM     56  CD1 TYR d   1      -0.036  -3.594   8.941  0.00  0.00    -0.074 A 
ATOM     57  CE1 TYR d   1       0.314  -2.317   8.548  0.00  0.00    -0.051 A 
ATOM     58  H19 TYR d   1      -1.010  -3.986   8.670  0.00  0.00     0.084 H 
ATOM     59  CZ  TYR d   1       1.548  -1.813   8.889  0.00  0.00     0.065 A 
ATOM     60  H21 TYR d   1      -0.380  -1.715   7.973  0.00  0.00     0.087 H 
ATOM     61  CE2 TYR d   1       2.435  -2.581   9.617  0.00  0.00    -0.051 A 
ATOM     62  CD2 TYR d   1       2.077  -3.857  10.008  0.00  0.00    -0.074 A 
ATOM     63  H22 TYR d   1       3.409  -2.184   9.881  0.00  0.00     0.087 H 
ATOM     64  H20 TYR d   1       2.776  -4.454  10.582  0.00  0.00     0.084 H 
BRANCH  59  65
ATOM     65  OH  TYR d   1       1.901  -0.543   8.497  0.00  0.00    -0.361 OA
ATOM     66  H23 TYR d   1       1.185  -0.153   8.009  0.00  0.00     0.217 HD
ENDBRANCH  59  65
ENDBRANCH  52  55
ENDBRANCH  21  52
ENDBRANCH  18  21
ENDBRANCH  15  17
BRANCH  15  67
ATOM     67  CB  SEP d   1      -3.350  -2.934  13.445  0.00  0.00     0.059 C 
ATOM     68  H26 SEP d   1      -2.897  -2.170  14.094  0.00  0.00     0.079 H 
ATOM     69  H27 SEP d   1      -3.236  -3.925  13.910  0.00  0.00     0.079 H 
BRANCH  67  70
ATOM     70  OG  SEP d   1      -4.740  -2.650  13.293  0.00  0.00    -0.280 OA
BRANCH  70  71
ATOM     71  P   SEP d   1      -5.377  -1.343  13.973  0.00  0.00     0.422 P 
ATOM     72  O1P SEP d   1      -4.597  -0.205  13.482  0.00  0.00    -0.617 OA
ATOM     73  O2P SEP d   1      -5.334  -1.300  15.448  0.00  0.00    -0.617 OA
ATOM     74  O3P SEP d   1      -6.802  -1.075  13.650  0.00  0.00    -0.617 OA
ENDBRANCH  70  71
ENDBRANCH  67  70
ENDBRANCH  15  67
ENDBRANCH  13  15
BRANCH   2  75
ATOM     75  C   PRO d   1      -1.873   1.495  11.829  0.00  0.00     0.241 C 
ATOM     76  O   PRO d   1      -0.966   2.312  11.661  0.00  0.00    -0.271 OA
ATOM     77  N   THR d   1      -2.458   1.310  13.004  0.00  0.00    -0.344 N 
ATOM     78  H35 THR d   1      -3.190   0.633  13.088  0.00  0.00     0.163 HD
BRANCH  77  79
ATOM     79  CA  THR d   1      -2.053   2.076  14.176  0.00  0.00     0.113 C 
ATOM     80  H36 THR d   1      -1.887   3.116  13.859  0.00  0.00     0.091 H 
BRANCH  79  81
ATOM     81  C   THR d   1      -0.746   1.541  14.770  0.00  0.00     0.243 C 
ATOM     82  O   THR d   1      -0.092   2.216  15.564  0.00  0.00    -0.271 OA
ATOM     83  N   SER d   1      -0.358   0.336  14.366  0.00  0.00    -0.344 N 
ATOM     84  H42 SER d   1      -0.923  -0.161  13.707  0.00  0.00     0.163 HD
BRANCH  83  85
ATOM     85  CA  SER d   1       0.868  -0.283  14.856  0.00  0.00     0.109 C 
ATOM     86  H43 SER d   1       1.446   0.470  15.412  0.00  0.00     0.090 H 
BRANCH  85  87
ATOM     87  C   SER d   1       1.713  -0.776  13.680  0.00  0.00     0.245 C 
ATOM     88  O   SER d   1       1.705  -1.965  13.343  0.00  0.00    -0.271 OA
ATOM     89  N   PRO d   1       2.425   0.148  13.022  0.00  0.00    -0.337 N 
ATOM     90  CA  PRO d   1       3.264  -0.158  11.871  0.00  0.00     0.091 C 
ATOM     91  CD  PRO d   1       2.449   1.576  13.318  0.00  0.00    -0.001 C 
ATOM     92  CB  PRO d   1       3.314   1.174  11.102  0.00  0.00    -0.036 C 
ATOM     93  H47 PRO d   1       2.795  -0.944  11.260  0.00  0.00     0.087 H 
ATOM     94  CG  PRO d   1       2.594   2.180  11.950  0.00  0.00    -0.048 C 
ATOM     95  H48 PRO d   1       2.814   1.070  10.128  0.00  0.00     0.036 H 
ATOM     96  H49 PRO d   1       4.358   1.485  10.947  0.00  0.00     0.036 H 
ATOM     97  H50 PRO d   1       1.603   2.393  11.524  0.00  0.00     0.035 H 
ATOM     98  H51 PRO d   1       3.176   3.111  12.008  0.00  0.00     0.035 H 
ATOM     99  H52 PRO d   1       3.303   1.836  13.961  0.00  0.00     0.064 H 
ATOM    100  H53 PRO d   1       1.515   1.899  13.800  0.00  0.00     0.064 H 
BRANCH  90 101
ATOM    101  C   PRO d   1       4.678  -0.605  12.246  0.00  0.00     0.241 C 
ATOM    102  O   PRO d   1       5.272  -1.440  11.566  0.00  0.00    -0.271 OA
ATOM    103  N   SER d   1       5.225  -0.047  13.315  0.00  0.00    -0.343 N 
ATOM    104  H54 SER d   1       4.703   0.626  13.839  0.00  0.00     0.163 HD
BRANCH 103 105
ATOM    105  CA  SER d   1       6.572  -0.395  13.742  0.00  0.00     0.116 C 
ATOM    106  H55 SER d   1       6.956  -1.189  13.085  0.00  0.00     0.093 H 
BRANCH 105 107
ATOM    107  C   SER d   1       6.557  -0.912  15.172  0.00  0.00     0.198 C 
ATOM    108  O   SER d   1       6.613  -2.143  15.358  0.00  0.00    -0.646 OA
ATOM    109  OXT SER d   1       6.484  -0.083  16.100  0.00  0.00    -0.646 OA
ENDBRANCH 105 107
BRANCH 105 110
ATOM    110  CB  SER d   1       7.492   0.823  13.629  0.00  0.00     0.045 C 
ATOM    111  H56 SER d   1       8.539   0.488  13.659  0.00  0.00     0.077 H 
ATOM    112  H57 SER d   1       7.299   1.500  14.475  0.00  0.00     0.077 H 
BRANCH 110 113
ATOM    113  OG  SER d   1       7.261   1.520  12.413  0.00  0.00    -0.398 OA
ATOM    114  H58 SER d   1       7.429   0.940  11.680  0.00  0.00     0.209 HD
ENDBRANCH 110 113
ENDBRANCH 105 110
ENDBRANCH 103 105
ENDBRANCH  90 101
ENDBRANCH  85  87
BRANCH  85 115
ATOM    115  CB  SER d   1       0.534  -1.441  15.803  0.00  0.00     0.044 C 
ATOM    116  H44 SER d   1       1.464  -1.819  16.252  0.00  0.00     0.077 H 
ATOM    117  H45 SER d   1       0.050  -2.246  15.231  0.00  0.00     0.077 H 
BRANCH 115 118
ATOM    118  OG  SER d   1      -0.343  -1.014  16.838  0.00  0.00    -0.398 OA
ATOM    119  H46 SER d   1      -0.535  -1.747  17.411  0.00  0.00     0.209 HD
ENDBRANCH 115 118
ENDBRANCH  85 115
ENDBRANCH  83  85
ENDBRANCH  79  81
BRANCH  79 120
ATOM    120  CB  THR d   1      -3.152   2.070  15.258  0.00  0.00     0.060 C 
ATOM    121  H37 THR d   1      -3.038   1.164  15.872  0.00  0.00     0.086 H 
BRANCH 120 122
ATOM    122  OG1 THR d   1      -4.450   2.059  14.643  0.00  0.00    -0.393 OA
ATOM    123  H38 THR d   1      -4.537   1.281  14.105  0.00  0.00     0.210 HD
ENDBRANCH 120 122
BRANCH 120 124
ATOM    124  CG2 THR d   1      -3.035   3.292  16.157  0.00  0.00    -0.050 C 
ATOM    125  H39 THR d   1      -3.828   3.264  16.919  0.00  0.00     0.031 H 
ATOM    126  H40 THR d   1      -3.140   4.204  15.551  0.00  0.00     0.031 H 
ATOM    127  H41 THR d   1      -2.052   3.291  16.651  0.00  0.00     0.031 H 
ENDBRANCH 120 124
ENDBRANCH  79 120
ENDBRANCH  77  79
ENDBRANCH   2  75
TORSDOF 30
