REMARK WARNING: 32 MAX_TORS EXCEEDED!!!
REMARK  73 active torsions:
REMARK  status: ('A' for Active; 'I' for Inactive)
REMARK    1  A    between atoms: N_1  and  CA_2 
REMARK    2  A    between atoms: CA_2  and  C_3 
REMARK    3  A    between atoms: CA_2  and  CB_5 
REMARK       I    between atoms: C_3  and  N_6 
REMARK    4  A    between atoms: N_6  and  CA_7 
REMARK    5  A    between atoms: CA_7  and  C_8 
REMARK    6  A    between atoms: CA_7  and  CB_10 
REMARK       I    between atoms: C_8  and  N_17 
REMARK    7  A    between atoms: CB_10  and  CG_11 
REMARK    8  A    between atoms: CG_11  and  CD_12 
REMARK    9  A    between atoms: CD_12  and  NE_13 
REMARK       I    between atoms: NE_13  and  CZ_14 
REMARK       I    between atoms: CZ_14  and  NH1_15 
REMARK       I    between atoms: CZ_14  and  NH2_16 
REMARK   10  A    between atoms: N_17  and  CA_18 
REMARK   11  A    between atoms: CA_18  and  C_19 
REMARK   12  A    between atoms: CA_18  and  CB_21 
REMARK       I    between atoms: C_19  and  N_24 
REMARK   13  A    between atoms: CB_21  and  OG1_22 
REMARK   14  A    between atoms: CB_21  and  CG2_23 
REMARK   15  A    between atoms: N_24  and  CA_25 
REMARK   16  A    between atoms: CA_25  and  C_26 
REMARK   17  A    between atoms: CA_25  and  CB_28 
REMARK       I    between atoms: C_26  and  N_33 
REMARK   18  A    between atoms: CB_28  and  CG_29 
REMARK   19  A    between atoms: CG_29  and  CD_30 
REMARK   20  A    between atoms: CD_30  and  CE_31 
REMARK   21  A    between atoms: CE_31  and  NZ_32 
REMARK   22  A    between atoms: N_33  and  CA_34 
REMARK   23  A    between atoms: CA_34  and  C_35 
REMARK   24  A    between atoms: CA_34  and  CB_37 
REMARK       I    between atoms: C_35  and  N_42 
REMARK   25  A    between atoms: CB_37  and  CG_38 
REMARK   26  A    between atoms: CG_38  and  CD_39 
REMARK       I    between atoms: CD_39  and  NE2_41 
REMARK   27  A    between atoms: N_42  and  CA_43 
REMARK   28  A    between atoms: CA_43  and  C_44 
REMARK   29  A    between atoms: CA_43  and  CB_46 
REMARK       I    between atoms: C_44  and  N_49 
REMARK   30  A    between atoms: CB_46  and  OG1_47 
REMARK   31  A    between atoms: CB_46  and  CG2_48 
REMARK   32  A    between atoms: N_49  and  CA_50 
REMARK   33  A    between atoms: CA_50  and  C_51 
REMARK   34  A    between atoms: CA_50  and  CB_53 
REMARK       I    between atoms: C_51  and  N_54 
REMARK   35  A    between atoms: N_54  and  CA_55 
REMARK   36  A    between atoms: CA_55  and  C_56 
REMARK   37  A    between atoms: CA_55  and  CB_58 
REMARK       I    between atoms: C_56  and  N_65 
REMARK   38  A    between atoms: CB_58  and  CG_59 
REMARK   39  A    between atoms: CG_59  and  CD_60 
REMARK   40  A    between atoms: CD_60  and  NE_61 
REMARK       I    between atoms: NE_61  and  CZ_62 
REMARK       I    between atoms: CZ_62  and  NH1_63 
REMARK   41  A    between atoms: N_65  and  CA_66 
REMARK   42  A    between atoms: CA_66  and  CB_67 
REMARK   43  A    between atoms: CA_66  and  C_72 
REMARK   44  A    between atoms: CB_67  and  CG_68 
REMARK   45  A    between atoms: CG_68  and  CD_69 
REMARK   46  A    between atoms: CD_69  and  CE_70 
REMARK   47  A    between atoms: CE_70  and  NZ_71 
REMARK   48  A    between atoms: NZ_71  and  CM1_74 
REMARK   49  A    between atoms: NZ_71  and  CM2_75 
REMARK   50  A    between atoms: NZ_71  and  CM3_76 
REMARK       I    between atoms: C_72  and  N_77 
REMARK   51  A    between atoms: N_77  and  CA_78 
REMARK   52  A    between atoms: CA_78  and  C_79 
REMARK   53  A    between atoms: CA_78  and  CB_81 
REMARK       I    between atoms: C_79  and  N_83 
REMARK   54  A    between atoms: CB_81  and  OG_82 
REMARK   55  A    between atoms: N_83  and  CA_84 
REMARK   56  A    between atoms: CA_84  and  C_85 
REMARK   57  A    between atoms: CA_84  and  CB_87 
REMARK       I    between atoms: C_85  and  N_90 
REMARK   58  A    between atoms: CB_87  and  OG1_88 
REMARK   59  A    between atoms: CB_87  and  CG2_89 
REMARK   60  A    between atoms: N_90  and  CA_91 
REMARK   61  A    between atoms: CA_91  and  C_92 
REMARK       I    between atoms: C_92  and  N_94 
REMARK   62  A    between atoms: N_94  and  CA_95 
REMARK   63  A    between atoms: CA_95  and  C_96 
REMARK       I    between atoms: C_96  and  N_98 
REMARK   64  A    between atoms: N_98  and  CA_99 
REMARK   65  A    between atoms: CA_99  and  C_100 
REMARK   66  A    between atoms: CA_99  and  CB_102 
REMARK       I    between atoms: C_100  and  N_107 
REMARK   67  A    between atoms: CB_102  and  CG_103 
REMARK   68  A    between atoms: CG_103  and  CD_104 
REMARK   69  A    between atoms: CD_104  and  CE_105 
REMARK   70  A    between atoms: CE_105  and  NZ_106 
REMARK   71  A    between atoms: N_107  and  CA_108 
REMARK   72  A    between atoms: CA_108  and  C_109 
REMARK   73  A    between atoms: CA_108  and  CB_111 
ROOT
ATOM      1  CA  ARG d   1       8.780   1.765   2.424  0.00  0.00     0.089 C 
ATOM      2  H   ARG d   1       7.844   2.004   1.918  0.00  0.00     0.087 H 
ENDROOT
BRANCH   1   3
ATOM      3  N   ARG d   1       9.926   1.878   1.512  0.00  0.00    -0.346 N 
ATOM      4  C   ALA d   1       9.873   2.452   0.311  0.00  0.00     0.240 C 
ATOM      5  O   ALA d   1       8.849   2.982  -0.139  0.00  0.00    -0.271 OA
ATOM      6  H   ARG d   1      10.819   1.492   1.818  0.00  0.00     0.163 HD
BRANCH   4   7
ATOM      7  CA  ALA d   1      11.173   2.424  -0.499  0.00  0.00     0.086 C 
ATOM      8  H   ALA d   1      11.779   1.580  -0.171  0.00  0.00     0.086 H 
BRANCH   7   9
ATOM      9  N   ALA d   1      10.868   2.251  -1.926  0.00  0.00    -0.346 N 
ATOM     10  C   THR d   1      11.689   1.651  -2.806  0.00  0.00     0.243 C 
ATOM     11  O   THR d   1      12.825   1.247  -2.516  0.00  0.00    -0.271 OA
ATOM     12  H   ALA d   1       9.977   2.609  -2.271  0.00  0.00     0.163 HD
BRANCH  10  13
ATOM     13  CA  THR d   1      11.139   1.514  -4.236  0.00  0.00     0.113 C 
ATOM     14  H   THR d   1      10.450   2.342  -4.405  0.00  0.00     0.091 H 
BRANCH  13  15
ATOM     15  N   THR d   1      12.217   1.601  -5.231  0.00  0.00    -0.344 N 
ATOM     16  C   GLN d   1      12.520   2.724  -5.892  0.00  0.00     0.241 C 
ATOM     17  O   GLN d   1      11.965   3.802  -5.667  0.00  0.00    -0.271 OA
ATOM     18  H   THR d   1      12.762   0.762  -5.428  0.00  0.00     0.163 HD
BRANCH  16  19
ATOM     19  CA  GLN d   1      13.598   2.622  -6.976  0.00  0.00     0.090 C 
ATOM     20  H   GLN d   1      13.731   1.574  -7.246  0.00  0.00     0.087 H 
BRANCH  19  21
ATOM     21  N   GLN d   1      13.167   3.397  -8.139  0.00  0.00    -0.346 N 
ATOM     22  C   LYS d   1      13.042   2.899  -9.366  0.00  0.00     0.241 C 
ATOM     23  O   LYS d   1      13.381   1.747  -9.671  0.00  0.00    -0.271 OA
ATOM     24  H   GLN d   1      12.948   4.383  -8.000  0.00  0.00     0.163 HD
BRANCH  22  25
ATOM     25  CA  LYS d   1      12.450   3.843 -10.413  0.00  0.00     0.089 C 
ATOM     26  H   LYS d   1      12.432   4.858 -10.017  0.00  0.00     0.087 H 
BRANCH  25  27
ATOM     27  N   LYS d   1      13.284   3.840 -11.620  0.00  0.00    -0.346 N 
ATOM     28  C   THR d   1      14.180   4.800 -11.897  0.00  0.00     0.243 C 
ATOM     29  O   THR d   1      14.277   5.840 -11.233  0.00  0.00    -0.271 OA
ATOM     30  H   LYS d   1      13.178   3.071 -12.281  0.00  0.00     0.163 HD
BRANCH  28  31
ATOM     31  CA  THR d   1      15.032   4.574 -13.159  0.00  0.00     0.113 C 
ATOM     32  H   THR d   1      15.175   3.500 -13.281  0.00  0.00     0.091 H 
BRANCH  31  33
ATOM     33  N   THR d   1      14.338   5.093 -14.341  0.00  0.00    -0.344 N 
ATOM     34  C   ARG d   1      13.436   4.395 -15.041  0.00  0.00     0.241 C 
ATOM     35  O   ARG d   1      13.115   3.230 -14.775  0.00  0.00    -0.271 OA
ATOM     36  H   THR d   1      14.555   6.041 -14.648  0.00  0.00     0.163 HD
BRANCH  34  37
ATOM     37  CA  ARG d   1      12.839   5.124 -16.254  0.00  0.00     0.089 C 
ATOM     38  H   ARG d   1      13.076   6.183 -16.152  0.00  0.00     0.087 H 
BRANCH  37  39
ATOM     39  N   ARG d   1      13.428   4.607 -17.502  0.00  0.00    -0.346 N 
ATOM     40  C   ALA d   1      14.449   5.203 -18.141  0.00  0.00     0.248 C 
ATOM     41  O   ALA d   1      14.970   6.252 -17.745  0.00  0.00    -0.271 OA
ATOM     42  H   ARG d   1      13.040   3.752 -17.902  0.00  0.00     0.163 HD
BRANCH  40  43
ATOM     43  CA  ALA d   1      14.950   4.518 -19.426  0.00  0.00     0.172 C 
ATOM     44  H   ALA d   1      16.033   4.636 -19.451  0.00  0.00     0.098 H 
BRANCH  43  45
ATOM     45  N   ALA d   1      14.637   3.067 -19.419  0.00  0.00    -0.067 N 
ATOM     46  H   ALA d   1      15.029   2.640 -18.580  0.00  0.00     0.275 HD
ATOM     47  H   ALA d   1      13.625   2.939 -19.426  0.00  0.00     0.275 HD
ATOM     48  H   ALA d   1      15.042   2.629 -20.246  0.00  0.00     0.275 HD
ENDBRANCH  43  45
BRANCH  43  49
ATOM     49  CB  ALA d   1      14.368   5.184 -20.683  0.00  0.00    -0.042 C 
ATOM     50  H   ALA d   1      13.280   5.117 -20.657  0.00  0.00     0.030 H 
ATOM     51  H   ALA d   1      14.669   6.231 -20.710  0.00  0.00     0.030 H 
ATOM     52  H   ALA d   1      14.744   4.674 -21.570  0.00  0.00     0.030 H 
ENDBRANCH  43  49
ENDBRANCH  40  43
ENDBRANCH  37  39
BRANCH  37  53
ATOM     53  CB  ARG d   1      11.297   4.972 -16.303  0.00  0.00    -0.036 C 
ATOM     54  H   ARG d   1      10.900   5.396 -15.380  0.00  0.00     0.036 H 
ATOM     55  H   ARG d   1      11.079   3.912 -16.431  0.00  0.00     0.036 H 
BRANCH  53  56
ATOM     56  CG  ARG d   1      10.631   5.724 -17.479  0.00  0.00    -0.048 C 
ATOM     57  H   ARG d   1       9.551   5.617 -17.378  0.00  0.00     0.035 H 
ATOM     58  H   ARG d   1      11.008   5.296 -18.408  0.00  0.00     0.035 H 
BRANCH  56  59
ATOM     59  CD  ARG d   1      10.961   7.229 -17.480  0.00  0.00     0.009 C 
ATOM     60  H   ARG d   1      12.042   7.338 -17.572  0.00  0.00     0.064 H 
ATOM     61  H   ARG d   1      10.579   7.660 -16.554  0.00  0.00     0.064 H 
BRANCH  59  62
ATOM     62  NE  ARG d   1      10.332   7.938 -18.607  0.00  0.00    -0.227 N 
ATOM     63  CZ  ARG d   1       9.742   9.138 -18.530  0.00  0.00     0.665 C 
ATOM     64  NH1 ARG d   1       9.589   9.760 -17.356  0.00  0.00    -0.235 N 
ATOM     65  NH2 ARG d   1       9.279   9.698 -19.634  0.00  0.00    -0.235 N 
ATOM     66  H   ARG d   1       9.924   9.321 -16.499  0.00  0.00     0.174 HD
ATOM     67  H   ARG d   1       9.137  10.674 -17.318  0.00  0.00     0.174 HD
ATOM     68  H   ARG d   1       9.373   9.217 -20.528  0.00  0.00     0.174 HD
ATOM     69  H   ARG d   1       8.827  10.611 -19.592  0.00  0.00     0.174 HD
ATOM     70  H   ARG d   1      10.347   7.479 -19.518  0.00  0.00     0.177 HD
ENDBRANCH  59  62
ENDBRANCH  56  59
ENDBRANCH  53  56
ENDBRANCH  37  53
ENDBRANCH  34  37
ENDBRANCH  31  33
BRANCH  31  71
ATOM     71  CB  THR d   1      16.452   5.225 -13.016  0.00  0.00     0.060 C 
ATOM     72  H   THR d   1      16.886   4.867 -12.082  0.00  0.00     0.086 H 
BRANCH  71  73
ATOM     73  OG1 THR d   1      16.344   6.667 -12.979  0.00  0.00    -0.393 OA
ATOM     74  H   THR d   1      15.803   6.927 -12.230  0.00  0.00     0.210 HD
ENDBRANCH  71  73
BRANCH  71  75
ATOM     75  CG2 THR d   1      17.371   4.815 -14.178  0.00  0.00    -0.050 C 
ATOM     76  H   THR d   1      17.484   3.731 -14.185  0.00  0.00     0.031 H 
ATOM     77  H   THR d   1      16.931   5.142 -15.120  0.00  0.00     0.031 H 
ATOM     78  H   THR d   1      18.347   5.282 -14.050  0.00  0.00     0.031 H 
ENDBRANCH  71  75
ENDBRANCH  31  71
ENDBRANCH  28  31
ENDBRANCH  25  27
BRANCH  25  79
ATOM     79  CB  LYS d   1      10.995   3.425 -10.737  0.00  0.00    -0.038 C 
ATOM     80  H   LYS d   1      10.470   3.334  -9.786  0.00  0.00     0.036 H 
ATOM     81  H   LYS d   1      11.049   2.501 -11.313  0.00  0.00     0.036 H 
BRANCH  79  82
ATOM     82  CG  LYS d   1      10.212   4.444 -11.590  0.00  0.00    -0.061 C 
ATOM     83  H   LYS d   1      10.655   4.468 -12.585  0.00  0.00     0.033 H 
ATOM     84  H   LYS d   1      10.265   5.414 -11.097  0.00  0.00     0.033 H 
BRANCH  82  85
ATOM     85  CD  LYS d   1       8.723   4.055 -11.733  0.00  0.00    -0.043 C 
ATOM     86  H   LYS d   1       8.299   3.989 -10.731  0.00  0.00     0.035 H 
ATOM     87  H   LYS d   1       8.677   3.112 -12.277  0.00  0.00     0.035 H 
BRANCH  85  88
ATOM     88  CE  LYS d   1       7.907   5.089 -12.519  0.00  0.00     0.080 C 
ATOM     89  H   LYS d   1       8.320   5.152 -13.526  0.00  0.00     0.075 H 
ATOM     90  H   LYS d   1       7.964   6.040 -11.989  0.00  0.00     0.075 H 
BRANCH  88  91
ATOM     91  NZ  LYS d   1       6.473   4.708 -12.631  0.00  0.00    -0.079 N 
ATOM     92  H   LYS d   1       5.973   5.423 -13.159  0.00  0.00     0.274 HD
ATOM     93  H   LYS d   1       6.397   3.812 -13.112  0.00  0.00     0.274 HD
ATOM     94  H   LYS d   1       6.069   4.629 -11.697  0.00  0.00     0.274 HD
ENDBRANCH  88  91
ENDBRANCH  85  88
ENDBRANCH  82  85
ENDBRANCH  79  82
ENDBRANCH  25  79
ENDBRANCH  22  25
ENDBRANCH  19  21
BRANCH  19  95
ATOM     95  CB  GLN d   1      14.958   3.154  -6.466  0.00  0.00    -0.030 C 
ATOM     96  H   GLN d   1      15.165   2.636  -5.530  0.00  0.00     0.037 H 
ATOM     97  H   GLN d   1      14.860   4.237  -6.387  0.00  0.00     0.037 H 
BRANCH  95  98
ATOM     98  CG  GLN d   1      16.163   2.885  -7.397  0.00  0.00     0.011 C 
ATOM     99  H   GLN d   1      17.019   3.424  -6.992  0.00  0.00     0.047 H 
ATOM    100  H   GLN d   1      15.884   3.210  -8.399  0.00  0.00     0.047 H 
BRANCH  98 101
ATOM    101  CD  GLN d   1      16.545   1.405  -7.480  0.00  0.00     0.215 C 
ATOM    102  OE1 GLN d   1      17.354   0.916  -6.687  0.00  0.00    -0.274 OA
ATOM    103  NE2 GLN d   1      15.968   0.679  -8.431  0.00  0.00    -0.370 N 
ATOM    104  H   GLN d   1      16.190  -0.312  -8.521  0.00  0.00     0.159 HD
ATOM    105  H   GLN d   1      15.303   1.113  -9.071  0.00  0.00     0.159 HD
ENDBRANCH  98 101
ENDBRANCH  95  98
ENDBRANCH  19  95
ENDBRANCH  16  19
ENDBRANCH  13  15
BRANCH  13 106
ATOM    106  CB  THR d   1      10.359   0.168  -4.403  0.00  0.00     0.060 C 
ATOM    107  H   THR d   1       9.684   0.076  -3.552  0.00  0.00     0.086 H 
BRANCH 106 108
ATOM    108  OG1 THR d   1      11.284  -0.934  -4.431  0.00  0.00    -0.393 OA
ATOM    109  H   THR d   1      10.798  -1.756  -4.534  0.00  0.00     0.210 HD
ENDBRANCH 106 108
BRANCH 106 110
ATOM    110  CG2 THR d   1       9.516   0.147  -5.693  0.00  0.00    -0.050 C 
ATOM    111  H   THR d   1       8.791   0.961  -5.665  0.00  0.00     0.031 H 
ATOM    112  H   THR d   1      10.171   0.272  -6.556  0.00  0.00     0.031 H 
ATOM    113  H   THR d   1       8.992  -0.806  -5.768  0.00  0.00     0.031 H 
ENDBRANCH 106 110
ENDBRANCH  13 106
ENDBRANCH  10  13
ENDBRANCH   7   9
BRANCH   7 114
ATOM    114  CB  ALA d   1      11.984   3.704  -0.259  0.00  0.00    -0.049 C 
ATOM    115  H   ALA d   1      12.921   3.648  -0.812  0.00  0.00     0.030 H 
ATOM    116  H   ALA d   1      11.410   4.566  -0.601  0.00  0.00     0.030 H 
ATOM    117  H   ALA d   1      12.194   3.805   0.806  0.00  0.00     0.030 H 
ENDBRANCH   7 114
ENDBRANCH   4   7
ENDBRANCH   1   3
BRANCH   1 118
ATOM    118  C   ARG d   1       8.972   2.757   3.581  0.00  0.00     0.241 C 
ATOM    119  O   ARG d   1      10.057   2.812   4.168  0.00  0.00    -0.271 OA
ATOM    120  N   M3L d   1       7.941   3.562   3.891  0.00  0.00    -0.346 N 
ATOM    121  H   M3L d   1       7.081   3.498   3.347  0.00  0.00     0.163 HD
BRANCH 120 122
ATOM    122  CA  M3L d   1       8.020   4.531   4.992  0.00  0.00     0.089 C 
ATOM    123  H   M3L d   1       9.007   4.993   4.958  0.00  0.00     0.087 H 
BRANCH 122 124
ATOM    124  CB  M3L d   1       6.985   5.676   4.828  0.00  0.00    -0.038 C 
ATOM    125  H   M3L d   1       6.982   6.252   5.753  0.00  0.00     0.036 H 
ATOM    126  H   M3L d   1       6.022   5.219   4.600  0.00  0.00     0.036 H 
BRANCH 124 127
ATOM    127  CG  M3L d   1       7.324   6.650   3.673  0.00  0.00    -0.061 C 
ATOM    128  H   M3L d   1       7.133   6.128   2.736  0.00  0.00     0.033 H 
ATOM    129  H   M3L d   1       8.364   6.955   3.795  0.00  0.00     0.033 H 
BRANCH 127 130
ATOM    130  CD  M3L d   1       6.458   7.933   3.677  0.00  0.00    -0.042 C 
ATOM    131  H   M3L d   1       6.502   8.374   4.673  0.00  0.00     0.035 H 
ATOM    132  H   M3L d   1       5.439   7.661   3.402  0.00  0.00     0.035 H 
BRANCH 130 133
ATOM    133  CE  M3L d   1       6.977   8.978   2.656  0.00  0.00     0.084 C 
ATOM    134  H   M3L d   1       6.820   8.555   1.664  0.00  0.00     0.076 H 
ATOM    135  H   M3L d   1       8.018   9.177   2.910  0.00  0.00     0.076 H 
BRANCH 133 136
ATOM    136  NZ  M3L d   1       6.244  10.332   2.685  0.00  0.00    -0.079 N 
BRANCH 136 137
ATOM    137  CM1 M3L d   1       6.919  11.285   1.689  0.00  0.00     0.067 C 
ATOM    138  H   M3L d   1       7.963  11.424   1.972  0.00  0.00     0.068 H 
ATOM    139  H   M3L d   1       6.866  10.858   0.687  0.00  0.00     0.068 H 
ATOM    140  H   M3L d   1       6.406  12.246   1.703  0.00  0.00     0.068 H 
ENDBRANCH 136 137
BRANCH 136 141
ATOM    141  CM2 M3L d   1       4.780  10.140   2.291  0.00  0.00     0.067 C 
ATOM    142  H   M3L d   1       4.727   9.724   1.285  0.00  0.00     0.068 H 
ATOM    143  H   M3L d   1       4.303   9.457   2.994  0.00  0.00     0.068 H 
ATOM    144  H   M3L d   1       4.269  11.103   2.314  0.00  0.00     0.068 H 
ENDBRANCH 136 141
BRANCH 136 145
ATOM    145  CM3 M3L d   1       6.323  10.943   4.083  0.00  0.00     0.067 C 
ATOM    146  H   M3L d   1       5.856  10.268   4.800  0.00  0.00     0.068 H 
ATOM    147  H   M3L d   1       7.368  11.096   4.353  0.00  0.00     0.068 H 
ATOM    148  H   M3L d   1       5.801  11.900   4.090  0.00  0.00     0.068 H 
ENDBRANCH 136 145
ENDBRANCH 133 136
ENDBRANCH 130 133
ENDBRANCH 127 130
ENDBRANCH 124 127
ENDBRANCH 122 124
BRANCH 122 149
ATOM    149  C   M3L d   1       7.878   3.827   6.347  0.00  0.00     0.241 C 
ATOM    150  O   M3L d   1       6.898   3.113   6.596  0.00  0.00    -0.271 OA
ATOM    151  N   SER d   1       8.904   4.024   7.191  0.00  0.00    -0.344 N 
ATOM    152  H   SER d   1       9.682   4.598   6.864  0.00  0.00     0.163 HD
BRANCH 151 153
ATOM    153  CA  SER d   1       8.987   3.477   8.542  0.00  0.00     0.109 C 
ATOM    154  H   SER d   1       8.709   2.423   8.532  0.00  0.00     0.090 H 
BRANCH 153 155
ATOM    155  C   SER d   1       8.001   4.205   9.470  0.00  0.00     0.243 C 
ATOM    156  O   SER d   1       8.349   5.203  10.123  0.00  0.00    -0.271 OA
ATOM    157  N   THR d   1       6.747   3.730   9.456  0.00  0.00    -0.344 N 
ATOM    158  H   THR d   1       6.521   2.985   8.797  0.00  0.00     0.163 HD
BRANCH 157 159
ATOM    159  CA  THR d   1       5.690   4.221  10.331  0.00  0.00     0.113 C 
ATOM    160  H   THR d   1       5.753   5.305  10.430  0.00  0.00     0.091 H 
BRANCH 159 161
ATOM    161  C   THR d   1       5.873   3.595  11.725  0.00  0.00     0.243 C 
ATOM    162  O   THR d   1       5.332   2.524  12.018  0.00  0.00    -0.271 OA
ATOM    163  N   GLY d   1       6.703   4.254  12.549  0.00  0.00    -0.350 N 
ATOM    164  H   GLY d   1       7.042   5.173  12.265  0.00  0.00     0.163 HD
BRANCH 163 165
ATOM    165  CA  GLY d   1       7.144   3.714  13.837  0.00  0.00     0.069 C 
ATOM    166  H   GLY d   1       6.469   2.907  14.123  0.00  0.00     0.078 H 
ATOM    167  H   GLY d   1       7.136   4.520  14.571  0.00  0.00     0.078 H 
BRANCH 165 168
ATOM    168  C   GLY d   1       8.559   3.153  13.751  0.00  0.00     0.235 C 
ATOM    169  O   GLY d   1       9.320   3.523  12.849  0.00  0.00    -0.272 OA
ATOM    170  N   GLY d   1       8.900   2.238  14.675  0.00  0.00    -0.351 N 
ATOM    171  H   GLY d   1       8.198   1.940  15.353  0.00  0.00     0.163 HD
BRANCH 170 172
ATOM    172  CA  GLY d   1      10.240   1.653  14.745  0.00  0.00     0.069 C 
ATOM    173  H   GLY d   1      10.947   2.423  15.055  0.00  0.00     0.078 H 
ATOM    174  H   GLY d   1      10.508   1.262  13.763  0.00  0.00     0.078 H 
BRANCH 172 175
ATOM    175  C   GLY d   1      10.272   0.517  15.755  0.00  0.00     0.236 C 
ATOM    176  O   GLY d   1      10.101   0.757  16.957  0.00  0.00    -0.272 OA
ATOM    177  N   LYS d   1      10.466  -0.726  15.269  0.00  0.00    -0.346 N 
ATOM    178  H   LYS d   1      10.640  -0.837  14.270  0.00  0.00     0.163 HD
BRANCH 177 179
ATOM    179  CA  LYS d   1      10.438  -1.933  16.117  0.00  0.00     0.089 C 
ATOM    180  H   LYS d   1       9.588  -1.868  16.796  0.00  0.00     0.087 H 
BRANCH 179 181
ATOM    181  C   LYS d   1      11.720  -2.021  16.976  0.00  0.00     0.241 C 
ATOM    182  O   LYS d   1      12.745  -2.561  16.542  0.00  0.00    -0.271 OA
ATOM    183  N   ALA d   1      11.663  -1.407  18.167  0.00  0.00    -0.345 N 
ATOM    184  H   ALA d   1      10.832  -0.858  18.385  0.00  0.00     0.163 HD
BRANCH 183 185
ATOM    185  CA  ALA d   1      12.725  -1.480  19.172  0.00  0.00     0.093 C 
ATOM    186  H   ALA d   1      13.668  -1.792  18.724  0.00  0.00     0.089 H 
BRANCH 185 187
ATOM    187  C   ALA d   1      12.328  -2.536  20.233  0.00  0.00     0.196 C 
ATOM    188  O   ALA d   1      12.758  -3.700  20.121  0.00  0.00    -0.646 OA
ATOM    189  OXT ALA d   1      11.546  -2.211  21.148  0.00  0.00    -0.646 OA
ENDBRANCH 185 187
BRANCH 185 190
ATOM    190  CB  ALA d   1      12.964  -0.078  19.782  0.00  0.00    -0.048 C 
ATOM    191  H   ALA d   1      13.259   0.614  18.994  0.00  0.00     0.030 H 
ATOM    192  H   ALA d   1      12.045   0.274  20.251  0.00  0.00     0.030 H 
ATOM    193  H   ALA d   1      13.755  -0.138  20.529  0.00  0.00     0.030 H 
ENDBRANCH 185 190
ENDBRANCH 183 185
ENDBRANCH 179 181
BRANCH 179 194
ATOM    194  CB  LYS d   1      10.254  -3.209  15.235  0.00  0.00    -0.038 C 
ATOM    195  H   LYS d   1      11.180  -3.322  14.672  0.00  0.00     0.036 H 
ATOM    196  H   LYS d   1       9.347  -3.045  14.653  0.00  0.00     0.036 H 
BRANCH 194 197
ATOM    197  CG  LYS d   1      10.042  -4.560  15.995  0.00  0.00    -0.061 C 
ATOM    198  H   LYS d   1      10.709  -4.542  16.857  0.00  0.00     0.033 H 
ATOM    199  H   LYS d   1      10.234  -5.357  15.277  0.00  0.00     0.033 H 
BRANCH 197 200
ATOM    200  CD  LYS d   1       8.600  -4.792  16.548  0.00  0.00    -0.043 C 
ATOM    201  H   LYS d   1       8.534  -5.843  16.831  0.00  0.00     0.035 H 
ATOM    202  H   LYS d   1       7.907  -4.487  15.764  0.00  0.00     0.035 H 
BRANCH 200 203
ATOM    203  CE  LYS d   1       8.251  -3.966  17.802  0.00  0.00     0.080 C 
ATOM    204  H   LYS d   1       8.294  -2.910  17.537  0.00  0.00     0.075 H 
ATOM    205  H   LYS d   1       8.964  -4.221  18.586  0.00  0.00     0.075 H 
BRANCH 203 206
ATOM    206  NZ  LYS d   1       6.888  -4.262  18.302  0.00  0.00    -0.079 N 
ATOM    207  H   LYS d   1       6.700  -3.696  19.129  0.00  0.00     0.274 HD
ATOM    208  H   LYS d   1       6.206  -4.043  17.576  0.00  0.00     0.274 HD
ATOM    209  H   LYS d   1       6.823  -5.251  18.544  0.00  0.00     0.274 HD
ENDBRANCH 203 206
ENDBRANCH 200 203
ENDBRANCH 197 200
ENDBRANCH 194 197
ENDBRANCH 179 194
ENDBRANCH 177 179
ENDBRANCH 172 175
ENDBRANCH 170 172
ENDBRANCH 165 168
ENDBRANCH 163 165
ENDBRANCH 159 161
BRANCH 159 210
ATOM    210  CB  THR d   1       4.274   3.912   9.715  0.00  0.00     0.060 C 
ATOM    211  H   THR d   1       3.538   4.155  10.481  0.00  0.00     0.086 H 
BRANCH 210 212
ATOM    212  OG1 THR d   1       4.169   2.521   9.352  0.00  0.00    -0.393 OA
ATOM    213  H   THR d   1       4.293   1.977  10.133  0.00  0.00     0.210 HD
ENDBRANCH 210 212
BRANCH 210 214
ATOM    214  CG2 THR d   1       3.996   4.767   8.466  0.00  0.00    -0.050 C 
ATOM    215  H   THR d   1       4.030   5.823   8.735  0.00  0.00     0.031 H 
ATOM    216  H   THR d   1       4.752   4.559   7.709  0.00  0.00     0.031 H 
ATOM    217  H   THR d   1       3.009   4.523   8.072  0.00  0.00     0.031 H 
ENDBRANCH 210 214
ENDBRANCH 159 210
ENDBRANCH 157 159
ENDBRANCH 153 155
BRANCH 153 218
ATOM    218  CB  SER d   1      10.447   3.588   9.055  0.00  0.00     0.044 C 
ATOM    219  H   SER d   1      10.691   4.645   9.167  0.00  0.00     0.077 H 
ATOM    220  H   SER d   1      11.100   3.094   8.336  0.00  0.00     0.077 H 
BRANCH 218 221
ATOM    221  OG  SER d   1      10.615   2.957  10.316  0.00  0.00    -0.398 OA
ATOM    222  H   SER d   1      10.037   3.373  10.960  0.00  0.00     0.209 HD
ENDBRANCH 218 221
ENDBRANCH 153 218
ENDBRANCH 151 153
ENDBRANCH 122 149
ENDBRANCH 120 122
ENDBRANCH   1 118
BRANCH   1 223
ATOM    223  CB  ARG d   1       8.709   0.301   2.940  0.00  0.00    -0.036 C 
ATOM    224  H   ARG d   1       7.834   0.229   3.586  0.00  0.00     0.036 H 
ATOM    225  H   ARG d   1       9.653   0.090   3.443  0.00  0.00     0.036 H 
BRANCH 223 226
ATOM    226  CG  ARG d   1       8.540  -0.758   1.819  0.00  0.00    -0.048 C 
ATOM    227  H   ARG d   1       9.290  -0.550   1.056  0.00  0.00     0.035 H 
ATOM    228  H   ARG d   1       7.516  -0.687   1.453  0.00  0.00     0.035 H 
BRANCH 226 229
ATOM    229  CD  ARG d   1       8.760  -2.206   2.302  0.00  0.00     0.009 C 
ATOM    230  H   ARG d   1       9.794  -2.295   2.635  0.00  0.00     0.064 H 
ATOM    231  H   ARG d   1       8.527  -2.875   1.474  0.00  0.00     0.064 H 
BRANCH 229 232
ATOM    232  NE  ARG d   1       7.882  -2.567   3.440  0.00  0.00    -0.227 N 
ATOM    233  CZ  ARG d   1       7.199  -3.715   3.561  0.00  0.00     0.665 C 
ATOM    234  NH1 ARG d   1       7.205  -4.620   2.586  0.00  0.00    -0.235 N 
ATOM    235  NH2 ARG d   1       6.503  -3.948   4.660  0.00  0.00    -0.235 N 
ATOM    236  H   ARG d   1       7.734  -4.446   1.732  0.00  0.00     0.174 HD
ATOM    237  H   ARG d   1       6.681  -5.488   2.693  0.00  0.00     0.174 HD
ATOM    238  H   ARG d   1       6.487  -3.257   5.410  0.00  0.00     0.174 HD
ATOM    239  H   ARG d   1       5.981  -4.819   4.758  0.00  0.00     0.174 HD
ATOM    240  H   ARG d   1       7.789  -1.886   4.194  0.00  0.00     0.177 HD
ENDBRANCH 229 232
ENDBRANCH 226 229
ENDBRANCH 223 226
ENDBRANCH   1 223
TORSDOF 73
