REMARK  4 active torsions:
REMARK  status: ('A' for Active; 'I' for Inactive)
REMARK    1  A    between atoms: OAM_11  and  CAL_10 
REMARK    2  A    between atoms: CAL_10  and  CAN_12 
REMARK    3  A    between atoms: CAP_14  and  OAM_11 
REMARK    4  A    between atoms: CAR_16  and  CAS_17 
ROOT
ATOM      1  CAF SXK d   1      57.095   6.568  -2.986  0.00  0.00    -0.050 A 
ATOM      2  CAG SXK d   1      58.165   6.556  -0.764  0.00  0.00    -0.050 A 
ATOM      3  CAH SXK d   1      56.889   5.173  -2.899  0.00  0.00    -0.070 A 
ATOM      4  CAI SXK d   1      57.965   5.163  -0.669  0.00  0.00    -0.070 A 
ATOM      5  CAP SXK d   1      57.733   7.257  -1.915  0.00  0.00     0.069 A 
ATOM      6  CAR SXK d   1      57.327   4.469  -1.738  0.00  0.00    -0.023 A 
ATOM      7  H   SXK d   1      56.767   7.115  -3.870  0.00  0.00     0.087 H 
ATOM      8  H   SXK d   1      58.653   7.093   0.050  0.00  0.00     0.087 H 
ATOM      9  H   SXK d   1      56.399   4.639  -3.713  0.00  0.00     0.085 H 
ATOM     10  H   SXK d   1      58.296   4.621   0.216  0.00  0.00     0.085 H 
ENDROOT
BRANCH   6  11
ATOM     11  CAS SXK d   1      57.124   3.080  -1.649  0.00  0.00     0.013 A 
ATOM     12  CAJ SXK d   1      56.411   2.558  -0.551  0.00  0.00    -0.066 A 
ATOM     13  CAE SXK d   1      56.225   1.156  -0.455  0.00  0.00    -0.045 A 
ATOM     14  H   SXK d   1      56.008   3.223   0.213  0.00  0.00     0.085 H 
ATOM     15  CAO SXK d   1      56.745   0.308  -1.450  0.00  0.00     0.119 A 
ATOM     16  H   SXK d   1      55.679   0.735   0.389  0.00  0.00     0.088 H 
ATOM     17  CAK SXK d   1      57.452   0.817  -2.546  0.00  0.00    -0.008 A 
ATOM     18  FCC SXK d   1      56.558  -1.035  -1.341  0.00  0.00    -0.206 F 
ATOM     19  CAQ SXK d   1      57.644   2.216  -2.651  0.00  0.00     0.130 A 
ATOM     20  H   SXK d   1      57.849   0.146  -3.308  0.00  0.00     0.093 H 
ATOM     21  FDD SXK d   1      58.337   2.690  -3.732  0.00  0.00    -0.205 F 
ENDBRANCH   6  11
BRANCH   5  22
ATOM     22  OAM SXK d   1      57.879   8.607  -2.127  0.00  0.00    -0.341 OA
BRANCH  22  23
ATOM     23  CAL SXK d   1      59.162   9.231  -2.376  0.00  0.00     0.105 C 
ATOM     24  H   SXK d   1      59.033   9.913  -3.216  0.00  0.00     0.091 H 
ATOM     25  H   SXK d   1      59.880   8.433  -2.562  0.00  0.00     0.091 H 
BRANCH  23  26
ATOM     26  CAN SXK d   1      59.692  10.057  -1.192  0.00  0.00     0.198 C 
ATOM     27  OAA SXK d   1      59.771  11.305  -1.320  0.00  0.00    -0.646 OA
ATOM     28  OAB SXK d   1      60.015   9.423  -0.167  0.00  0.00    -0.646 OA
ENDBRANCH  23  26
ENDBRANCH  22  23
ENDBRANCH   5  22
TORSDOF 4
