REMARK WARNING: 32 MAX_TORS EXCEEDED!!!
REMARK  59 active torsions:
REMARK  status: ('A' for Active; 'I' for Inactive)
REMARK    1  A    between atoms: N_1  and  CA_2 
REMARK    2  A    between atoms: CA_2  and  C_3 
REMARK    3  A    between atoms: CA_2  and  CB_5 
REMARK       I    between atoms: C_3  and  N_6 
REMARK    4  A    between atoms: N_6  and  CA_7 
REMARK    5  A    between atoms: CA_7  and  C_8 
REMARK    6  A    between atoms: CA_7  and  CB_10 
REMARK       I    between atoms: C_8  and  N_17 
REMARK    7  A    between atoms: CB_10  and  CG_11 
REMARK    8  A    between atoms: CG_11  and  CD_12 
REMARK    9  A    between atoms: CD_12  and  NE_13 
REMARK       I    between atoms: NE_13  and  CZ_14 
REMARK       I    between atoms: CZ_14  and  NH1_15 
REMARK       I    between atoms: CZ_14  and  NH2_16 
REMARK   10  A    between atoms: N_17  and  CA_18 
REMARK   11  A    between atoms: CA_18  and  C_19 
REMARK   12  A    between atoms: CA_18  and  CB_21 
REMARK       I    between atoms: C_19  and  N_24 
REMARK   13  A    between atoms: CB_21  and  OG1_22 
REMARK   14  A    between atoms: CB_21  and  CG2_23 
REMARK   15  A    between atoms: N_24  and  CA_25 
REMARK   16  A    between atoms: CA_25  and  C_26 
REMARK   17  A    between atoms: CA_25  and  CB_28 
REMARK       I    between atoms: C_26  and  N_33 
REMARK   18  A    between atoms: CB_28  and  CG_29 
REMARK   19  A    between atoms: CG_29  and  CD_30 
REMARK   20  A    between atoms: CD_30  and  CE_31 
REMARK   21  A    between atoms: CE_31  and  NZ_32 
REMARK   22  A    between atoms: N_33  and  CA_34 
REMARK   23  A    between atoms: CA_34  and  C_35 
REMARK   24  A    between atoms: CA_34  and  CB_37 
REMARK       I    between atoms: C_35  and  N_42 
REMARK   25  A    between atoms: CB_37  and  CG_38 
REMARK   26  A    between atoms: CG_38  and  CD_39 
REMARK       I    between atoms: CD_39  and  NE2_41 
REMARK   27  A    between atoms: N_42  and  CA_43 
REMARK   28  A    between atoms: CA_43  and  C_44 
REMARK   29  A    between atoms: CA_43  and  CB_46 
REMARK       I    between atoms: C_44  and  N_49 
REMARK   30  A    between atoms: CB_46  and  OG1_47 
REMARK   31  A    between atoms: CB_46  and  CG2_48 
REMARK   32  A    between atoms: N_49  and  CA_50 
REMARK   33  A    between atoms: CA_50  and  C_51 
REMARK   34  A    between atoms: CA_50  and  CB_53 
REMARK       I    between atoms: C_51  and  N_54 
REMARK   35  A    between atoms: N_54  and  CA_55 
REMARK   36  A    between atoms: CA_55  and  C_56 
REMARK   37  A    between atoms: CA_55  and  CB_58 
REMARK       I    between atoms: C_56  and  N_65 
REMARK   38  A    between atoms: CB_58  and  CG_59 
REMARK   39  A    between atoms: CG_59  and  CD_60 
REMARK   40  A    between atoms: CD_60  and  NE_61 
REMARK       I    between atoms: NE_61  and  CZ_62 
REMARK       I    between atoms: CZ_62  and  NH1_63 
REMARK   41  A    between atoms: N_65  and  CA_66 
REMARK   42  A    between atoms: CA_66  and  CB_67 
REMARK   43  A    between atoms: CA_66  and  C_72 
REMARK   44  A    between atoms: CB_67  and  CG_68 
REMARK   45  A    between atoms: CG_68  and  CD_69 
REMARK   46  A    between atoms: CD_69  and  CE_70 
REMARK   47  A    between atoms: CE_70  and  NZ_71 
REMARK   48  A    between atoms: NZ_71  and  CM1_74 
REMARK   49  A    between atoms: NZ_71  and  CM2_75 
REMARK   50  A    between atoms: NZ_71  and  CM3_76 
REMARK       I    between atoms: C_72  and  N_77 
REMARK   51  A    between atoms: N_77  and  CA_78 
REMARK   52  A    between atoms: CA_78  and  C_79 
REMARK   53  A    between atoms: CA_78  and  CB_81 
REMARK       I    between atoms: C_79  and  N_83 
REMARK   54  A    between atoms: CB_81  and  OG_82 
REMARK   55  A    between atoms: N_83  and  CA_84 
REMARK   56  A    between atoms: CA_84  and  C_85 
REMARK   57  A    between atoms: CA_84  and  CB_87 
REMARK   58  A    between atoms: CB_87  and  OG1_88 
REMARK   59  A    between atoms: CB_87  and  CG2_89 
ROOT
ATOM      1  CA  THR d   1      11.286   6.582  -9.047  0.00  0.00     0.113 C 
ATOM      2  H   THR d   1      11.049   5.615  -8.603  0.00  0.00     0.091 H 
ENDROOT
BRANCH   1   3
ATOM      3  N   THR d   1      12.320   7.265  -8.247  0.00  0.00    -0.344 N 
ATOM      4  C   GLN d   1      13.143   6.645  -7.399  0.00  0.00     0.241 C 
ATOM      5  O   GLN d   1      13.034   5.456  -7.098  0.00  0.00    -0.271 OA
ATOM      6  H   THR d   1      12.412   8.276  -8.348  0.00  0.00     0.163 HD
BRANCH   4   7
ATOM      7  CA  GLN d   1      14.263   7.511  -6.796  0.00  0.00     0.090 C 
ATOM      8  H   GLN d   1      13.949   8.553  -6.731  0.00  0.00     0.087 H 
BRANCH   7   9
ATOM      9  N   GLN d   1      14.557   7.042  -5.424  0.00  0.00    -0.346 N 
ATOM     10  C   LYS d   1      14.259   7.746  -4.316  0.00  0.00     0.241 C 
ATOM     11  O   LYS d   1      13.873   8.920  -4.349  0.00  0.00    -0.271 OA
ATOM     12  H   GLN d   1      15.011   6.135  -5.311  0.00  0.00     0.163 HD
BRANCH  10  13
ATOM     13  CA  LYS d   1      14.464   7.021  -2.970  0.00  0.00     0.089 C 
ATOM     14  H   LYS d   1      14.591   5.960  -3.185  0.00  0.00     0.087 H 
BRANCH  13  15
ATOM     15  N   LYS d   1      15.678   7.498  -2.282  0.00  0.00    -0.346 N 
ATOM     16  C   THR d   1      16.568   6.664  -1.702  0.00  0.00     0.243 C 
ATOM     17  O   THR d   1      16.487   5.431  -1.786  0.00  0.00    -0.271 OA
ATOM     18  H   LYS d   1      15.853   8.502  -2.242  0.00  0.00     0.163 HD
BRANCH  16  19
ATOM     19  CA  THR d   1      17.729   7.306  -0.916  0.00  0.00     0.113 C 
ATOM     20  H   THR d   1      17.374   8.208  -0.417  0.00  0.00     0.091 H 
BRANCH  19  21
ATOM     21  N   THR d   1      18.214   6.348   0.099  0.00  0.00    -0.344 N 
ATOM     22  C   ARG d   1      18.444   6.682   1.379  0.00  0.00     0.241 C 
ATOM     23  O   ARG d   1      18.124   7.784   1.845  0.00  0.00    -0.271 OA
ATOM     24  H   THR d   1      18.383   5.384  -0.187  0.00  0.00     0.163 HD
BRANCH  22  25
ATOM     25  CA  ARG d   1      19.093   5.601   2.288  0.00  0.00     0.089 C 
ATOM     26  H   ARG d   1      18.272   5.197   2.881  0.00  0.00     0.087 H 
BRANCH  25  27
ATOM     27  N   ARG d   1      19.709   4.482   1.517  0.00  0.00    -0.346 N 
ATOM     28  C   ALA d   1      20.768   4.640   0.666  0.00  0.00     0.248 C 
ATOM     29  O   ALA d   1      21.251   5.738   0.356  0.00  0.00    -0.271 OA
ATOM     30  H   ARG d   1      19.318   3.547   1.631  0.00  0.00     0.163 HD
BRANCH  28  31
ATOM     31  CA  ALA d   1      21.358   3.366   0.052  0.00  0.00     0.172 C 
ATOM     32  H   ALA d   1      20.829   2.513   0.477  0.00  0.00     0.098 H 
BRANCH  31  33
ATOM     33  N   ALA d   1      21.165   3.376  -1.411  0.00  0.00    -0.067 N 
ATOM     34  H   ALA d   1      20.173   3.489  -1.621  0.00  0.00     0.275 HD
ATOM     35  H   ALA d   1      21.690   4.151  -1.817  0.00  0.00     0.275 HD
ATOM     36  H   ALA d   1      21.499   2.495  -1.803  0.00  0.00     0.275 HD
ENDBRANCH  31  33
BRANCH  31  37
ATOM     37  CB  ALA d   1      22.846   3.197   0.403  0.00  0.00    -0.042 C 
ATOM     38  H   ALA d   1      23.407   4.051   0.024  0.00  0.00     0.030 H 
ATOM     39  H   ALA d   1      22.958   3.139   1.486  0.00  0.00     0.030 H 
ATOM     40  H   ALA d   1      23.224   2.281  -0.052  0.00  0.00     0.030 H 
ENDBRANCH  31  37
ENDBRANCH  28  31
ENDBRANCH  25  27
BRANCH  25  41
ATOM     41  CB  ARG d   1      20.178   6.217   3.236  0.00  0.00    -0.036 C 
ATOM     42  H   ARG d   1      20.622   7.048   2.688  0.00  0.00     0.036 H 
ATOM     43  H   ARG d   1      20.847   5.399   3.502  0.00  0.00     0.036 H 
BRANCH  41  44
ATOM     44  CG  ARG d   1      19.669   6.807   4.572  0.00  0.00    -0.048 C 
ATOM     45  H   ARG d   1      18.827   6.206   4.915  0.00  0.00     0.035 H 
ATOM     46  H   ARG d   1      19.379   7.844   4.403  0.00  0.00     0.035 H 
BRANCH  44  47
ATOM     47  CD  ARG d   1      20.761   6.778   5.655  0.00  0.00     0.009 C 
ATOM     48  H   ARG d   1      20.334   7.113   6.600  0.00  0.00     0.064 H 
ATOM     49  H   ARG d   1      21.577   7.435   5.354  0.00  0.00     0.064 H 
BRANCH  47  50
ATOM     50  NE  ARG d   1      21.283   5.405   5.822  0.00  0.00    -0.227 N 
ATOM     51  CZ  ARG d   1      22.404   5.048   6.460  0.00  0.00     0.665 C 
ATOM     52  NH1 ARG d   1      23.180   5.942   7.056  0.00  0.00    -0.235 N 
ATOM     53  NH2 ARG d   1      22.754   3.775   6.463  0.00  0.00    -0.235 N 
ATOM     54  H   ARG d   1      22.928   6.930   7.036  0.00  0.00     0.174 HD
ATOM     55  H   ARG d   1      24.029   5.642   7.535  0.00  0.00     0.174 HD
ATOM     56  H   ARG d   1      22.174   3.085   5.985  0.00  0.00     0.174 HD
ATOM     57  H   ARG d   1      23.605   3.481   6.943  0.00  0.00     0.174 HD
ATOM     58  H   ARG d   1      20.732   4.653   5.409  0.00  0.00     0.177 HD
ENDBRANCH  47  50
ENDBRANCH  44  47
ENDBRANCH  41  44
ENDBRANCH  25  41
ENDBRANCH  22  25
ENDBRANCH  19  21
BRANCH  19  59
ATOM     59  CB  THR d   1      18.893   7.725  -1.891  0.00  0.00     0.060 C 
ATOM     60  H   THR d   1      19.018   6.905  -2.598  0.00  0.00     0.086 H 
BRANCH  59  61
ATOM     61  OG1 THR d   1      20.098   7.955  -1.146  0.00  0.00    -0.393 OA
ATOM     62  H   THR d   1      20.346   7.151  -0.684  0.00  0.00     0.210 HD
ENDBRANCH  59  61
BRANCH  59  63
ATOM     63  CG2 THR d   1      18.568   9.008  -2.676  0.00  0.00    -0.050 C 
ATOM     64  H   THR d   1      17.669   8.850  -3.272  0.00  0.00     0.031 H 
ATOM     65  H   THR d   1      18.402   9.828  -1.977  0.00  0.00     0.031 H 
ATOM     66  H   THR d   1      19.403   9.252  -3.333  0.00  0.00     0.031 H 
ENDBRANCH  59  63
ENDBRANCH  19  59
ENDBRANCH  16  19
ENDBRANCH  13  15
BRANCH  13  67
ATOM     67  CB  LYS d   1      13.218   7.200  -2.049  0.00  0.00    -0.038 C 
ATOM     68  H   LYS d   1      13.134   8.265  -1.832  0.00  0.00     0.036 H 
ATOM     69  H   LYS d   1      13.376   6.568  -1.175  0.00  0.00     0.036 H 
BRANCH  67  70
ATOM     70  CG  LYS d   1      11.876   6.763  -2.684  0.00  0.00    -0.061 C 
ATOM     71  H   LYS d   1      11.884   5.676  -2.765  0.00  0.00     0.033 H 
ATOM     72  H   LYS d   1      11.787   7.259  -3.651  0.00  0.00     0.033 H 
BRANCH  70  73
ATOM     73  CD  LYS d   1      10.649   7.165  -1.832  0.00  0.00    -0.043 C 
ATOM     74  H   LYS d   1      10.727   8.228  -1.606  0.00  0.00     0.035 H 
ATOM     75  H   LYS d   1      10.646   6.551  -0.931  0.00  0.00     0.035 H 
BRANCH  73  76
ATOM     76  CE  LYS d   1       9.321   6.930  -2.576  0.00  0.00     0.080 C 
ATOM     77  H   LYS d   1       9.153   5.856  -2.655  0.00  0.00     0.075 H 
ATOM     78  H   LYS d   1       9.388   7.394  -3.560  0.00  0.00     0.075 H 
BRANCH  76  79
ATOM     79  NZ  LYS d   1       8.185   7.532  -1.848  0.00  0.00    -0.079 N 
ATOM     80  H   LYS d   1       7.322   7.360  -2.364  0.00  0.00     0.274 HD
ATOM     81  H   LYS d   1       8.117   7.113  -0.920  0.00  0.00     0.274 HD
ATOM     82  H   LYS d   1       8.334   8.537  -1.758  0.00  0.00     0.274 HD
ENDBRANCH  76  79
ENDBRANCH  73  76
ENDBRANCH  70  73
ENDBRANCH  67  70
ENDBRANCH  13  67
ENDBRANCH  10  13
ENDBRANCH   7   9
BRANCH   7  83
ATOM     83  CB  GLN d   1      15.523   7.455  -7.724  0.00  0.00    -0.030 C 
ATOM     84  H   GLN d   1      15.151   7.549  -8.744  0.00  0.00     0.037 H 
ATOM     85  H   GLN d   1      16.038   6.527  -7.478  0.00  0.00     0.037 H 
BRANCH  83  86
ATOM     86  CG  GLN d   1      16.563   8.583  -7.542  0.00  0.00     0.011 C 
ATOM     87  H   GLN d   1      16.034   9.530  -7.653  0.00  0.00     0.047 H 
ATOM     88  H   GLN d   1      17.347   8.421  -8.282  0.00  0.00     0.047 H 
BRANCH  86  89
ATOM     89  CD  GLN d   1      17.231   8.599  -6.175  0.00  0.00     0.215 C 
ATOM     90  OE1 GLN d   1      16.783   9.293  -5.266  0.00  0.00    -0.274 OA
ATOM     91  NE2 GLN d   1      18.292   7.822  -6.011  0.00  0.00    -0.370 N 
ATOM     92  H   GLN d   1      18.764   7.787  -5.107  0.00  0.00     0.159 HD
ATOM     93  H   GLN d   1      18.637   7.259  -6.788  0.00  0.00     0.159 HD
ENDBRANCH  86  89
ENDBRANCH  83  86
ENDBRANCH   7  83
ENDBRANCH   4   7
ENDBRANCH   1   3
BRANCH   1  94
ATOM     94  C   THR d   1      11.812   6.340 -10.484  0.00  0.00     0.243 C 
ATOM     95  O   THR d   1      12.870   6.877 -10.842  0.00  0.00    -0.271 OA
ATOM     96  N   ALA d   1      11.091   5.533 -11.300  0.00  0.00    -0.346 N 
ATOM     97  H   ALA d   1      10.233   5.114 -10.941  0.00  0.00     0.163 HD
BRANCH  96  98
ATOM     98  CA  ALA d   1      11.502   5.235 -12.698  0.00  0.00     0.086 C 
ATOM     99  H   ALA d   1      11.752   6.184 -13.172  0.00  0.00     0.086 H 
BRANCH  98 100
ATOM    100  C   ALA d   1      10.358   4.574 -13.484  0.00  0.00     0.240 C 
ATOM    101  O   ALA d   1       9.836   3.554 -13.024  0.00  0.00    -0.271 OA
ATOM    102  N   ARG d   1       9.990   5.169 -14.658  0.00  0.00    -0.346 N 
ATOM    103  H   ARG d   1      10.376   6.091 -14.861  0.00  0.00     0.163 HD
BRANCH 102 104
ATOM    104  CA  ARG d   1       9.061   4.567 -15.669  0.00  0.00     0.089 C 
ATOM    105  H   ARG d   1       9.094   5.174 -16.573  0.00  0.00     0.087 H 
BRANCH 104 106
ATOM    106  C   ARG d   1       7.575   4.597 -15.199  0.00  0.00     0.241 C 
ATOM    107  O   ARG d   1       7.292   4.826 -14.033  0.00  0.00    -0.271 OA
ATOM    108  N   M3L d   1       6.625   4.448 -16.150  0.00  0.00    -0.346 N 
ATOM    109  H   M3L d   1       6.897   4.562 -17.126  0.00  0.00     0.163 HD
BRANCH 108 110
ATOM    110  CA  M3L d   1       5.203   4.126 -15.848  0.00  0.00     0.089 C 
ATOM    111  H   M3L d   1       5.207   3.731 -14.832  0.00  0.00     0.087 H 
BRANCH 110 112
ATOM    112  CB  M3L d   1       4.252   5.371 -15.864  0.00  0.00    -0.038 C 
ATOM    113  H   M3L d   1       3.236   4.981 -15.814  0.00  0.00     0.036 H 
ATOM    114  H   M3L d   1       4.503   5.936 -16.762  0.00  0.00     0.036 H 
BRANCH 112 115
ATOM    115  CG  M3L d   1       4.400   6.352 -14.677  0.00  0.00    -0.061 C 
ATOM    116  H   M3L d   1       5.058   7.161 -14.995  0.00  0.00     0.033 H 
ATOM    117  H   M3L d   1       4.794   5.791 -13.829  0.00  0.00     0.033 H 
BRANCH 115 118
ATOM    118  CD  M3L d   1       3.039   6.989 -14.237  0.00  0.00    -0.042 C 
ATOM    119  H   M3L d   1       2.334   6.168 -14.104  0.00  0.00     0.035 H 
ATOM    120  H   M3L d   1       2.763   7.709 -15.008  0.00  0.00     0.035 H 
BRANCH 118 121
ATOM    121  CE  M3L d   1       3.087   7.767 -12.888  0.00  0.00     0.084 C 
ATOM    122  H   M3L d   1       2.274   8.492 -12.932  0.00  0.00     0.076 H 
ATOM    123  H   M3L d   1       4.098   8.165 -12.809  0.00  0.00     0.076 H 
BRANCH 121 124
ATOM    124  NZ  M3L d   1       2.850   6.936 -11.584  0.00  0.00    -0.079 N 
BRANCH 124 125
ATOM    125  CM1 M3L d   1       1.429   6.359 -11.608  0.00  0.00     0.067 C 
ATOM    126  H   M3L d   1       0.708   7.175 -11.660  0.00  0.00     0.068 H 
ATOM    127  H   M3L d   1       1.314   5.715 -12.480  0.00  0.00     0.068 H 
ATOM    128  H   M3L d   1       1.258   5.779 -10.701  0.00  0.00     0.068 H 
ENDBRANCH 124 125
BRANCH 124 129
ATOM    129  CM2 M3L d   1       3.009   7.850 -10.393  0.00  0.00     0.067 C 
ATOM    130  H   M3L d   1       4.016   8.268 -10.389  0.00  0.00     0.068 H 
ATOM    131  H   M3L d   1       2.280   8.657 -10.456  0.00  0.00     0.068 H 
ATOM    132  H   M3L d   1       2.846   7.282  -9.477  0.00  0.00     0.068 H 
ENDBRANCH 124 129
BRANCH 124 133
ATOM    133  CM3 M3L d   1       3.851   5.794 -11.472  0.00  0.00     0.067 C 
ATOM    134  H   M3L d   1       3.744   5.133 -12.332  0.00  0.00     0.068 H 
ATOM    135  H   M3L d   1       4.862   6.200 -11.448  0.00  0.00     0.068 H 
ATOM    136  H   M3L d   1       3.661   5.235 -10.556  0.00  0.00     0.068 H 
ENDBRANCH 124 133
ENDBRANCH 121 124
ENDBRANCH 118 121
ENDBRANCH 115 118
ENDBRANCH 112 115
ENDBRANCH 110 112
BRANCH 110 137
ATOM    137  C   M3L d   1       4.662   3.086 -16.844  0.00  0.00     0.241 C 
ATOM    138  O   M3L d   1       5.085   3.039 -18.010  0.00  0.00    -0.271 OA
ATOM    139  N   SER d   1       3.726   2.260 -16.344  0.00  0.00    -0.344 N 
ATOM    140  H   SER d   1       3.600   2.242 -15.332  0.00  0.00     0.163 HD
BRANCH 139 141
ATOM    141  CA  SER d   1       2.869   1.378 -17.161  0.00  0.00     0.109 C 
ATOM    142  H   SER d   1       3.298   1.268 -18.157  0.00  0.00     0.090 H 
BRANCH 141 143
ATOM    143  C   SER d   1       1.462   1.998 -17.322  0.00  0.00     0.243 C 
ATOM    144  O   SER d   1       0.584   1.407 -17.961  0.00  0.00    -0.271 OA
ATOM    145  N   THR d   1       1.272   3.192 -16.727  0.00  0.00    -0.342 N 
ATOM    146  H   THR d   1       2.066   3.617 -16.249  0.00  0.00     0.163 HD
BRANCH 145 147
ATOM    147  CA  THR d   1      -0.001   3.921 -16.721  0.00  0.00     0.120 C 
ATOM    148  H   THR d   1      -0.802   3.232 -16.453  0.00  0.00     0.093 H 
BRANCH 147 149
ATOM    149  C   THR d   1      -0.292   4.496 -18.135  0.00  0.00     0.199 C 
ATOM    150  O   THR d   1      -1.232   4.025 -18.807  0.00  0.00    -0.646 OA
ATOM    151  OXT THR d   1       0.476   5.377 -18.591  0.00  0.00    -0.646 OA
ENDBRANCH 147 149
BRANCH 147 152
ATOM    152  CB  THR d   1       0.042   5.077 -15.657  0.00  0.00     0.061 C 
ATOM    153  H   THR d   1       0.571   5.916 -16.108  0.00  0.00     0.086 H 
BRANCH 152 154
ATOM    154  OG1 THR d   1       0.722   4.615 -14.481  0.00  0.00    -0.393 OA
ATOM    155  H   THR d   1       0.253   3.860 -14.117  0.00  0.00     0.210 HD
ENDBRANCH 152 154
BRANCH 152 156
ATOM    156  CG2 THR d   1      -1.366   5.566 -15.263  0.00  0.00    -0.050 C 
ATOM    157  H   THR d   1      -1.880   5.941 -16.148  0.00  0.00     0.031 H 
ATOM    158  H   THR d   1      -1.931   4.737 -14.837  0.00  0.00     0.031 H 
ATOM    159  H   THR d   1      -1.279   6.364 -14.526  0.00  0.00     0.031 H 
ENDBRANCH 152 156
ENDBRANCH 147 152
ENDBRANCH 145 147
ENDBRANCH 141 143
BRANCH 141 160
ATOM    160  CB  SER d   1       2.792  -0.016 -16.493  0.00  0.00     0.044 C 
ATOM    161  H   SER d   1       3.759  -0.507 -16.602  0.00  0.00     0.077 H 
ATOM    162  H   SER d   1       2.001  -0.590 -16.976  0.00  0.00     0.077 H 
BRANCH 160 163
ATOM    163  OG  SER d   1       2.493   0.092 -15.113  0.00  0.00    -0.398 OA
ATOM    164  H   SER d   1       1.647   0.531 -15.004  0.00  0.00     0.209 HD
ENDBRANCH 160 163
ENDBRANCH 141 160
ENDBRANCH 139 141
ENDBRANCH 110 137
ENDBRANCH 108 110
ENDBRANCH 104 106
BRANCH 104 165
ATOM    165  CB  ARG d   1       9.543   3.110 -16.023  0.00  0.00    -0.036 C 
ATOM    166  H   ARG d   1       9.466   2.540 -15.097  0.00  0.00     0.036 H 
ATOM    167  H   ARG d   1      10.537   3.224 -16.456  0.00  0.00     0.036 H 
BRANCH 165 168
ATOM    168  CG  ARG d   1       8.715   2.326 -17.070  0.00  0.00    -0.048 C 
ATOM    169  H   ARG d   1       8.723   2.895 -18.000  0.00  0.00     0.035 H 
ATOM    170  H   ARG d   1       7.709   2.192 -16.672  0.00  0.00     0.035 H 
BRANCH 168 171
ATOM    171  CD  ARG d   1       9.301   0.932 -17.360  0.00  0.00     0.009 C 
ATOM    172  H   ARG d   1       9.304   0.366 -16.428  0.00  0.00     0.064 H 
ATOM    173  H   ARG d   1      10.303   1.065 -17.767  0.00  0.00     0.064 H 
BRANCH 171 174
ATOM    174  NE  ARG d   1       8.501   0.182 -18.348  0.00  0.00    -0.227 N 
ATOM    175  CZ  ARG d   1       8.869  -0.970 -18.944  0.00  0.00     0.665 C 
ATOM    176  NH1 ARG d   1      10.065  -1.513 -18.714  0.00  0.00    -0.235 N 
ATOM    177  NH2 ARG d   1       8.033  -1.560 -19.787  0.00  0.00    -0.235 N 
ATOM    178  H   ARG d   1      10.719  -1.056 -18.078  0.00  0.00     0.174 HD
ATOM    179  H   ARG d   1      10.326  -2.385 -19.174  0.00  0.00     0.174 HD
ATOM    180  H   ARG d   1       7.122  -1.142 -19.979  0.00  0.00     0.174 HD
ATOM    181  H   ARG d   1       8.300  -2.432 -20.244  0.00  0.00     0.174 HD
ATOM    182  H   ARG d   1       7.592   0.568 -18.602  0.00  0.00     0.177 HD
ENDBRANCH 171 174
ENDBRANCH 168 171
ENDBRANCH 165 168
ENDBRANCH 104 165
ENDBRANCH 102 104
ENDBRANCH  98 100
BRANCH  98 183
ATOM    183  CB  ALA d   1      12.749   4.311 -12.724  0.00  0.00    -0.049 C 
ATOM    184  H   ALA d   1      13.576   4.804 -12.213  0.00  0.00     0.030 H 
ATOM    185  H   ALA d   1      12.515   3.373 -12.220  0.00  0.00     0.030 H 
ATOM    186  H   ALA d   1      13.028   4.109 -13.758  0.00  0.00     0.030 H 
ENDBRANCH  98 183
ENDBRANCH  96  98
ENDBRANCH   1  94
BRANCH   1 187
ATOM    187  CB  THR d   1       9.993   7.458  -9.068  0.00  0.00     0.060 C 
ATOM    188  H   THR d   1       9.296   6.989  -9.762  0.00  0.00     0.086 H 
BRANCH 187 189
ATOM    189  OG1 THR d   1      10.321   8.788  -9.501  0.00  0.00    -0.393 OA
ATOM    190  H   THR d   1       9.525   9.325  -9.513  0.00  0.00     0.210 HD
ENDBRANCH 187 189
BRANCH 187 191
ATOM    191  CG2 THR d   1       9.297   7.525  -7.688  0.00  0.00    -0.050 C 
ATOM    192  H   THR d   1       9.016   6.519  -7.375  0.00  0.00     0.031 H 
ATOM    193  H   THR d   1       9.982   7.956  -6.958  0.00  0.00     0.031 H 
ATOM    194  H   THR d   1       8.405   8.147  -7.762  0.00  0.00     0.031 H 
ENDBRANCH 187 191
ENDBRANCH   1 187
TORSDOF 59
