REMARK WARNING: 32 MAX_TORS EXCEEDED!!!
REMARK  41 active torsions:
REMARK  status: ('A' for Active; 'I' for Inactive)
REMARK    1  A    between atoms: O1_7  and  C1_1 
REMARK    2  A    between atoms: C2_2  and  O2_8 
REMARK    3  A    between atoms: C3_3  and  O3_9 
REMARK    4  A    between atoms: C4_4  and  N4_10 
REMARK    5  A    between atoms: C5_5  and  C6_6 
REMARK    6  A    between atoms: O1_7  and  C1_59 
REMARK    7  A    between atoms: O2_8  and  C1_48 
REMARK    8  A    between atoms: N4_10  and  O1_18 
REMARK    9  A    between atoms: O1_18  and  C1_12 
REMARK   10  A    between atoms: C3_14  and  O3_19 
REMARK   11  A    between atoms: C4_15  and  S4_21 
REMARK   12  A    between atoms: C5_16  and  C6_17 
REMARK   13  A    between atoms: S4_21  and  C7_28 
REMARK   14  A    between atoms: C2_23  and  O1_43 
REMARK   15  A    between atoms: C3_24  and  O3_32 
REMARK   16  A    between atoms: C4_25  and  O4_33 
REMARK   17  A    between atoms: C7_28  and  C5_26 
REMARK   18  A    between atoms: C6_27  and  C8_29 
REMARK   19  A    between atoms: O3_32  and  C9_30 
REMARK   20  A    between atoms: O4_33  and  CX_31 
REMARK   21  A    between atoms: O1_43  and  C1_36 
REMARK   22  A    between atoms: C2_37  and  O2_44 
REMARK   23  A    between atoms: C3_38  and  O3_45 
REMARK   24  A    between atoms: C4_39  and  O4_46 
REMARK   25  A    between atoms: C5_40  and  C6_41 
REMARK   26  A    between atoms: O3_45  and  C7_42 
REMARK   27  A    between atoms: C3_50  and  O3_56 
REMARK   28  A    between atoms: C4_51  and  N4_57 
REMARK   29  A    between atoms: C6_53  and  C7_54 
REMARK   30  A    between atoms: N4_57  and  C6_53 
REMARK   31  A    between atoms: O3_56  and  C8_55 
REMARK   32  A    between atoms: C8_66  and  O8_77 
REMARK   33  A    between atoms: C11_69  and  N11_81 
REMARK   34  A    between atoms: C13_71  and  C14_72 
REMARK   35  A    between atoms: C14_72  and  C15_73 
REMARK   36  A    between atoms: C15_73  and  S1_82 
REMARK   37  A    between atoms: S3_84  and  C16_74 
REMARK   38  A    between atoms: C17_75  and  O72_80 
REMARK       I    between atoms: N11_81  and  C17_75 
REMARK   39  A    between atoms: O72_80  and  C18_76 
REMARK   40  A    between atoms: S1_82  and  S2_83 
REMARK   41  A    between atoms: S2_83  and  S3_84 
ROOT
ATOM      1  C1  DAG d   1      23.108  -6.269  -0.627  0.00  0.00     0.160 C 
ATOM      2  C2  DAG d   1      22.555  -7.019   0.587  0.00  0.00     0.116 C 
ATOM      3  C3  DAG d   1      21.046  -6.798   0.693  0.00  0.00     0.097 C 
ATOM      4  C4  DAG d   1      20.744  -5.299   0.690  0.00  0.00     0.181 C 
ATOM      5  C5  DAG d   1      21.408  -4.631  -0.516  0.00  0.00     0.071 C 
ATOM      6  O5  DAG d   1      22.823  -4.869  -0.499  0.00  0.00    -0.351 OA
ATOM      7  H   DAG d   1      22.640  -6.653  -1.533  0.00  0.00     0.133 H 
ATOM      8  H   DAG d   1      23.041  -6.643   1.487  0.00  0.00     0.095 H 
ATOM      9  H   DAG d   1      20.555  -7.260  -0.163  0.00  0.00     0.090 H 
ATOM     10  H   DAG d   1      21.146  -4.853   1.600  0.00  0.00     0.097 H 
ATOM     11  H   DAG d   1      20.993  -5.053  -1.431  0.00  0.00     0.086 H 
ENDROOT
BRANCH   4  12
ATOM     12  N4  DAG d   1      19.292  -5.083   0.657  0.00  0.00     0.051 N 
ATOM     13  H   DAG d   1      19.091  -4.083   0.632  0.00  0.00     0.315 HD
ATOM     14  H   DAG d   1      18.863  -5.482   1.492  0.00  0.00     0.315 HD
BRANCH  12  15
ATOM     15  O1  DSR d   1      18.815  -5.650  -0.391  0.00  0.00    -0.172 OA
BRANCH  15  16
ATOM     16  C1  DSR d   1      17.758  -4.910  -1.008  0.00  0.00     0.165 C 
ATOM     17  C2  DSR d   1      17.384  -5.569  -2.336  0.00  0.00     0.008 C 
ATOM     18  C3  DSR d   1      16.255  -4.766  -2.984  0.00  0.00     0.054 C 
ATOM     19  H   DAG d   1      17.055  -6.593  -2.160  0.00  0.00     0.044 H 
ATOM     20  H   DAG d   1      18.251  -5.587  -2.997  0.00  0.00     0.044 H 
ATOM     21  C4  DSR d   1      15.085  -4.644  -2.004  0.00  0.00     0.048 C 
ATOM     22  H   DAG d   1      15.924  -5.274  -3.890  0.00  0.00     0.085 H 
ATOM     23  C5  DSR d   1      15.576  -4.067  -0.675  0.00  0.00     0.053 C 
ATOM     24  H   DAG d   1      14.675  -5.638  -1.827  0.00  0.00     0.065 H 
ATOM     25  O5  DSR d   1      16.622  -4.892  -0.134  0.00  0.00    -0.353 OA
ATOM     26  H   DAG d   1      15.967  -3.063  -0.843  0.00  0.00     0.084 H 
ATOM     27  H   DAG d   1      18.084  -3.887  -1.197  0.00  0.00     0.132 H 
BRANCH  18  28
ATOM     28  O3  DSR d   1      16.731  -3.457  -3.304  0.00  0.00    -0.394 OA
ATOM     29  H   DAG d   1      16.022  -2.950  -3.706  0.00  0.00     0.210 HD
ENDBRANCH  18  28
BRANCH  21  30
ATOM     30  S4  DSR d   1      13.752  -3.601  -2.706  0.00  0.00    -0.077 SA
BRANCH  30  31
ATOM     31  C7  HIB d   1      12.321  -4.817  -1.933  0.00  0.00     0.223 C 
ATOM     32  O7  HIB d   1      12.810  -5.111  -0.845  0.00  0.00    -0.280 OA
BRANCH  31  33
ATOM     33  C5  HIB d   1      10.889  -4.658  -2.449  0.00  0.00     0.065 A 
ATOM     34  C4  HIB d   1      10.012  -3.792  -1.810  0.00  0.00     0.119 A 
ATOM     35  C3  HIB d   1       8.708  -3.654  -2.277  0.00  0.00     0.137 A 
ATOM     36  C2  HIB d   1       8.291  -4.380  -3.390  0.00  0.00     0.125 A 
ATOM     37  C1  HIB d   1       9.169  -5.245  -4.026  0.00  0.00     0.049 A 
ATOM     38  C6  HIB d   1      10.468  -5.387  -3.555  0.00  0.00    -0.025 A 
ATOM     39  I1  HIB d   1       8.537  -6.329  -5.702  0.00  0.00    -0.041 I 
BRANCH  34  40
ATOM     40  O4  HIB d   1      10.439  -3.075  -0.734  0.00  0.00    -0.352 OA
BRANCH  40  41
ATOM     41  CX  HIB d   1       9.802  -1.796  -0.693  0.00  0.00     0.011 C 
ATOM     42  H   DAG d   1      10.040  -1.244  -1.602  0.00  0.00     0.067 H 
ATOM     43  H   DAG d   1       8.723  -1.931  -0.621  0.00  0.00     0.067 H 
ATOM     44  H   DAG d   1      10.159  -1.242   0.175  0.00  0.00     0.067 H 
ENDBRANCH  40  41
ENDBRANCH  34  40
BRANCH  35  45
ATOM     45  O3  HIB d   1       7.836  -2.825  -1.645  0.00  0.00    -0.351 OA
BRANCH  45  46
ATOM     46  C9  HIB d   1       7.152  -3.548  -0.619  0.00  0.00     0.011 C 
ATOM     47  H   DAG d   1       6.606  -4.380  -1.065  0.00  0.00     0.067 H 
ATOM     48  H   DAG d   1       7.877  -3.930   0.099  0.00  0.00     0.067 H 
ATOM     49  H   DAG d   1       6.453  -2.883  -0.112  0.00  0.00     0.067 H 
ENDBRANCH  45  46
ENDBRANCH  35  45
BRANCH  36  50
ATOM     50  O1  MRP d   1       6.877  -3.837  -3.995  0.00  0.00    -0.313 OA
BRANCH  50  51
ATOM     51  C1  MRP d   1       6.247  -2.617  -4.395  0.00  0.00     0.164 C 
ATOM     52  C2  MRP d   1       5.743  -2.761  -5.832  0.00  0.00     0.111 C 
ATOM     53  C3  MRP d   1       4.728  -3.902  -5.916  0.00  0.00     0.094 C 
ATOM     54  H   DAG d   1       6.583  -2.981  -6.491  0.00  0.00     0.094 H 
ATOM     55  C4  MRP d   1       3.623  -3.637  -4.891  0.00  0.00     0.087 C 
ATOM     56  H   DAG d   1       5.223  -4.848  -5.698  0.00  0.00     0.091 H 
ATOM     57  C5  MRP d   1       4.225  -3.443  -3.497  0.00  0.00     0.065 C 
ATOM     58  H   DAG d   1       3.087  -2.731  -5.174  0.00  0.00     0.091 H 
ATOM     59  O5  MRP d   1       5.145  -2.340  -3.517  0.00  0.00    -0.351 OA
ATOM     60  H   DAG d   1       4.750  -4.352  -3.204  0.00  0.00     0.086 H 
ATOM     61  H   DAG d   1       6.962  -1.796  -4.342  0.00  0.00     0.134 H 
BRANCH  52  62
ATOM     62  O2  MRP d   1       5.114  -1.539  -6.230  0.00  0.00    -0.388 OA
ATOM     63  H   DAG d   1       5.750  -0.822  -6.178  0.00  0.00     0.210 HD
ENDBRANCH  52  62
BRANCH  53  64
ATOM     64  O3  MRP d   1       4.175  -4.003  -7.235  0.00  0.00    -0.385 OA
BRANCH  64  65
ATOM     65  C7  MRP d   1       5.221  -4.245  -8.177  0.00  0.00     0.005 C 
ATOM     66  H   DAG d   1       5.934  -3.422  -8.145  0.00  0.00     0.066 H 
ATOM     67  H   DAG d   1       5.728  -5.176  -7.924  0.00  0.00     0.066 H 
ATOM     68  H   DAG d   1       4.796  -4.321  -9.178  0.00  0.00     0.066 H 
ENDBRANCH  64  65
ENDBRANCH  53  64
BRANCH  55  69
ATOM     69  O4  MRP d   1       2.727  -4.752  -4.867  0.00  0.00    -0.390 OA
ATOM     70  H   DAG d   1       2.348  -4.875  -5.740  0.00  0.00     0.210 HD
ENDBRANCH  55  69
BRANCH  57  71
ATOM     71  C6  MRP d   1       3.109  -3.145  -2.497  0.00  0.00    -0.050 C 
ATOM     72  H   DAG d   1       2.587  -2.237  -2.797  0.00  0.00     0.031 H 
ATOM     73  H   DAG d   1       2.408  -3.979  -2.478  0.00  0.00     0.031 H 
ATOM     74  H   DAG d   1       3.539  -3.007  -1.505  0.00  0.00     0.031 H 
ENDBRANCH  57  71
ENDBRANCH  50  51
ENDBRANCH  36  50
BRANCH  38  75
ATOM     75  C8  HIB d   1      11.435  -6.345  -4.247  0.00  0.00    -0.049 C 
ATOM     76  H   DAG d   1      11.031  -7.357  -4.211  0.00  0.00     0.033 H 
ATOM     77  H   DAG d   1      11.564  -6.041  -5.286  0.00  0.00     0.033 H 
ATOM     78  H   DAG d   1      12.398  -6.319  -3.737  0.00  0.00     0.033 H 
ENDBRANCH  38  75
ENDBRANCH  31  33
ENDBRANCH  30  31
ENDBRANCH  21  30
BRANCH  23  79
ATOM     79  C6  DSR d   1      14.409  -4.011   0.313  0.00  0.00    -0.051 C 
ATOM     80  H   DAG d   1      13.621  -3.376  -0.093  0.00  0.00     0.030 H 
ATOM     81  H   DAG d   1      14.021  -5.017   0.472  0.00  0.00     0.030 H 
ATOM     82  H   DAG d   1      14.757  -3.600   1.261  0.00  0.00     0.030 H 
ENDBRANCH  23  79
ENDBRANCH  15  16
ENDBRANCH  12  15
ENDBRANCH   4  12
BRANCH   3  83
ATOM     83  O3  DAG d   1      20.544  -7.403   1.888  0.00  0.00    -0.391 OA
ATOM     84  H   DAG d   1      20.740  -8.343   1.877  0.00  0.00     0.210 HD
ENDBRANCH   3  83
BRANCH   5  85
ATOM     85  C6  DAG d   1      21.137  -3.127  -0.474  0.00  0.00    -0.050 C 
ATOM     86  H   DAG d   1      21.563  -2.708   0.437  0.00  0.00     0.031 H 
ATOM     87  H   DAG d   1      21.594  -2.652  -1.342  0.00  0.00     0.031 H 
ATOM     88  H   DAG d   1      20.061  -2.953  -0.487  0.00  0.00     0.031 H 
ENDBRANCH   5  85
BRANCH   2  89
ATOM     89  O2  DAG d   1      22.814  -8.419   0.446  0.00  0.00    -0.348 OA
BRANCH  89  90
ATOM     90  C1  EMP d   1      23.214  -9.232   1.446  0.00  0.00     0.134 C 
ATOM     91  C2  EMP d   1      22.928 -10.735   1.459  0.00  0.00     0.007 C 
ATOM     92  C3  EMP d   1      23.648 -11.389   0.279  0.00  0.00     0.071 C 
ATOM     93  H   DAG d   1      21.855 -10.906   1.375  0.00  0.00     0.044 H 
ATOM     94  H   DAG d   1      23.284 -11.169   2.393  0.00  0.00     0.044 H 
ATOM     95  C4  EMP d   1      25.136 -11.057   0.385  0.00  0.00     0.147 C 
ATOM     96  H   DAG d   1      23.246 -11.014  -0.662  0.00  0.00     0.086 H 
ATOM     97  C5  EMP d   1      25.327  -9.540   0.445  0.00  0.00     0.051 C 
ATOM     98  H   DAG d   1      25.543 -11.496   1.296  0.00  0.00     0.091 H 
ATOM     99  O5  EMP d   1      24.626  -9.002   1.577  0.00  0.00    -0.359 OA
ATOM    100  H   DAG d   1      24.933  -9.092  -0.467  0.00  0.00     0.077 H 
ATOM    101  H   DAG d   1      26.389  -9.316   0.541  0.00  0.00     0.077 H 
ATOM    102  H   DAG d   1      22.567  -8.948   2.276  0.00  0.00     0.129 H 
BRANCH  92 103
ATOM    103  O3  EMP d   1      23.458 -12.811   0.318  0.00  0.00    -0.388 OA
BRANCH 103 104
ATOM    104  C8  EMP d   1      22.064 -13.111   0.200  0.00  0.00     0.005 C 
ATOM    105  H   DAG d   1      21.523 -12.649   1.026  0.00  0.00     0.066 H 
ATOM    106  H   DAG d   1      21.688 -12.720  -0.746  0.00  0.00     0.066 H 
ATOM    107  H   DAG d   1      21.922 -14.191   0.230  0.00  0.00     0.066 H 
ENDBRANCH 103 104
ENDBRANCH  92 103
BRANCH  95 108
ATOM    108  N4  EMP d   1      25.847 -11.616  -0.774  0.00  0.00    -0.067 N 
ATOM    109  H   DAG d   1      25.480 -11.188  -1.624  0.00  0.00     0.277 HD
ATOM    110  H   DAG d   1      25.708 -12.626  -0.790  0.00  0.00     0.277 HD
BRANCH 108 111
ATOM    111  C6  EMP d   1      27.289 -11.335  -0.684  0.00  0.00     0.079 C 
ATOM    112  H   DAG d   1      27.638 -11.575   0.320  0.00  0.00     0.075 H 
ATOM    113  H   DAG d   1      27.818 -11.941  -1.420  0.00  0.00     0.075 H 
BRANCH 111 114
ATOM    114  C7  EMP d   1      27.556  -9.856  -0.967  0.00  0.00    -0.053 C 
ATOM    115  H   DAG d   1      27.205  -9.610  -1.969  0.00  0.00     0.029 H 
ATOM    116  H   DAG d   1      27.026  -9.246  -0.235  0.00  0.00     0.029 H 
ATOM    117  H   DAG d   1      28.626  -9.662  -0.897  0.00  0.00     0.029 H 
ENDBRANCH 111 114
ENDBRANCH 108 111
ENDBRANCH  95 108
ENDBRANCH  89  90
ENDBRANCH   2  89
BRANCH   1 118
ATOM    118  O1  DAG d   1      24.524  -6.460  -0.699  0.00  0.00    -0.341 OA
BRANCH 118 119
ATOM    119  C1  MTC d   1      25.371  -6.598  -2.440  0.00  0.00     0.106 C 
ATOM    120  C2  MTC d   1      24.326  -5.832  -3.127  0.00  0.00    -0.069 C 
ATOM    121  C3  MTC d   1      23.551  -5.083  -3.707  0.00  0.00    -0.075 C 
ATOM    122  C4  MTC d   1      22.789  -4.076  -4.379  0.00  0.00    -0.025 C 
ATOM    123  C5  MTC d   1      23.432  -2.844  -4.382  0.00  0.00    -0.025 C 
ATOM    124  H   DAG d   1      21.816  -4.255  -4.836  0.00  0.00     0.098 H 
ATOM    125  C6  MTC d   1      24.701  -2.865  -3.717  0.00  0.00    -0.075 C 
ATOM    126  H   DAG d   1      23.013  -1.950  -4.844  0.00  0.00     0.098 H 
ATOM    127  C7  MTC d   1      25.757  -3.001  -3.112  0.00  0.00    -0.063 C 
ATOM    128  C8  MTC d   1      26.983  -3.276  -2.351  0.00  0.00     0.132 C 
ATOM    129  C9  MTC d   1      28.190  -3.389  -3.285  0.00  0.00     0.032 C 
ATOM    130  C13 MTC d   1      26.803  -4.630  -1.662  0.00  0.00    -0.003 C 
ATOM    131  C10 MTC d   1      28.106  -4.706  -4.061  0.00  0.00     0.153 C 
ATOM    132  H   DAG d   1      29.109  -3.368  -2.699  0.00  0.00     0.050 H 
ATOM    133  H   DAG d   1      28.191  -2.553  -3.984  0.00  0.00     0.050 H 
ATOM    134  C11 MTC d   1      27.575  -5.867  -3.508  0.00  0.00     0.079 C 
ATOM    135  O10 MTC d   1      28.460  -4.696  -5.240  0.00  0.00    -0.296 OA
ATOM    136  C12 MTC d   1      26.628  -5.727  -2.498  0.00  0.00     0.015 C 
ATOM    137  H   DAG d   1      28.627  -6.047  -3.285  0.00  0.00     0.085 H 
ATOM    138  H   DAG d   1      26.738  -6.605  -1.861  0.00  0.00     0.050 H 
ATOM    139  H   DAG d   1      27.402  -5.333  -1.083  0.00  0.00     0.047 H 
ATOM    140  H   DAG d   1      25.534  -7.564  -2.917  0.00  0.00     0.104 H 
BRANCH 128 141
ATOM    141  O8  MTC d   1      27.204  -2.242  -1.389  0.00  0.00    -0.377 OA
ATOM    142  H   DAG d   1      26.442  -2.179  -0.808  0.00  0.00     0.211 HD
ENDBRANCH 128 141
BRANCH 134 143
ATOM    143  N11 MTC d   1      27.829  -7.086  -3.975  0.00  0.00    -0.325 N 
ATOM    144  C17 MTC d   1      28.725  -7.318  -4.932  0.00  0.00     0.360 C 
ATOM    145  O71 MTC d   1      29.446  -6.455  -5.431  0.00  0.00    -0.239 OA
ATOM    146  H   DAG d   1      27.316  -7.876  -3.584  0.00  0.00     0.165 HD
BRANCH 144 147
ATOM    147  O72 MTC d   1      28.896  -8.605  -5.339  0.00  0.00    -0.309 OA
BRANCH 147 148
ATOM    148  C18 MTC d   1      29.885  -8.668  -6.369  0.00  0.00     0.015 C 
ATOM    149  H   DAG d   1      29.563  -8.064  -7.217  0.00  0.00     0.067 H 
ATOM    150  H   DAG d   1      30.831  -8.285  -5.987  0.00  0.00     0.067 H 
ATOM    151  H   DAG d   1      30.012  -9.703  -6.686  0.00  0.00     0.067 H 
ENDBRANCH 147 148
ENDBRANCH 144 147
ENDBRANCH 134 143
BRANCH 130 152
ATOM    152  C14 MTC d   1      26.731  -4.678  -0.131  0.00  0.00    -0.049 C 
ATOM    153  H   DAG d   1      25.692  -4.818   0.166  0.00  0.00     0.034 H 
ATOM    154  H   DAG d   1      27.129  -3.745   0.267  0.00  0.00     0.034 H 
BRANCH 152 155
ATOM    155  C15 MTC d   1      27.559  -5.839   0.420  0.00  0.00    -0.012 C 
ATOM    156  H   DAG d   1      28.596  -5.674   0.129  0.00  0.00     0.050 H 
ATOM    157  H   DAG d   1      27.144  -6.763   0.017  0.00  0.00     0.050 H 
BRANCH 155 158
ATOM    158  S1  MTC d   1      27.505  -5.955   2.245  0.00  0.00    -0.086 SA
BRANCH 158 159
ATOM    159  S2  MTC d   1      28.730  -7.529   2.674  0.00  0.00    -0.025 SA
BRANCH 159 160
ATOM    160  S3  MTC d   1      30.569  -6.674   2.884  0.00  0.00    -0.090 SA
BRANCH 160 161
ATOM    161  C16 MTC d   1      31.154  -6.782   1.206  0.00  0.00    -0.024 C 
ATOM    162  H   DAG d   1      31.184  -7.828   0.899  0.00  0.00     0.043 H 
ATOM    163  H   DAG d   1      30.480  -6.229   0.551  0.00  0.00     0.043 H 
ATOM    164  H   DAG d   1      32.155  -6.355   1.143  0.00  0.00     0.043 H 
ENDBRANCH 160 161
ENDBRANCH 159 160
ENDBRANCH 158 159
ENDBRANCH 155 158
ENDBRANCH 152 155
ENDBRANCH 130 152
ENDBRANCH 118 119
ENDBRANCH   1 118
TORSDOF 41
