REMARK WARNING: 32 MAX_TORS EXCEEDED!!!
REMARK  62 active torsions:
REMARK  status: ('A' for Active; 'I' for Inactive)
REMARK    1  A    between atoms: CA_2  and  N_1 
REMARK    2  A    between atoms: C_3  and  CA_2 
REMARK    3  A    between atoms: CA_2  and  CB_5 
REMARK       I    between atoms: N_9  and  C_3 
REMARK    4  A    between atoms: CB_5  and  CG1_6 
REMARK    5  A    between atoms: CB_5  and  CG2_7 
REMARK    6  A    between atoms: CG1_6  and  CD1_8 
REMARK    7  A    between atoms: CA_10  and  N_9 
REMARK    8  A    between atoms: C_11  and  CA_10 
REMARK    9  A    between atoms: CA_10  and  CB_13 
REMARK       I    between atoms: N_16  and  C_11 
REMARK   10  A    between atoms: CB_13  and  OG1_14 
REMARK   11  A    between atoms: CB_13  and  CG2_15 
REMARK   12  A    between atoms: CA_17  and  N_16 
REMARK   13  A    between atoms: C_18  and  CA_17 
REMARK   14  A    between atoms: CA_17  and  CB_20 
REMARK       I    between atoms: N_28  and  C_18 
REMARK   15  A    between atoms: CB_20  and  CG_21 
REMARK   16  A    between atoms: CA_30  and  N_28 
REMARK   17  A    between atoms: CA_30  and  CB1_35 
REMARK   18  A    between atoms: CA_37  and  CB_40 
REMARK   19  A    between atoms: CB_40  and  CG_41 
REMARK   20  A    between atoms: CA_45  and  CB_48 
REMARK   21  A    between atoms: CB_48  and  CG_49 
REMARK   22  A    between atoms: CG_49  and  CD1_50 
REMARK   23  A    between atoms: CG_49  and  CD2_51 
REMARK   24  A    between atoms: CA_53  and  CB_56 
REMARK   25  A    between atoms: CB_56  and  CG_57 
REMARK   26  A    between atoms: CG_57  and  CD1_58 
REMARK   27  A    between atoms: CG_57  and  CD2_59 
REMARK   28  A    between atoms: CA_63  and  C_60 
REMARK       I    between atoms: C_60  and  N_69 
REMARK   29  A    between atoms: CA_63  and  CB1_68 
REMARK   30  A    between atoms: N_69  and  CA_70 
REMARK   31  A    between atoms: CA_70  and  C_71 
REMARK   32  A    between atoms: CA_70  and  CB_73 
REMARK       I    between atoms: C_71  and  N_81 
REMARK   33  A    between atoms: CB_73  and  CG_74 
REMARK   34  A    between atoms: CZ_79  and  OH_80 
REMARK   35  A    between atoms: N_81  and  CA_82 
REMARK   36  A    between atoms: CA_82  and  C_83 
REMARK   37  A    between atoms: CA_82  and  CB_85 
REMARK       I    between atoms: C_83  and  N_93 
REMARK   38  A    between atoms: CB_85  and  CG_86 
REMARK   39  A    between atoms: CZ_91  and  OH_92 
REMARK   40  A    between atoms: N_93  and  CA_94 
REMARK   41  A    between atoms: CA_94  and  C_95 
REMARK       I    between atoms: C_95  and  N_97 
REMARK   42  A    between atoms: N_97  and  CA_98 
REMARK   43  A    between atoms: CA_98  and  C_99 
REMARK   44  A    between atoms: CA_98  and  CB_101 
REMARK       I    between atoms: C_99  and  N_106 
REMARK   45  A    between atoms: CB_101  and  CG_102 
REMARK   46  A    between atoms: CG_102  and  CD_103 
REMARK   47  A    between atoms: CD_103  and  CE_104 
REMARK   48  A    between atoms: CE_104  and  NZ_105 
REMARK   49  A    between atoms: N_106  and  CA_107 
REMARK   50  A    between atoms: CA_107  and  C_108 
REMARK   51  A    between atoms: CA_107  and  CB_110 
REMARK       I    between atoms: C_108  and  N_115 
REMARK   52  A    between atoms: CB_110  and  CG_111 
REMARK   53  A    between atoms: CG_111  and  CD_112 
REMARK   54  A    between atoms: CD_112  and  CE_113 
REMARK   55  A    between atoms: CE_113  and  NZ_114 
REMARK   56  A    between atoms: N_115  and  CA_116 
REMARK   57  A    between atoms: CA_116  and  C_117 
REMARK   58  A    between atoms: CA_116  and  CB_119 
REMARK   59  A    between atoms: CB_119  and  CG_120 
REMARK   60  A    between atoms: CG_120  and  CD_121 
REMARK   61  A    between atoms: CD_121  and  CE_122 
REMARK   62  A    between atoms: CE_122  and  NZ_123 
ROOT
ATOM      1  C   MK8 d   1      -6.366   7.127  -0.376  0.00  0.00     0.246 C 
ATOM      2  O   MK8 d   1      -7.080   7.157   0.626  0.00  0.00    -0.271 OA
ATOM      3  CA  MK8 d   1      -5.784   8.416  -0.984  0.00  0.00     0.110 C 
ATOM      4  CB  MK8 d   1      -6.199   8.514  -2.466  0.00  0.00    -0.033 C 
ATOM      5  CD  MK8 d   1      -8.753   8.774  -2.214  0.00  0.00    -0.050 C 
ATOM      6  CE  MK8 d   1      -8.821   7.390  -2.264  0.00  0.00    -0.107 C 
ATOM      7  CG  MK8 d   1      -7.441   9.386  -2.712  0.00  0.00    -0.059 C 
ATOM      8  N   MK8 d   1      -8.825   6.390   2.886  0.00  0.00    -0.342 N 
ATOM      9  CA  MK8 d   1     -10.155   5.731   2.786  0.00  0.00     0.110 C 
ATOM     10  CB  MK8 d   1     -10.498   5.380   1.333  0.00  0.00    -0.033 C 
ATOM     11  CD  MK8 d   1      -9.977   7.359  -0.147  0.00  0.00    -0.050 C 
ATOM     12  CE  MK8 d   1      -9.431   6.689  -1.232  0.00  0.00    -0.107 C 
ATOM     13  CG  MK8 d   1     -11.063   6.568   0.554  0.00  0.00    -0.059 C 
ATOM     14  H31 MK8 d   1      -6.411   7.499  -2.834  0.00  0.00     0.037 H 
ATOM     15  H32 MK8 d   1      -5.359   8.941  -3.033  0.00  0.00     0.037 H 
ATOM     16  H33 MK8 d   1      -8.896   9.083  -1.168  0.00  0.00     0.038 H 
ATOM     17  H34 MK8 d   1      -9.570   9.176  -2.830  0.00  0.00     0.038 H 
ATOM     18  H35 MK8 d   1      -8.397   6.854  -3.111  0.00  0.00     0.076 H 
ATOM     19  H36 MK8 d   1      -7.531   9.559  -3.795  0.00  0.00     0.033 H 
ATOM     20  H37 MK8 d   1      -7.293  10.348  -2.199  0.00  0.00     0.033 H 
ATOM     21  H67 MK8 d   1      -8.290   6.520   2.051  0.00  0.00     0.163 HD
ATOM     22  H68 MK8 d   1     -11.245   4.573   1.333  0.00  0.00     0.037 H 
ATOM     23  H69 MK8 d   1      -9.583   5.033   0.830  0.00  0.00     0.037 H 
ATOM     24  H70 MK8 d   1     -10.408   8.307  -0.501  0.00  0.00     0.038 H 
ATOM     25  H71 MK8 d   1      -9.174   7.568   0.576  0.00  0.00     0.038 H 
ATOM     26  H72 MK8 d   1      -9.481   5.602  -1.275  0.00  0.00     0.076 H 
ATOM     27  H73 MK8 d   1     -11.590   7.233   1.254  0.00  0.00     0.033 H 
ATOM     28  H74 MK8 d   1     -11.771   6.193  -0.200  0.00  0.00     0.033 H 
ATOM     29  N   ASP d   1      -6.012   5.996  -0.993  0.00  0.00    -0.345 N 
ATOM     30  CA  ASP d   1      -6.521   4.687  -0.587  0.00  0.00     0.098 C 
ATOM     31  C   ASP d   1      -6.208   4.413   0.878  0.00  0.00     0.241 C 
ATOM     32  O   ASP d   1      -7.000   3.793   1.585  0.00  0.00    -0.271 OA
ATOM     33  H41 ASP d   1      -5.375   6.047  -1.762  0.00  0.00     0.163 HD
ATOM     34  H42 ASP d   1      -7.613   4.686  -0.716  0.00  0.00     0.088 H 
ATOM     35  N   LEU d   1      -5.049   4.885   1.325  0.00  0.00    -0.346 N 
ATOM     36  CA  LEU d   1      -4.655   4.757   2.723  0.00  0.00     0.089 C 
ATOM     37  C   LEU d   1      -5.654   5.479   3.626  0.00  0.00     0.241 C 
ATOM     38  O   LEU d   1      -6.110   4.934   4.635  0.00  0.00    -0.271 OA
ATOM     39  N   LEU d   1      -5.989   6.706   3.250  0.00  0.00    -0.346 N 
ATOM     40  CA  LEU d   1      -6.959   7.507   3.988  0.00  0.00     0.089 C 
ATOM     41  C   LEU d   1      -8.316   6.816   4.050  0.00  0.00     0.241 C 
ATOM     42  O   LEU d   1      -8.877   6.654   5.134  0.00  0.00    -0.271 OA
ATOM     43  H45 LEU d   1      -4.430   5.340   0.685  0.00  0.00     0.163 HD
ATOM     44  H46 LEU d   1      -4.644   3.690   2.989  0.00  0.00     0.087 H 
ATOM     45  H56 LEU d   1      -5.562   7.095   2.433  0.00  0.00     0.163 HD
ATOM     46  H57 LEU d   1      -6.589   7.630   5.016  0.00  0.00     0.087 H 
ENDROOT
BRANCH   9  47
ATOM     47  C   MK8 d   1     -10.154   4.440   3.618  0.00  0.00     0.246 C 
ATOM     48  O   MK8 d   1     -11.195   4.008   4.102  0.00  0.00    -0.271 OA
ATOM     49  N   TYR d   1      -8.990   3.833   3.770  0.00  0.00    -0.345 N 
ATOM     50  H78 TYR d   1      -8.173   4.231   3.352  0.00  0.00     0.163 HD
BRANCH  49  51
ATOM     51  CA  TYR d   1      -8.870   2.595   4.534  0.00  0.00     0.093 C 
ATOM     52  H79 TYR d   1      -9.651   1.902   4.187  0.00  0.00     0.088 H 
BRANCH  51  53
ATOM     53  C   TYR d   1      -9.079   2.843   6.025  0.00  0.00     0.241 C 
ATOM     54  O   TYR d   1      -9.784   2.096   6.694  0.00  0.00    -0.271 OA
ATOM     55  N   TYR d   1      -8.428   3.864   6.554  0.00  0.00    -0.346 N 
ATOM     56  H87 TYR d   1      -7.812   4.404   5.981  0.00  0.00     0.163 HD
BRANCH  55  57
ATOM     57  CA  TYR d   1      -8.592   4.217   7.958  0.00  0.00     0.093 C 
ATOM     58  H88 TYR d   1      -8.549   3.288   8.545  0.00  0.00     0.088 H 
BRANCH  57  59
ATOM     59  C   TYR d   1      -9.948   4.868   8.221  0.00  0.00     0.241 C 
ATOM     60  O   TYR d   1     -10.563   4.638   9.265  0.00  0.00    -0.271 OA
ATOM     61  N   GLY d   1     -10.409   5.676   7.274  0.00  0.00    -0.351 N 
ATOM     62  H96 GLY d   1      -9.886   5.796   6.430  0.00  0.00     0.163 HD
BRANCH  61  63
ATOM     63  CA  GLY d   1     -11.662   6.387   7.447  0.00  0.00     0.069 C 
ATOM     64  H97 GLY d   1     -11.685   7.230   6.740  0.00  0.00     0.078 H 
ATOM     65  H98 GLY d   1     -11.706   6.771   8.477  0.00  0.00     0.078 H 
BRANCH  63  66
ATOM     66  C   GLY d   1     -12.886   5.519   7.203  0.00  0.00     0.236 C 
ATOM     67  O   GLY d   1     -13.852   5.569   7.968  0.00  0.00    -0.272 OA
ATOM     68  N   LYS d   1     -12.851   4.728   6.139  0.00  0.00    -0.346 N 
ATOM     69  H99 LYS d   1     -12.029   4.720   5.569  0.00  0.00     0.163 HD
BRANCH  68  70
ATOM     70  CA  LYS d   1     -13.969   3.872   5.773  0.00  0.00     0.089 C 
ATOM     71 0H10 LYS d   1     -14.737   3.926   6.559  0.00  0.00     0.087 H 
BRANCH  70  72
ATOM     72  C   LYS d   1     -13.476   2.438   5.649  0.00  0.00     0.241 C 
ATOM     73  O   LYS d   1     -12.448   2.087   6.211  0.00  0.00    -0.271 OA
ATOM     74  N   LYS d   1     -14.215   1.611   4.928  0.00  0.00    -0.346 N 
ATOM     75 2H11 LYS d   1     -15.062   1.944   4.514  0.00  0.00     0.163 HD
BRANCH  74  76
ATOM     76  CA  LYS d   1     -13.817   0.223   4.726  0.00  0.00     0.089 C 
ATOM     77 3H11 LYS d   1     -12.723   0.167   4.830  0.00  0.00     0.087 H 
BRANCH  76  78
ATOM     78  C   LYS d   1     -14.185  -0.273   3.334  0.00  0.00     0.241 C 
ATOM     79  O   LYS d   1     -14.628  -1.411   3.181  0.00  0.00    -0.271 OA
ATOM     80  N   LYS d   1     -14.016   0.593   2.334  0.00  0.00    -0.345 N 
ATOM     81 5H12 LYS d   1     -13.763   1.536   2.552  0.00  0.00     0.163 HD
BRANCH  80  82
ATOM     82  CA  LYS d   1     -14.186   0.217   0.931  0.00  0.00     0.096 C 
ATOM     83 6H12 LYS d   1     -13.411  -0.521   0.677  0.00  0.00     0.089 H 
BRANCH  82  84
ATOM     84  C   LYS d   1     -14.006   1.439   0.039  0.00  0.00     0.196 C 
ATOM     85  O   LYS d   1     -14.939   2.265  -0.037  0.00  0.00    -0.646 OA
ATOM     86  OXT LYS d   1     -12.932   1.572  -0.578  0.00  0.00    -0.646 OA
ENDBRANCH  82  84
BRANCH  82  87
ATOM     87  CB  LYS d   1     -15.559  -0.417   0.666  0.00  0.00    -0.037 C 
ATOM     88 7H12 LYS d   1     -16.297   0.389   0.535  0.00  0.00     0.036 H 
ATOM     89 8H12 LYS d   1     -15.835  -1.029   1.537  0.00  0.00     0.036 H 
BRANCH  87  90
ATOM     90  CG  LYS d   1     -15.583  -1.300  -0.573  0.00  0.00    -0.061 C 
ATOM     91 9H12 LYS d   1     -15.340  -0.688  -1.454  0.00  0.00     0.033 H 
ATOM     92 0H13 LYS d   1     -16.590  -1.727  -0.690  0.00  0.00     0.033 H 
BRANCH  90  93
ATOM     93  CD  LYS d   1     -14.571  -2.435  -0.461  0.00  0.00    -0.043 C 
ATOM     94 1H13 LYS d   1     -13.569  -2.007  -0.307  0.00  0.00     0.035 H 
ATOM     95 2H13 LYS d   1     -14.582  -3.018  -1.394  0.00  0.00     0.035 H 
BRANCH  93  96
ATOM     96  CE  LYS d   1     -14.899  -3.359   0.704  0.00  0.00     0.080 C 
ATOM     97 3H13 LYS d   1     -15.803  -3.934   0.456  0.00  0.00     0.075 H 
ATOM     98 4H13 LYS d   1     -15.088  -2.747   1.598  0.00  0.00     0.075 H 
BRANCH  96  99
ATOM     99  NZ  LYS d   1     -13.796  -4.309   1.000  0.00  0.00    -0.079 N 
ATOM    100 5H13 LYS d   1     -14.058  -4.897   1.775  0.00  0.00     0.274 HD
ATOM    101 6H13 LYS d   1     -12.963  -3.793   1.236  0.00  0.00     0.274 HD
ATOM    102 7H13 LYS d   1     -13.618  -4.881   0.189  0.00  0.00     0.274 HD
ENDBRANCH  96  99
ENDBRANCH  93  96
ENDBRANCH  90  93
ENDBRANCH  87  90
ENDBRANCH  82  87
ENDBRANCH  80  82
ENDBRANCH  76  78
BRANCH  76 103
ATOM    103  CB  LYS d   1     -14.447  -0.684   5.786  0.00  0.00    -0.038 C 
ATOM    104 4H11 LYS d   1     -14.466  -1.713   5.397  0.00  0.00     0.036 H 
ATOM    105 5H11 LYS d   1     -15.476  -0.342   5.969  0.00  0.00     0.036 H 
BRANCH 103 106
ATOM    106  CG  LYS d   1     -13.698  -0.683   7.107  0.00  0.00    -0.061 C 
ATOM    107 6H11 LYS d   1     -13.665   0.345   7.496  0.00  0.00     0.033 H 
ATOM    108 7H11 LYS d   1     -12.673  -1.043   6.935  0.00  0.00     0.033 H 
BRANCH 106 109
ATOM    109  CD  LYS d   1     -14.364  -1.575   8.135  0.00  0.00    -0.043 C 
ATOM    110 8H11 LYS d   1     -14.533  -2.568   7.692  0.00  0.00     0.035 H 
ATOM    111 9H11 LYS d   1     -15.329  -1.132   8.422  0.00  0.00     0.035 H 
BRANCH 109 112
ATOM    112  CE  LYS d   1     -13.500  -1.727   9.377  0.00  0.00     0.080 C 
ATOM    113 0H12 LYS d   1     -12.572  -2.250   9.100  0.00  0.00     0.075 H 
ATOM    114 1H12 LYS d   1     -14.050  -2.324  10.119  0.00  0.00     0.075 H 
BRANCH 112 115
ATOM    115  NZ  LYS d   1     -13.147  -0.417   9.985  0.00  0.00    -0.079 N 
ATOM    116 2H12 LYS d   1     -12.576  -0.569  10.802  0.00  0.00     0.274 HD
ATOM    117 3H12 LYS d   1     -13.990   0.069  10.249  0.00  0.00     0.274 HD
ATOM    118 4H12 LYS d   1     -12.636   0.137   9.316  0.00  0.00     0.274 HD
ENDBRANCH 112 115
ENDBRANCH 109 112
ENDBRANCH 106 109
ENDBRANCH 103 106
ENDBRANCH  76 103
ENDBRANCH  74  76
ENDBRANCH  70  72
BRANCH  70 119
ATOM    119  CB  LYS d   1     -14.583   4.325   4.444  0.00  0.00    -0.038 C 
ATOM    120 1H10 LYS d   1     -15.516   3.765   4.285  0.00  0.00     0.036 H 
ATOM    121 2H10 LYS d   1     -13.873   4.091   3.637  0.00  0.00     0.036 H 
BRANCH 119 122
ATOM    122  CG  LYS d   1     -14.901   5.809   4.384  0.00  0.00    -0.061 C 
ATOM    123 3H10 LYS d   1     -13.968   6.368   4.217  0.00  0.00     0.033 H 
ATOM    124 4H10 LYS d   1     -15.348   6.118   5.341  0.00  0.00     0.033 H 
BRANCH 122 125
ATOM    125  CD  LYS d   1     -15.873   6.125   3.261  0.00  0.00    -0.043 C 
ATOM    126 5H10 LYS d   1     -15.503   5.672   2.329  0.00  0.00     0.035 H 
ATOM    127 6H10 LYS d   1     -15.936   7.216   3.138  0.00  0.00     0.035 H 
BRANCH 125 128
ATOM    128  CE  LYS d   1     -17.264   5.578   3.561  0.00  0.00     0.080 C 
ATOM    129 7H10 LYS d   1     -17.188   4.497   3.748  0.00  0.00     0.075 H 
ATOM    130 8H10 LYS d   1     -17.911   5.755   2.689  0.00  0.00     0.075 H 
BRANCH 128 131
ATOM    131  NZ  LYS d   1     -17.874   6.231   4.753  0.00  0.00    -0.079 N 
ATOM    132 9H10 LYS d   1     -18.790   5.843   4.917  0.00  0.00     0.274 HD
ATOM    133 0H11 LYS d   1     -17.954   7.222   4.589  0.00  0.00     0.274 HD
ATOM    134 1H11 LYS d   1     -17.291   6.070   5.559  0.00  0.00     0.274 HD
ENDBRANCH 128 131
ENDBRANCH 125 128
ENDBRANCH 122 125
ENDBRANCH 119 122
ENDBRANCH  70 119
ENDBRANCH  68  70
ENDBRANCH  63  66
ENDBRANCH  61  63
ENDBRANCH  57  59
BRANCH  57 135
ATOM    135  CB  TYR d   1      -7.447   5.117   8.421  0.00  0.00    -0.014 C 
ATOM    136  H89 TYR d   1      -7.744   5.609   9.359  0.00  0.00     0.043 H 
ATOM    137  H90 TYR d   1      -7.265   5.879   7.649  0.00  0.00     0.043 H 
BRANCH 135 138
ATOM    138  CG  TYR d   1      -6.162   4.354   8.660  0.00  0.00    -0.056 A 
ATOM    139  CD1 TYR d   1      -5.257   4.126   7.633  0.00  0.00    -0.074 A 
ATOM    140  CE1 TYR d   1      -4.092   3.417   7.854  0.00  0.00    -0.051 A 
ATOM    141  H91 TYR d   1      -5.468   4.510   6.641  0.00  0.00     0.084 H 
ATOM    142  CZ  TYR d   1      -3.822   2.922   9.109  0.00  0.00     0.065 A 
ATOM    143  H93 TYR d   1      -3.393   3.251   7.042  0.00  0.00     0.087 H 
ATOM    144  CE2 TYR d   1      -4.706   3.133  10.144  0.00  0.00    -0.051 A 
ATOM    145  CD2 TYR d   1      -5.867   3.844   9.918  0.00  0.00    -0.074 A 
ATOM    146  H94 TYR d   1      -4.491   2.742  11.132  0.00  0.00     0.087 H 
ATOM    147  H92 TYR d   1      -6.560   4.007  10.735  0.00  0.00     0.084 H 
BRANCH 142 148
ATOM    148  OH  TYR d   1      -2.669   2.210   9.328  0.00  0.00    -0.361 OA
ATOM    149  H95 TYR d   1      -2.174   2.155   8.519  0.00  0.00     0.217 HD
ENDBRANCH 142 148
ENDBRANCH 135 138
ENDBRANCH  57 135
ENDBRANCH  55  57
ENDBRANCH  51  53
BRANCH  51 150
ATOM    150  CB  TYR d   1      -7.505   1.940   4.298  0.00  0.00    -0.014 C 
ATOM    151  H80 TYR d   1      -6.724   2.697   4.460  0.00  0.00     0.043 H 
ATOM    152  H81 TYR d   1      -7.464   1.587   3.257  0.00  0.00     0.043 H 
BRANCH 150 153
ATOM    153  CG  TYR d   1      -7.229   0.764   5.213  0.00  0.00    -0.056 A 
ATOM    154  CD1 TYR d   1      -7.811  -0.478   4.985  0.00  0.00    -0.074 A 
ATOM    155  CE1 TYR d   1      -7.565  -1.544   5.830  0.00  0.00    -0.051 A 
ATOM    156  H82 TYR d   1      -8.467  -0.612   4.133  0.00  0.00     0.084 H 
ATOM    157  CZ  TYR d   1      -6.732  -1.377   6.915  0.00  0.00     0.065 A 
ATOM    158  H84 TYR d   1      -8.025  -2.507   5.640  0.00  0.00     0.087 H 
ATOM    159  CE2 TYR d   1      -6.145  -0.154   7.163  0.00  0.00    -0.051 A 
ATOM    160  CD2 TYR d   1      -6.394   0.906   6.314  0.00  0.00    -0.074 A 
ATOM    161  H85 TYR d   1      -5.492  -0.026   8.019  0.00  0.00     0.087 H 
ATOM    162  H83 TYR d   1      -5.930   1.866   6.510  0.00  0.00     0.084 H 
BRANCH 157 163
ATOM    163  OH  TYR d   1      -6.486  -2.437   7.759  0.00  0.00    -0.361 OA
ATOM    164  H86 TYR d   1      -6.960  -3.201   7.453  0.00  0.00     0.217 HD
ENDBRANCH 157 163
ENDBRANCH 150 153
ENDBRANCH  51 150
ENDBRANCH  49  51
ENDBRANCH   9  47
BRANCH   9 165
ATOM    165  CB1 MK8 d   1     -11.229   6.669   3.321  0.00  0.00    -0.044 C 
ATOM    166  H75 MK8 d   1     -12.212   6.181   3.247  0.00  0.00     0.031 H 
ATOM    167  H76 MK8 d   1     -11.234   7.596   2.729  0.00  0.00     0.031 H 
ATOM    168  H77 MK8 d   1     -11.017   6.907   4.374  0.00  0.00     0.031 H 
ENDBRANCH   9 165
BRANCH  40 169
ATOM    169  CB  LEU d   1      -7.104   8.897   3.358  0.00  0.00    -0.035 C 
ATOM    170  H58 LEU d   1      -8.053   9.331   3.706  0.00  0.00     0.037 H 
ATOM    171  H59 LEU d   1      -7.136   8.774   2.265  0.00  0.00     0.037 H 
BRANCH 169 172
ATOM    172  CG  LEU d   1      -5.978   9.887   3.692  0.00  0.00    -0.059 C 
ATOM    173  H60 LEU d   1      -5.015   9.411   3.455  0.00  0.00     0.038 H 
BRANCH 172 174
ATOM    174  CD1 LEU d   1      -6.110  11.152   2.863  0.00  0.00    -0.073 C 
ATOM    175  H61 LEU d   1      -5.295  11.845   3.119  0.00  0.00     0.028 H 
ATOM    176  H62 LEU d   1      -7.077  11.630   3.075  0.00  0.00     0.028 H 
ATOM    177  H63 LEU d   1      -6.053  10.898   1.794  0.00  0.00     0.028 H 
ENDBRANCH 172 174
BRANCH 172 178
ATOM    178  CD2 LEU d   1      -5.995  10.241   5.173  0.00  0.00    -0.073 C 
ATOM    179  H64 LEU d   1      -5.899   9.322   5.771  0.00  0.00     0.028 H 
ATOM    180  H65 LEU d   1      -6.943  10.742   5.420  0.00  0.00     0.028 H 
ATOM    181  H66 LEU d   1      -5.155  10.915   5.399  0.00  0.00     0.028 H 
ENDBRANCH 172 178
ENDBRANCH 169 172
ENDBRANCH  40 169
BRANCH  36 182
ATOM    182  CB  LEU d   1      -3.252   5.334   2.940  0.00  0.00    -0.035 C 
ATOM    183  H47 LEU d   1      -3.337   6.182   3.635  0.00  0.00     0.037 H 
ATOM    184  H48 LEU d   1      -2.877   5.691   1.970  0.00  0.00     0.037 H 
BRANCH 182 185
ATOM    185  CG  LEU d   1      -2.226   4.354   3.512  0.00  0.00    -0.059 C 
ATOM    186  H49 LEU d   1      -1.350   4.928   3.849  0.00  0.00     0.038 H 
BRANCH 185 187
ATOM    187  CD1 LEU d   1      -2.807   3.625   4.710  0.00  0.00    -0.073 C 
ATOM    188  H50 LEU d   1      -2.060   2.925   5.111  0.00  0.00     0.028 H 
ATOM    189  H51 LEU d   1      -3.703   3.067   4.401  0.00  0.00     0.028 H 
ATOM    190  H52 LEU d   1      -3.079   4.355   5.487  0.00  0.00     0.028 H 
ENDBRANCH 185 187
BRANCH 185 191
ATOM    191  CD2 LEU d   1      -1.766   3.370   2.443  0.00  0.00    -0.073 C 
ATOM    192  H53 LEU d   1      -1.350   3.925   1.589  0.00  0.00     0.028 H 
ATOM    193  H54 LEU d   1      -2.622   2.767   2.107  0.00  0.00     0.028 H 
ATOM    194  H55 LEU d   1      -0.993   2.708   2.862  0.00  0.00     0.028 H 
ENDBRANCH 185 191
ENDBRANCH 182 185
ENDBRANCH  36 182
BRANCH  30 195
ATOM    195  CB  ASP d   1      -5.928   3.580  -1.462  0.00  0.00     0.043 C 
ATOM    196  H43 ASP d   1      -6.297   2.609  -1.100  0.00  0.00     0.052 H 
ATOM    197  H44 ASP d   1      -4.832   3.611  -1.374  0.00  0.00     0.052 H 
BRANCH 195 198
ATOM    198  CG  ASP d   1      -6.302   3.726  -2.925  0.00  0.00     0.175 C 
ATOM    199  OD1 ASP d   1      -5.484   4.274  -3.697  0.00  0.00    -0.648 OA
ATOM    200  OD2 ASP d   1      -7.405   3.288  -3.312  0.00  0.00    -0.648 OA
ENDBRANCH 195 198
ENDBRANCH  30 195
BRANCH   3 201
ATOM    201  N   MK8 d   1      -4.313   8.295  -0.900  0.00  0.00    -0.342 N 
ATOM    202  C   PHE d   1      -3.668   8.004   0.234  0.00  0.00     0.241 C 
ATOM    203  O   PHE d   1      -4.228   7.870   1.324  0.00  0.00    -0.271 OA
ATOM    204  H30 MK8 d   1      -3.775   8.438  -1.731  0.00  0.00     0.163 HD
BRANCH 202 205
ATOM    205  CA  PHE d   1      -2.156   7.841   0.111  0.00  0.00     0.093 C 
ATOM    206  H22 PHE d   1      -1.810   7.145   0.889  0.00  0.00     0.088 H 
BRANCH 205 207
ATOM    207  N   PHE d   1      -1.824   7.287  -1.197  0.00  0.00    -0.346 N 
ATOM    208  C   THR d   1      -2.373   6.160  -1.636  0.00  0.00     0.243 C 
ATOM    209  O   THR d   1      -3.101   5.455  -0.933  0.00  0.00    -0.271 OA
ATOM    210  H21 PHE d   1      -1.167   7.768  -1.778  0.00  0.00     0.163 HD
BRANCH 208 211
ATOM    211  CA  THR d   1      -2.051   5.732  -3.068  0.00  0.00     0.113 C 
ATOM    212  H15 THR d   1      -0.983   5.473  -3.123  0.00  0.00     0.091 H 
BRANCH 211 213
ATOM    213  N   THR d   1      -2.825   4.565  -3.411  0.00  0.00    -0.344 N 
ATOM    214  C   ILE d   1      -2.272   3.378  -3.549  0.00  0.00     0.249 C 
ATOM    215  O   ILE d   1      -1.087   3.153  -3.307  0.00  0.00    -0.271 OA
ATOM    216  H14 THR d   1      -3.811   4.660  -3.548  0.00  0.00     0.163 HD
BRANCH 214 217
ATOM    217  CA  ILE d   1      -3.213   2.300  -4.049  0.00  0.00     0.179 C 
ATOM    218  H4  ILE d   1      -3.973   2.106  -3.278  0.00  0.00     0.099 H 
BRANCH 217 219
ATOM    219  N   ILE d   1      -3.891   2.788  -5.274  0.00  0.00    -0.066 N 
ATOM    220  H1  ILE d   1      -4.383   3.643  -5.068  0.00  0.00     0.275 HD
ATOM    221  H2  ILE d   1      -4.547   2.093  -5.595  0.00  0.00     0.275 HD
ATOM    222  H3  ILE d   1      -3.205   2.959  -5.992  0.00  0.00     0.275 HD
ENDBRANCH 217 219
BRANCH 217 223
ATOM    223  CB  ILE d   1      -2.444   0.987  -4.316  0.00  0.00    -0.022 C 
ATOM    224  H5  ILE d   1      -1.537   1.219  -4.894  0.00  0.00     0.043 H 
BRANCH 223 225
ATOM    225  CG1 ILE d   1      -3.322   0.042  -5.132  0.00  0.00    -0.063 C 
ATOM    226  H6  ILE d   1      -2.792  -0.915  -5.247  0.00  0.00     0.033 H 
ATOM    227  H7  ILE d   1      -3.490   0.490  -6.122  0.00  0.00     0.033 H 
BRANCH 225 228
ATOM    228  CD1 ILE d   1      -4.671  -0.230  -4.492  0.00  0.00    -0.076 C 
ATOM    229  H11 ILE d   1      -5.248  -0.915  -5.130  0.00  0.00     0.027 H 
ATOM    230  H12 ILE d   1      -5.221   0.716  -4.378  0.00  0.00     0.027 H 
ATOM    231  H13 ILE d   1      -4.522  -0.689  -3.503  0.00  0.00     0.027 H 
ENDBRANCH 225 228
ENDBRANCH 223 225
BRANCH 223 232
ATOM    232  CG2 ILE d   1      -2.030   0.325  -3.007  0.00  0.00    -0.070 C 
ATOM    233  H8  ILE d   1      -1.399   1.017  -2.430  0.00  0.00     0.028 H 
ATOM    234  H9  ILE d   1      -1.465  -0.594  -3.223  0.00  0.00     0.028 H 
ATOM    235  H10 ILE d   1      -2.928   0.074  -2.423  0.00  0.00     0.028 H 
ENDBRANCH 223 232
ENDBRANCH 217 223
ENDBRANCH 214 217
ENDBRANCH 211 213
BRANCH 211 236
ATOM    236  CB  THR d   1      -2.325   6.887  -4.073  0.00  0.00     0.060 C 
ATOM    237  H16 THR d   1      -1.358   7.314  -4.378  0.00  0.00     0.086 H 
BRANCH 236 238
ATOM    238  OG1 THR d   1      -3.124   7.919  -3.478  0.00  0.00    -0.393 OA
ATOM    239  H17 THR d   1      -3.274   8.608  -4.114  0.00  0.00     0.210 HD
ENDBRANCH 236 238
BRANCH 236 240
ATOM    240  CG2 THR d   1      -3.059   6.391  -5.313  0.00  0.00    -0.050 C 
ATOM    241  H18 THR d   1      -3.234   7.234  -5.997  0.00  0.00     0.031 H 
ATOM    242  H19 THR d   1      -4.024   5.953  -5.017  0.00  0.00     0.031 H 
ATOM    243  H20 THR d   1      -2.449   5.628  -5.819  0.00  0.00     0.031 H 
ENDBRANCH 236 240
ENDBRANCH 211 236
ENDBRANCH 208 211
ENDBRANCH 205 207
BRANCH 205 244
ATOM    244  CB  PHE d   1      -1.457   9.188   0.311  0.00  0.00    -0.014 C 
ATOM    245  H23 PHE d   1      -1.861   9.902  -0.422  0.00  0.00     0.043 H 
ATOM    246  H24 PHE d   1      -0.380   9.051   0.134  0.00  0.00     0.043 H 
BRANCH 244 247
ATOM    247  CG  PHE d   1      -1.643   9.762   1.686  0.00  0.00    -0.056 A 
ATOM    248  CD1 PHE d   1      -1.270   9.035   2.804  0.00  0.00    -0.077 A 
ATOM    249  CE1 PHE d   1      -1.439   9.549   4.070  0.00  0.00    -0.082 A 
ATOM    250  H25 PHE d   1      -0.839   8.048   2.681  0.00  0.00     0.084 H 
ATOM    251  CZ  PHE d   1      -1.987  10.802   4.236  0.00  0.00    -0.083 A 
ATOM    252  H27 PHE d   1      -1.141   8.968   4.936  0.00  0.00     0.083 H 
ATOM    253  CE2 PHE d   1      -2.365  11.542   3.132  0.00  0.00    -0.082 A 
ATOM    254  H29 PHE d   1      -2.122  11.207   5.232  0.00  0.00     0.083 H 
ATOM    255  CD2 PHE d   1      -2.193  11.022   1.863  0.00  0.00    -0.077 A 
ATOM    256  H28 PHE d   1      -2.796  12.528   3.261  0.00  0.00     0.083 H 
ATOM    257  H26 PHE d   1      -2.491  11.604   0.999  0.00  0.00     0.084 H 
ENDBRANCH 244 247
ENDBRANCH 205 244
ENDBRANCH 202 205
ENDBRANCH   3 201
BRANCH   3 258
ATOM    258  CB1 MK8 d   1      -6.253   9.654  -0.222  0.00  0.00    -0.044 C 
ATOM    259  H38 MK8 d   1      -7.348   9.734  -0.291  0.00  0.00     0.031 H 
ATOM    260  H39 MK8 d   1      -5.791  10.551  -0.660  0.00  0.00     0.031 H 
ATOM    261  H40 MK8 d   1      -5.958   9.568   0.834  0.00  0.00     0.031 H 
ENDBRANCH   3 258
TORSDOF 62
