REMARK  25 active torsions:
REMARK  status: ('A' for Active; 'I' for Inactive)
REMARK    1  A    between atoms: N_1  and  CA_2 
REMARK    2  A    between atoms: CA_2  and  C_3 
REMARK    3  A    between atoms: CA_2  and  CB_5 
REMARK       I    between atoms: C_3  and  N_9 
REMARK    4  A    between atoms: CB_5  and  CG_6 
REMARK    5  A    between atoms: CG_6  and  SD_7 
REMARK    6  A    between atoms: SD_7  and  CE_8 
REMARK    7  A    between atoms: N_9  and  CA_10 
REMARK    8  A    between atoms: CA_10  and  C_11 
REMARK    9  A    between atoms: CA_10  and  CB_13 
REMARK       I    between atoms: C_11  and  N_18 
REMARK   10  A    between atoms: CB_13  and  CG_14 
REMARK   11  A    between atoms: CG_14  and  CD_15 
REMARK   12  A    between atoms: N_18  and  CA_19 
REMARK   13  A    between atoms: CA_19  and  C_20 
REMARK   14  A    between atoms: CA_19  and  CB_22 
REMARK       I    between atoms: C_20  and  N_27 
REMARK   15  A    between atoms: CB_22  and  CG_23 
REMARK   16  A    between atoms: CG_23  and  CD_24 
REMARK   17  A    between atoms: N_27  and  CA_28 
REMARK   18  A    between atoms: CA_28  and  C_29 
REMARK   19  A    between atoms: CA_28  and  CB_31 
REMARK       I    between atoms: C_29  and  N_34 
REMARK   20  A    between atoms: CB_31  and  CG1_32 
REMARK   21  A    between atoms: CB_31  and  CG2_33 
REMARK   22  A    between atoms: N_34  and  CA_35 
REMARK   23  A    between atoms: CA_35  and  C_36 
REMARK   24  A    between atoms: CA_35  and  CB_38 
REMARK   25  A    between atoms: CB_38  and  CG_39 
ROOT
ATOM      1  CA  GLU d   1       3.271   3.511  -7.294  0.00  0.00     0.090 C 
ATOM      2  H   GLU d   1       4.108   3.415  -7.986  0.00  0.00     0.087 H 
ENDROOT
BRANCH   1   3
ATOM      3  N   GLU d   1       2.060   2.911  -7.848  0.00  0.00    -0.346 N 
ATOM      4  C   GLU d   1       1.753   2.842  -9.141  0.00  0.00     0.241 C 
ATOM      5  O   GLU d   1       2.509   3.258 -10.020  0.00  0.00    -0.271 OA
ATOM      6  H   GLU d   1       1.393   2.511  -7.188  0.00  0.00     0.163 HD
BRANCH   4   7
ATOM      7  CA  GLU d   1       0.410   2.186  -9.480  0.00  0.00     0.090 C 
ATOM      8  H   GLU d   1      -0.285   2.414  -8.672  0.00  0.00     0.087 H 
BRANCH   7   9
ATOM      9  N   GLU d   1      -0.187   2.744 -10.699  0.00  0.00    -0.346 N 
ATOM     10  C   MET d   1      -1.275   3.514 -10.709  0.00  0.00     0.249 C 
ATOM     11  O   MET d   1      -1.826   3.906  -9.684  0.00  0.00    -0.271 OA
ATOM     12  H   GLU d   1       0.257   2.530 -11.592  0.00  0.00     0.163 HD
BRANCH  10  13
ATOM     13  CA  MET d   1      -1.863   3.876 -12.059  0.00  0.00     0.176 C 
ATOM     14  H   MET d   1      -1.231   3.506 -12.866  0.00  0.00     0.099 H 
BRANCH  13  15
ATOM     15  N   MET d   1      -3.182   3.231 -12.186  0.00  0.00    -0.066 N 
ATOM     16  H   MET d   1      -3.080   2.224 -12.061  0.00  0.00     0.275 HD
ATOM     17  H   MET d   1      -3.810   3.601 -11.473  0.00  0.00     0.275 HD
ATOM     18  H   MET d   1      -3.565   3.423 -13.112  0.00  0.00     0.275 HD
ENDBRANCH  13  15
BRANCH  13  19
ATOM     19  CB  MET d   1      -1.915   5.402 -12.233  0.00  0.00    -0.022 C 
ATOM     20  H   MET d   1      -0.926   5.798 -12.001  0.00  0.00     0.037 H 
ATOM     21  H   MET d   1      -2.691   5.787 -11.571  0.00  0.00     0.037 H 
BRANCH  19  22
ATOM     22  CG  MET d   1      -2.266   5.826 -13.663  0.00  0.00    -0.021 C 
ATOM     23  H   MET d   1      -1.721   5.157 -14.328  0.00  0.00     0.049 H 
ATOM     24  H   MET d   1      -2.008   6.882 -13.746  0.00  0.00     0.049 H 
BRANCH  22  25
ATOM     25  SD  MET d   1      -4.016   5.685 -14.110  0.00  0.00    -0.173 SA
BRANCH  25  26
ATOM     26  CE  MET d   1      -3.980   6.490 -15.734  0.00  0.00    -0.035 C 
ATOM     27  H   MET d   1      -3.629   7.516 -15.622  0.00  0.00     0.041 H 
ATOM     28  H   MET d   1      -3.305   5.944 -16.394  0.00  0.00     0.041 H 
ATOM     29  H   MET d   1      -4.984   6.492 -16.159  0.00  0.00     0.041 H 
ENDBRANCH  25  26
ENDBRANCH  22  25
ENDBRANCH  19  22
ENDBRANCH  13  19
ENDBRANCH  10  13
ENDBRANCH   7   9
BRANCH   7  30
ATOM     30  CB  GLU d   1       0.559   0.656  -9.554  0.00  0.00    -0.029 C 
ATOM     31  H   GLU d   1       0.945   0.326  -8.590  0.00  0.00     0.037 H 
ATOM     32  H   GLU d   1       1.212   0.439 -10.399  0.00  0.00     0.037 H 
BRANCH  30  33
ATOM     33  CG  GLU d   1      -0.757  -0.100  -9.796  0.00  0.00     0.018 C 
ATOM     34  H   GLU d   1      -1.560   0.436  -9.290  0.00  0.00     0.049 H 
ATOM     35  H   GLU d   1      -0.648  -1.114  -9.412  0.00  0.00     0.049 H 
BRANCH  33  36
ATOM     36  CD  GLU d   1      -1.093  -0.181 -11.287  0.00  0.00     0.172 C 
ATOM     37  OE1 GLU d   1      -0.452  -0.989 -12.008  0.00  0.00    -0.648 OA
ATOM     38  OE2 GLU d   1      -1.949   0.592 -11.771  0.00  0.00    -0.648 OA
ENDBRANCH  33  36
ENDBRANCH  30  33
ENDBRANCH   7  30
ENDBRANCH   4   7
ENDBRANCH   1   3
BRANCH   1  39
ATOM     39  C   GLU d   1       3.628   2.793  -5.990  0.00  0.00     0.241 C 
ATOM     40  O   GLU d   1       2.965   3.010  -4.976  0.00  0.00    -0.271 OA
ATOM     41  N   VAL d   1       4.700   2.000  -6.006  0.00  0.00    -0.346 N 
ATOM     42  H   VAL d   1       5.164   1.871  -6.905  0.00  0.00     0.163 HD
BRANCH  41  43
ATOM     43  CA  VAL d   1       5.279   1.292  -4.849  0.00  0.00     0.092 C 
ATOM     44  H   VAL d   1       6.120   0.705  -5.218  0.00  0.00     0.088 H 
BRANCH  43  45
ATOM     45  C   VAL d   1       4.383   0.195  -4.241  0.00  0.00     0.241 C 
ATOM     46  O   VAL d   1       3.184   0.359  -4.011  0.00  0.00    -0.271 OA
ATOM     47  N   ASP d   1       4.973  -0.977  -3.997  0.00  0.00    -0.344 N 
ATOM     48  H   ASP d   1       5.993  -0.992  -4.020  0.00  0.00     0.163 HD
BRANCH  47  49
ATOM     49  CA  ASP d   1       4.298  -2.251  -3.698  0.00  0.00     0.105 C 
ATOM     50  H   ASP d   1       3.396  -2.292  -4.308  0.00  0.00     0.090 H 
BRANCH  49  51
ATOM     51  C   ASP d   1       3.780  -2.364  -2.260  0.00  0.00     0.197 C 
ATOM     52  O   ASP d   1       2.552  -2.570  -2.096  0.00  0.00    -0.646 OA
ATOM     53  OXT ASP d   1       4.585  -2.259  -1.308  0.00  0.00    -0.646 OA
ENDBRANCH  49  51
BRANCH  49  54
ATOM     54  CB  ASP d   1       5.231  -3.422  -4.077  0.00  0.00     0.044 C 
ATOM     55  H   ASP d   1       4.747  -4.341  -3.748  0.00  0.00     0.053 H 
ATOM     56  H   ASP d   1       6.194  -3.235  -3.603  0.00  0.00     0.053 H 
BRANCH  54  57
ATOM     57  CG  ASP d   1       5.484  -3.555  -5.587  0.00  0.00     0.175 C 
ATOM     58  OD1 ASP d   1       6.670  -3.703  -5.998  0.00  0.00    -0.648 OA
ATOM     59  OD2 ASP d   1       4.492  -3.561  -6.360  0.00  0.00    -0.648 OA
ENDBRANCH  54  57
ENDBRANCH  49  54
ENDBRANCH  47  49
ENDBRANCH  43  45
BRANCH  43  60
ATOM     60  CB  VAL d   1       5.835   2.311  -3.832  0.00  0.00    -0.033 C 
ATOM     61  H   VAL d   1       5.005   2.980  -3.607  0.00  0.00     0.042 H 
BRANCH  60  62
ATOM     62  CG1 VAL d   1       6.321   1.669  -2.542  0.00  0.00    -0.071 C 
ATOM     63  H   VAL d   1       5.493   1.145  -2.064  0.00  0.00     0.028 H 
ATOM     64  H   VAL d   1       7.118   0.961  -2.768  0.00  0.00     0.028 H 
ATOM     65  H   VAL d   1       6.699   2.442  -1.873  0.00  0.00     0.028 H 
ENDBRANCH  60  62
BRANCH  60  66
ATOM     66  CG2 VAL d   1       7.036   3.054  -4.431  0.00  0.00    -0.071 C 
ATOM     67  H   VAL d   1       7.817   2.336  -4.682  0.00  0.00     0.028 H 
ATOM     68  H   VAL d   1       6.723   3.582  -5.332  0.00  0.00     0.028 H 
ATOM     69  H   VAL d   1       7.419   3.770  -3.703  0.00  0.00     0.028 H 
ENDBRANCH  60  66
ENDBRANCH  43  60
ENDBRANCH  41  43
ENDBRANCH   1  39
BRANCH   1  70
ATOM     70  CB  GLU d   1       2.992   4.999  -7.033  0.00  0.00    -0.029 C 
ATOM     71  H   GLU d   1       2.129   5.046  -6.368  0.00  0.00     0.037 H 
ATOM     72  H   GLU d   1       2.849   5.468  -8.006  0.00  0.00     0.037 H 
BRANCH  70  73
ATOM     73  CG  GLU d   1       4.131   5.759  -6.337  0.00  0.00     0.018 C 
ATOM     74  H   GLU d   1       4.987   5.815  -7.009  0.00  0.00     0.049 H 
ATOM     75  H   GLU d   1       4.407   5.232  -5.423  0.00  0.00     0.049 H 
BRANCH  73  76
ATOM     76  CD  GLU d   1       3.676   7.178  -5.982  0.00  0.00     0.172 C 
ATOM     77  OE1 GLU d   1       2.876   7.343  -5.033  0.00  0.00    -0.648 OA
ATOM     78  OE2 GLU d   1       4.092   8.137  -6.674  0.00  0.00    -0.648 OA
ENDBRANCH  73  76
ENDBRANCH  70  73
ENDBRANCH   1  70
TORSDOF 25
