REMARK WARNING: 32 MAX_TORS EXCEEDED!!!
REMARK  59 active torsions:
REMARK  status: ('A' for Active; 'I' for Inactive)
REMARK    1  A    between atoms: N_1  and  CA_2 
REMARK    2  A    between atoms: CA_2  and  C_3 
REMARK    3  A    between atoms: CA_2  and  CB_5 
REMARK       I    between atoms: C_3  and  N_6 
REMARK    4  A    between atoms: N_6  and  CA_7 
REMARK    5  A    between atoms: CA_7  and  C_8 
REMARK    6  A    between atoms: CA_7  and  CB_10 
REMARK       I    between atoms: C_8  and  N_17 
REMARK    7  A    between atoms: CB_10  and  CG_11 
REMARK    8  A    between atoms: CG_11  and  CD_12 
REMARK    9  A    between atoms: CD_12  and  NE_13 
REMARK       I    between atoms: NE_13  and  CZ_14 
REMARK       I    between atoms: CZ_14  and  NH1_15 
REMARK       I    between atoms: CZ_14  and  NH2_16 
REMARK   10  A    between atoms: N_17  and  CA_18 
REMARK   11  A    between atoms: CA_18  and  C_19 
REMARK   12  A    between atoms: CA_18  and  CB_21 
REMARK       I    between atoms: C_19  and  N_24 
REMARK   13  A    between atoms: CB_21  and  OG1_22 
REMARK   14  A    between atoms: CB_21  and  CG2_23 
REMARK   15  A    between atoms: N_24  and  CA_25 
REMARK   16  A    between atoms: CA_25  and  C_26 
REMARK   17  A    between atoms: CA_25  and  CB_28 
REMARK       I    between atoms: C_26  and  N_33 
REMARK   18  A    between atoms: CB_28  and  CG_29 
REMARK   19  A    between atoms: CG_29  and  CD_30 
REMARK   20  A    between atoms: CD_30  and  CE_31 
REMARK   21  A    between atoms: CE_31  and  NZ_32 
REMARK   22  A    between atoms: N_33  and  CA_34 
REMARK   23  A    between atoms: CA_34  and  C_35 
REMARK   24  A    between atoms: CA_34  and  CB_37 
REMARK       I    between atoms: C_35  and  N_42 
REMARK   25  A    between atoms: CB_37  and  CG_38 
REMARK   26  A    between atoms: CG_38  and  CD_39 
REMARK       I    between atoms: CD_39  and  NE2_41 
REMARK   27  A    between atoms: N_42  and  CA_43 
REMARK   28  A    between atoms: CA_43  and  C_44 
REMARK   29  A    between atoms: CA_43  and  CB_46 
REMARK       I    between atoms: C_44  and  N_49 
REMARK   30  A    between atoms: CB_46  and  OG1_47 
REMARK   31  A    between atoms: CB_46  and  CG2_48 
REMARK   32  A    between atoms: N_49  and  CA_50 
REMARK   33  A    between atoms: CA_50  and  C_51 
REMARK   34  A    between atoms: CA_50  and  CB_53 
REMARK       I    between atoms: C_51  and  N_54 
REMARK   35  A    between atoms: N_54  and  CA_55 
REMARK   36  A    between atoms: CA_55  and  C_56 
REMARK   37  A    between atoms: CA_55  and  CB_58 
REMARK       I    between atoms: C_56  and  N_65 
REMARK   38  A    between atoms: CB_58  and  CG_59 
REMARK   39  A    between atoms: CG_59  and  CD_60 
REMARK   40  A    between atoms: CD_60  and  NE_61 
REMARK       I    between atoms: NE_61  and  CZ_62 
REMARK       I    between atoms: CZ_62  and  NH1_63 
REMARK   41  A    between atoms: N_65  and  CA_66 
REMARK   42  A    between atoms: CA_66  and  CB_67 
REMARK   43  A    between atoms: CA_66  and  C_72 
REMARK   44  A    between atoms: CB_67  and  CG_68 
REMARK   45  A    between atoms: CG_68  and  CD_69 
REMARK   46  A    between atoms: CD_69  and  CE_70 
REMARK   47  A    between atoms: CE_70  and  NZ_71 
REMARK   48  A    between atoms: NZ_71  and  CM1_74 
REMARK   49  A    between atoms: NZ_71  and  CM2_75 
REMARK   50  A    between atoms: NZ_71  and  CM3_76 
REMARK       I    between atoms: C_72  and  N_77 
REMARK   51  A    between atoms: N_77  and  CA_78 
REMARK   52  A    between atoms: CA_78  and  C_79 
REMARK   53  A    between atoms: CA_78  and  CB_81 
REMARK       I    between atoms: C_79  and  N_83 
REMARK   54  A    between atoms: CB_81  and  OG_82 
REMARK   55  A    between atoms: N_83  and  CA_84 
REMARK   56  A    between atoms: CA_84  and  C_85 
REMARK   57  A    between atoms: CA_84  and  CB_87 
REMARK   58  A    between atoms: CB_87  and  OG1_88 
REMARK   59  A    between atoms: CB_87  and  CG2_89 
ROOT
ATOM      1  CA  THR d   1      -1.267   9.273  11.512  0.00  0.00     0.113 C 
ATOM      2  H   THR d   1      -1.946   9.942  12.040  0.00  0.00     0.091 H 
ENDROOT
BRANCH   1   3
ATOM      3  N   THR d   1      -1.086   9.781  10.164  0.00  0.00    -0.344 N 
ATOM      4  C   GLN d   1      -1.884  10.716   9.683  0.00  0.00     0.241 C 
ATOM      5  O   GLN d   1      -2.702  11.313  10.380  0.00  0.00    -0.271 OA
ATOM      6  H   THR d   1      -0.334   9.411   9.582  0.00  0.00     0.163 HD
BRANCH   4   7
ATOM      7  CA  GLN d   1      -1.781  11.005   8.195  0.00  0.00     0.090 C 
ATOM      8  H   GLN d   1      -0.964  10.434   7.755  0.00  0.00     0.087 H 
BRANCH   7   9
ATOM      9  N   GLN d   1      -3.030  10.609   7.566  0.00  0.00    -0.346 N 
ATOM     10  C   LYS d   1      -3.070  10.012   6.404  0.00  0.00     0.241 C 
ATOM     11  O   LYS d   1      -2.089   9.839   5.701  0.00  0.00    -0.271 OA
ATOM     12  H   GLN d   1      -3.907  10.804   8.049  0.00  0.00     0.163 HD
BRANCH  10  13
ATOM     13  CA  LYS d   1      -4.430   9.529   5.960  0.00  0.00     0.089 C 
ATOM     14  H   LYS d   1      -5.195  10.284   6.145  0.00  0.00     0.087 H 
BRANCH  13  15
ATOM     15  N   LYS d   1      -4.402   9.274   4.523  0.00  0.00    -0.346 N 
ATOM     16  C   THR d   1      -5.006  10.090   3.663  0.00  0.00     0.243 C 
ATOM     17  O   THR d   1      -5.755  10.999   4.025  0.00  0.00    -0.271 OA
ATOM     18  H   LYS d   1      -3.909   8.453   4.171  0.00  0.00     0.163 HD
BRANCH  16  19
ATOM     19  CA  THR d   1      -4.764   9.816   2.175  0.00  0.00     0.113 C 
ATOM     20  H   THR d   1      -4.476   8.772   2.050  0.00  0.00     0.091 H 
BRANCH  19  21
ATOM     21  N   THR d   1      -5.977  10.026   1.399  0.00  0.00    -0.344 N 
ATOM     22  C   ARG d   1      -6.290   9.263   0.366  0.00  0.00     0.241 C 
ATOM     23  O   ARG d   1      -5.560   8.377  -0.048  0.00  0.00    -0.271 OA
ATOM     24  H   THR d   1      -6.605  10.786   1.660  0.00  0.00     0.163 HD
BRANCH  22  25
ATOM     25  CA  ARG d   1      -7.642   9.517  -0.289  0.00  0.00     0.089 C 
ATOM     26  H   ARG d   1      -7.817  10.593  -0.316  0.00  0.00     0.087 H 
BRANCH  25  27
ATOM     27  N   ARG d   1      -7.678   9.024  -1.667  0.00  0.00    -0.346 N 
ATOM     28  C   ALA d   1      -7.213   9.734  -2.689  0.00  0.00     0.248 C 
ATOM     29  O   ALA d   1      -6.608  10.797  -2.551  0.00  0.00    -0.271 OA
ATOM     30  H   ARG d   1      -8.075   8.102  -1.849  0.00  0.00     0.163 HD
BRANCH  28  31
ATOM     31  CA  ALA d   1      -7.505   9.178  -4.081  0.00  0.00     0.172 C 
ATOM     32  H   ALA d   1      -8.242   8.383  -3.972  0.00  0.00     0.098 H 
BRANCH  31  33
ATOM     33  N   ALA d   1      -8.038  10.255  -4.938  0.00  0.00    -0.067 N 
ATOM     34  H   ALA d   1      -8.864  10.661  -4.498  0.00  0.00     0.275 HD
ATOM     35  H   ALA d   1      -7.327  10.976  -5.058  0.00  0.00     0.275 HD
ATOM     36  H   ALA d   1      -8.291   9.870  -5.848  0.00  0.00     0.275 HD
ENDBRANCH  31  33
BRANCH  31  37
ATOM     37  CB  ALA d   1      -6.267   8.563  -4.731  0.00  0.00    -0.042 C 
ATOM     38  H   ALA d   1      -5.492   9.324  -4.826  0.00  0.00     0.030 H 
ATOM     39  H   ALA d   1      -5.901   7.745  -4.110  0.00  0.00     0.030 H 
ATOM     40  H   ALA d   1      -6.528   8.182  -5.718  0.00  0.00     0.030 H 
ENDBRANCH  31  37
ENDBRANCH  28  31
ENDBRANCH  25  27
BRANCH  25  41
ATOM     41  CB  ARG d   1      -8.718   8.811   0.528  0.00  0.00    -0.036 C 
ATOM     42  H   ARG d   1      -8.374   7.793   0.709  0.00  0.00     0.036 H 
ATOM     43  H   ARG d   1      -9.647   8.866  -0.040  0.00  0.00     0.036 H 
BRANCH  41  44
ATOM     44  CG  ARG d   1      -8.976   9.450   1.883  0.00  0.00    -0.048 C 
ATOM     45  H   ARG d   1      -9.440  10.423   1.722  0.00  0.00     0.035 H 
ATOM     46  H   ARG d   1      -8.025   9.540   2.407  0.00  0.00     0.035 H 
BRANCH  44  47
ATOM     47  CD  ARG d   1      -9.909   8.610   2.728  0.00  0.00     0.009 C 
ATOM     48  H   ARG d   1      -9.507   7.598   2.779  0.00  0.00     0.064 H 
ATOM     49  H   ARG d   1     -10.898   8.631   2.270  0.00  0.00     0.064 H 
BRANCH  47  50
ATOM     50  NE  ARG d   1     -10.023   9.128   4.093  0.00  0.00    -0.227 N 
ATOM     51  CZ  ARG d   1     -10.642   8.490   5.088  0.00  0.00     0.665 C 
ATOM     52  NH1 ARG d   1     -11.264   7.336   4.861  0.00  0.00    -0.235 N 
ATOM     53  NH2 ARG d   1     -10.659   9.018   6.307  0.00  0.00    -0.235 N 
ATOM     54  H   ARG d   1     -11.269   6.935   3.923  0.00  0.00     0.174 HD
ATOM     55  H   ARG d   1     -11.736   6.852   5.625  0.00  0.00     0.174 HD
ATOM     56  H   ARG d   1     -10.199   9.911   6.482  0.00  0.00     0.174 HD
ATOM     57  H   ARG d   1     -11.132   8.530   7.067  0.00  0.00     0.174 HD
ATOM     58  H   ARG d   1      -9.602  10.035   4.296  0.00  0.00     0.177 HD
ENDBRANCH  47  50
ENDBRANCH  44  47
ENDBRANCH  41  44
ENDBRANCH  25  41
ENDBRANCH  22  25
ENDBRANCH  19  21
BRANCH  19  59
ATOM     59  CB  THR d   1      -3.625  10.718   1.669  0.00  0.00     0.060 C 
ATOM     60  H   THR d   1      -3.155  11.187   2.534  0.00  0.00     0.086 H 
BRANCH  59  61
ATOM     61  OG1 THR d   1      -4.143  11.746   0.810  0.00  0.00    -0.393 OA
ATOM     62  H   THR d   1      -3.421  12.299   0.503  0.00  0.00     0.210 HD
ENDBRANCH  59  61
BRANCH  59  63
ATOM     63  CG2 THR d   1      -2.572   9.904   0.939  0.00  0.00    -0.050 C 
ATOM     64  H   THR d   1      -2.155   9.160   1.617  0.00  0.00     0.031 H 
ATOM     65  H   THR d   1      -3.029   9.404   0.085  0.00  0.00     0.031 H 
ATOM     66  H   THR d   1      -1.779  10.566   0.592  0.00  0.00     0.031 H 
ENDBRANCH  59  63
ENDBRANCH  19  59
ENDBRANCH  16  19
ENDBRANCH  13  15
BRANCH  13  67
ATOM     67  CB  LYS d   1      -4.800   8.273   6.770  0.00  0.00    -0.038 C 
ATOM     68  H   LYS d   1      -3.975   7.568   6.667  0.00  0.00     0.036 H 
ATOM     69  H   LYS d   1      -5.750   7.907   6.381  0.00  0.00     0.036 H 
BRANCH  67  70
ATOM     70  CG  LYS d   1      -4.991   8.528   8.260  0.00  0.00    -0.061 C 
ATOM     71  H   LYS d   1      -5.538   9.464   8.375  0.00  0.00     0.033 H 
ATOM     72  H   LYS d   1      -4.006   8.563   8.726  0.00  0.00     0.033 H 
BRANCH  70  73
ATOM     73  CD  LYS d   1      -5.794   7.426   8.938  0.00  0.00    -0.043 C 
ATOM     74  H   LYS d   1      -6.732   7.311   8.395  0.00  0.00     0.035 H 
ATOM     75  H   LYS d   1      -5.946   7.713   9.979  0.00  0.00     0.035 H 
BRANCH  73  76
ATOM     76  CE  LYS d   1      -5.076   6.087   8.921  0.00  0.00     0.080 C 
ATOM     77  H   LYS d   1      -4.141   6.192   9.471  0.00  0.00     0.075 H 
ATOM     78  H   LYS d   1      -4.903   5.803   7.883  0.00  0.00     0.075 H 
BRANCH  76  79
ATOM     79  NZ  LYS d   1      -5.886   5.020   9.571  0.00  0.00    -0.079 N 
ATOM     80  H   LYS d   1      -5.373   4.139   9.540  0.00  0.00     0.274 HD
ATOM     81  H   LYS d   1      -6.067   5.276  10.542  0.00  0.00     0.274 HD
ATOM     82  H   LYS d   1      -6.771   4.917   9.075  0.00  0.00     0.274 HD
ENDBRANCH  76  79
ENDBRANCH  73  76
ENDBRANCH  70  73
ENDBRANCH  67  70
ENDBRANCH  13  67
ENDBRANCH  10  13
ENDBRANCH   7   9
BRANCH   7  83
ATOM     83  CB  GLN d   1      -1.465  12.478   7.953  0.00  0.00    -0.030 C 
ATOM     84  H   GLN d   1      -0.583  12.730   8.542  0.00  0.00     0.037 H 
ATOM     85  H   GLN d   1      -2.344  13.057   8.235  0.00  0.00     0.037 H 
BRANCH  83  86
ATOM     86  CG  GLN d   1      -1.155  12.786   6.499  0.00  0.00     0.011 C 
ATOM     87  H   GLN d   1      -2.095  13.025   6.002  0.00  0.00     0.047 H 
ATOM     88  H   GLN d   1      -0.659  11.914   6.073  0.00  0.00     0.047 H 
BRANCH  86  89
ATOM     89  CD  GLN d   1      -0.229  13.972   6.331  0.00  0.00     0.215 C 
ATOM     90  OE1 GLN d   1      -0.234  14.901   7.138  0.00  0.00    -0.274 OA
ATOM     91  NE2 GLN d   1       0.578  13.940   5.283  0.00  0.00    -0.370 N 
ATOM     92  H   GLN d   1       1.231  14.706   5.118  0.00  0.00     0.159 HD
ATOM     93  H   GLN d   1       0.547  13.149   4.640  0.00  0.00     0.159 HD
ENDBRANCH  86  89
ENDBRANCH  83  86
ENDBRANCH   7  83
ENDBRANCH   4   7
ENDBRANCH   1   3
BRANCH   1  94
ATOM     94  C   THR d   1       0.041   9.290  12.327  0.00  0.00     0.243 C 
ATOM     95  O   THR d   1       0.414  10.331  12.871  0.00  0.00    -0.271 OA
ATOM     96  N   ALA d   1       0.750   8.170  12.387  0.00  0.00    -0.346 N 
ATOM     97  H   ALA d   1       0.443   7.356  11.854  0.00  0.00     0.163 HD
BRANCH  96  98
ATOM     98  CA  ALA d   1       1.957   8.076  13.196  0.00  0.00     0.086 C 
ATOM     99  H   ALA d   1       2.201   9.078  13.550  0.00  0.00     0.086 H 
BRANCH  98 100
ATOM    100  C   ALA d   1       3.136   7.568  12.379  0.00  0.00     0.240 C 
ATOM    101  O   ALA d   1       3.503   6.396  12.456  0.00  0.00    -0.271 OA
ATOM    102  N   ARG d   1       3.726   8.447  11.590  0.00  0.00    -0.346 N 
ATOM    103  H   ARG d   1       3.354   9.395  11.527  0.00  0.00     0.163 HD
BRANCH 102 104
ATOM    104  CA  ARG d   1       4.896   8.086  10.811  0.00  0.00     0.089 C 
ATOM    105  H   ARG d   1       4.766   7.064  10.455  0.00  0.00     0.087 H 
BRANCH 104 106
ATOM    106  C   ARG d   1       6.135   8.152  11.696  0.00  0.00     0.241 C 
ATOM    107  O   ARG d   1       6.192   8.935  12.651  0.00  0.00    -0.271 OA
ATOM    108  N   M3L d   1       7.117   7.337  11.357  0.00  0.00    -0.346 N 
ATOM    109  H   M3L d   1       7.071   6.875  10.448  0.00  0.00     0.163 HD
BRANCH 108 110
ATOM    110  CA  M3L d   1       8.265   7.063  12.217  0.00  0.00     0.089 C 
ATOM    111  H   M3L d   1       7.912   7.027  13.248  0.00  0.00     0.087 H 
BRANCH 110 112
ATOM    112  CB  M3L d   1       8.880   5.715  11.821  0.00  0.00    -0.038 C 
ATOM    113  H   M3L d   1       9.870   5.667  12.276  0.00  0.00     0.036 H 
ATOM    114  H   M3L d   1       8.886   5.672  10.732  0.00  0.00     0.036 H 
BRANCH 112 115
ATOM    115  CG  M3L d   1       8.099   4.502  12.315  0.00  0.00    -0.061 C 
ATOM    116  H   M3L d   1       7.043   4.766  12.363  0.00  0.00     0.033 H 
ATOM    117  H   M3L d   1       8.482   4.219  13.295  0.00  0.00     0.033 H 
BRANCH 115 118
ATOM    118  CD  M3L d   1       8.259   3.319  11.373  0.00  0.00    -0.042 C 
ATOM    119  H   M3L d   1       9.230   3.406  10.886  0.00  0.00     0.035 H 
ATOM    120  H   M3L d   1       7.432   3.340  10.663  0.00  0.00     0.035 H 
BRANCH 118 121
ATOM    121  CE  M3L d   1       8.218   1.981  12.103  0.00  0.00     0.084 C 
ATOM    122  H   M3L d   1       9.034   1.980  12.826  0.00  0.00     0.076 H 
ATOM    123  H   M3L d   1       8.297   1.197  11.350  0.00  0.00     0.076 H 
BRANCH 121 124
ATOM    124  NZ  M3L d   1       6.971   1.749  12.848  0.00  0.00    -0.079 N 
BRANCH 124 125
ATOM    125  CM1 M3L d   1       5.828   1.769  11.913  0.00  0.00     0.067 C 
ATOM    126  H   M3L d   1       5.782   2.739  11.419  0.00  0.00     0.068 H 
ATOM    127  H   M3L d   1       5.957   0.985  11.166  0.00  0.00     0.068 H 
ATOM    128  H   M3L d   1       4.905   1.597  12.466  0.00  0.00     0.068 H 
ENDBRANCH 124 125
BRANCH 124 129
ATOM    129  CM2 M3L d   1       6.793   2.801  13.875  0.00  0.00     0.067 C 
ATOM    130  H   M3L d   1       7.635   2.778  14.567  0.00  0.00     0.068 H 
ATOM    131  H   M3L d   1       6.746   3.776  13.390  0.00  0.00     0.068 H 
ATOM    132  H   M3L d   1       5.867   2.621  14.421  0.00  0.00     0.068 H 
ENDBRANCH 124 129
BRANCH 124 133
ATOM    133  CM3 M3L d   1       7.044   0.429  13.502  0.00  0.00     0.067 C 
ATOM    134  H   M3L d   1       7.170  -0.344  12.744  0.00  0.00     0.068 H 
ATOM    135  H   M3L d   1       7.892   0.411  14.187  0.00  0.00     0.068 H 
ATOM    136  H   M3L d   1       6.123   0.248  14.057  0.00  0.00     0.068 H 
ENDBRANCH 124 133
ENDBRANCH 121 124
ENDBRANCH 118 121
ENDBRANCH 115 118
ENDBRANCH 112 115
ENDBRANCH 110 112
BRANCH 110 137
ATOM    137  C   M3L d   1       9.320   8.168  12.151  0.00  0.00     0.241 C 
ATOM    138  O   M3L d   1      10.497   7.909  11.887  0.00  0.00    -0.271 OA
ATOM    139  N   SER d   1       8.895   9.395  12.393  0.00  0.00    -0.344 N 
ATOM    140  H   SER d   1       7.896   9.561  12.512  0.00  0.00     0.163 HD
BRANCH 139 141
ATOM    141  CA  SER d   1       9.814  10.513  12.494  0.00  0.00     0.109 C 
ATOM    142  H   SER d   1      10.660  10.347  11.827  0.00  0.00     0.090 H 
BRANCH 141 143
ATOM    143  C   SER d   1      10.326  10.623  13.925  0.00  0.00     0.243 C 
ATOM    144  O   SER d   1      11.490  10.950  14.164  0.00  0.00    -0.271 OA
ATOM    145  N   THR d   1       9.445  10.329  14.869  0.00  0.00    -0.342 N 
ATOM    146  H   THR d   1       8.491  10.095  14.595  0.00  0.00     0.163 HD
BRANCH 145 147
ATOM    147  CA  THR d   1       9.788  10.327  16.279  0.00  0.00     0.120 C 
ATOM    148  H   THR d   1      10.784  10.755  16.391  0.00  0.00     0.093 H 
BRANCH 147 149
ATOM    149  C   THR d   1       9.797   8.900  16.818  0.00  0.00     0.199 C 
ATOM    150  O   THR d   1       8.805   8.143  16.647  0.00  0.00    -0.646 OA
ATOM    151  O   THR d   1      10.807   8.474  17.440  0.00  0.00    -0.646 OA
ENDBRANCH 147 149
BRANCH 147 152
ATOM    152  CB  THR d   1       8.790  11.184  17.079  0.00  0.00     0.061 C 
ATOM    153  H   THR d   1       8.856  10.902  18.130  0.00  0.00     0.086 H 
BRANCH 152 154
ATOM    154  OG1 THR d   1       7.457  10.947  16.600  0.00  0.00    -0.393 OA
ATOM    155  H   THR d   1       7.239  10.018  16.709  0.00  0.00     0.210 HD
ENDBRANCH 152 154
BRANCH 152 156
ATOM    156  CG2 THR d   1       9.127  12.663  16.959  0.00  0.00    -0.050 C 
ATOM    157  H   THR d   1      10.130  12.838  17.347  0.00  0.00     0.031 H 
ATOM    158  H   THR d   1       9.084  12.960  15.911  0.00  0.00     0.031 H 
ATOM    159  H   THR d   1       8.407  13.246  17.533  0.00  0.00     0.031 H 
ENDBRANCH 152 156
ENDBRANCH 147 152
ENDBRANCH 145 147
ENDBRANCH 141 143
BRANCH 141 160
ATOM    160  CB  SER d   1       9.116  11.808  12.073  0.00  0.00     0.044 C 
ATOM    161  H   SER d   1       9.851  12.613  12.054  0.00  0.00     0.077 H 
ATOM    162  H   SER d   1       8.321  12.026  12.786  0.00  0.00     0.077 H 
BRANCH 160 163
ATOM    163  OG  SER d   1       8.547  11.678  10.779  0.00  0.00    -0.398 OA
ATOM    164  H   SER d   1       8.116  12.501  10.536  0.00  0.00     0.209 HD
ENDBRANCH 160 163
ENDBRANCH 141 160
ENDBRANCH 139 141
ENDBRANCH 110 137
ENDBRANCH 108 110
ENDBRANCH 104 106
BRANCH 104 165
ATOM    165  CB  ARG d   1       5.054   8.958   9.548  0.00  0.00    -0.036 C 
ATOM    166  H   ARG d   1       4.243   8.684   8.873  0.00  0.00     0.036 H 
ATOM    167  H   ARG d   1       6.057   8.774   9.162  0.00  0.00     0.036 H 
BRANCH 165 168
ATOM    168  CG  ARG d   1       4.943  10.440   9.780  0.00  0.00    -0.048 C 
ATOM    169  H   ARG d   1       5.400  10.958   8.937  0.00  0.00     0.035 H 
ATOM    170  H   ARG d   1       5.447  10.684  10.715  0.00  0.00     0.035 H 
BRANCH 168 171
ATOM    171  CD  ARG d   1       3.495  10.874   9.886  0.00  0.00     0.009 C 
ATOM    172  H   ARG d   1       3.113  10.559  10.857  0.00  0.00     0.064 H 
ATOM    173  H   ARG d   1       2.940  10.419   9.066  0.00  0.00     0.064 H 
BRANCH 171 174
ATOM    174  NE  ARG d   1       3.354  12.325   9.786  0.00  0.00    -0.227 N 
ATOM    175  CZ  ARG d   1       2.669  13.085  10.643  0.00  0.00     0.665 C 
ATOM    176  NH1 ARG d   1       2.098  12.545  11.717  0.00  0.00    -0.235 N 
ATOM    177  NH2 ARG d   1       2.563  14.388  10.427  0.00  0.00    -0.235 N 
ATOM    178  H   ARG d   1       2.182  11.543  11.890  0.00  0.00     0.174 HD
ATOM    179  H   ARG d   1       1.576  13.133  12.367  0.00  0.00     0.174 HD
ATOM    180  H   ARG d   1       3.004  14.807   9.608  0.00  0.00     0.174 HD
ATOM    181  H   ARG d   1       2.040  14.972  11.080  0.00  0.00     0.174 HD
ATOM    182  H   ARG d   1       3.813  12.791   9.004  0.00  0.00     0.177 HD
ENDBRANCH 171 174
ENDBRANCH 168 171
ENDBRANCH 165 168
ENDBRANCH 104 165
ENDBRANCH 102 104
ENDBRANCH  98 100
BRANCH  98 183
ATOM    183  CB  ALA d   1       1.719   7.168  14.391  0.00  0.00    -0.049 C 
ATOM    184  H   ALA d   1       0.912   7.575  15.000  0.00  0.00     0.030 H 
ATOM    185  H   ALA d   1       1.445   6.173  14.041  0.00  0.00     0.030 H 
ATOM    186  H   ALA d   1       2.630   7.107  14.987  0.00  0.00     0.030 H 
ENDBRANCH  98 183
ENDBRANCH  96  98
ENDBRANCH   1  94
BRANCH   1 187
ATOM    187  CB  THR d   1      -1.918   7.861  11.463  0.00  0.00     0.060 C 
ATOM    188  H   THR d   1      -2.983   8.008  11.282  0.00  0.00     0.086 H 
BRANCH 187 189
ATOM    189  OG1 THR d   1      -1.778   7.166  12.708  0.00  0.00    -0.393 OA
ATOM    190  H   THR d   1      -2.191   6.302  12.639  0.00  0.00     0.210 HD
ENDBRANCH 187 189
BRANCH 187 191
ATOM    191  CG2 THR d   1      -1.346   7.030  10.324  0.00  0.00    -0.050 C 
ATOM    192  H   THR d   1      -1.537   7.534   9.377  0.00  0.00     0.031 H 
ATOM    193  H   THR d   1      -0.272   6.913  10.465  0.00  0.00     0.031 H 
ATOM    194  H   THR d   1      -1.821   6.049  10.317  0.00  0.00     0.031 H 
ENDBRANCH 187 191
ENDBRANCH   1 187
TORSDOF 59
