REMARK WARNING: 32 MAX_TORS EXCEEDED!!!
REMARK  35 active torsions:
REMARK  status: ('A' for Active; 'I' for Inactive)
REMARK    1  A    between atoms: N_1  and  CA_2 
REMARK    2  A    between atoms: CA_2  and  C_3 
REMARK    3  A    between atoms: CA_2  and  CB_5 
REMARK       I    between atoms: C_3  and  N_9 
REMARK    4  A    between atoms: CB_5  and  CG_6 
REMARK    5  A    between atoms: N_9  and  CA_10 
REMARK    6  A    between atoms: CA_10  and  C_11 
REMARK    7  A    between atoms: CA_10  and  CB_13 
REMARK       I    between atoms: C_11  and  N_18 
REMARK    8  A    between atoms: CB_13  and  CG_14 
REMARK    9  A    between atoms: CG_14  and  CD_15 
REMARK   10  A    between atoms: N_18  and  CA_19 
REMARK   11  A    between atoms: CA_19  and  C_20 
REMARK   12  A    between atoms: CA_19  and  CB_22 
REMARK       I    between atoms: C_20  and  N_29 
REMARK   13  A    between atoms: CB_22  and  CG_23 
REMARK   14  A    between atoms: N_29  and  CA_30 
REMARK   15  A    between atoms: CA_30  and  CB_31 
REMARK   16  A    between atoms: CA_30  and  C_41 
REMARK   17  A    between atoms: CB_31  and  CG_32 
REMARK   18  A    between atoms: CG_32  and  CD_33 
REMARK   19  A    between atoms: CD_33  and  CE_34 
REMARK   20  A    between atoms: CE_34  and  NZ_35 
REMARK   21  A    between atoms: NZ_35  and  CX1_36 
REMARK   22  A    between atoms: CX1_36  and  C1_37 
REMARK   23  A    between atoms: CX1_36  and  CX2_38 
REMARK       I    between atoms: C_41  and  N_43 
REMARK   24  A    between atoms: N_43  and  CA_44 
REMARK   25  A    between atoms: CA_44  and  C_45 
REMARK   26  A    between atoms: CA_44  and  CB_47 
REMARK       I    between atoms: C_45  and  N_48 
REMARK   27  A    between atoms: N_48  and  CA_49 
REMARK   28  A    between atoms: CA_49  and  C_50 
REMARK   29  A    between atoms: CA_49  and  CB_52 
REMARK       I    between atoms: C_50  and  N_56 
REMARK   30  A    between atoms: CB_52  and  CG_53 
REMARK   31  A    between atoms: N_56  and  CA_57 
REMARK   32  A    between atoms: CA_57  and  C_58 
REMARK   33  A    between atoms: CA_57  and  CB_60 
REMARK   34  A    between atoms: CB_60  and  CG_61 
REMARK   35  A    between atoms: CG_61  and  CD_62 
ROOT
ATOM      1  CA  MCL d   1      11.538  -4.623  -2.467  0.00  0.00     0.089 C 
ATOM      2  H   MCL d   1      12.439  -4.581  -3.079  0.00  0.00     0.087 H 
ENDROOT
BRANCH   1   3
ATOM      3  N   MCL d   1      10.366  -4.835  -3.308  0.00  0.00    -0.346 N 
ATOM      4  C   PHE d   1      10.098  -5.941  -3.828  0.00  0.00     0.241 C 
ATOM      5  O   PHE d   1      10.734  -6.930  -3.712  0.00  0.00    -0.271 OA
ATOM      6  H   MCL d   1       9.739  -4.049  -3.479  0.00  0.00     0.163 HD
BRANCH   4   7
ATOM      7  CA  PHE d   1       8.837  -5.991  -4.686  0.00  0.00     0.093 C 
ATOM      8  H   PHE d   1       9.040  -5.482  -5.628  0.00  0.00     0.088 H 
BRANCH   7   9
ATOM      9  N   PHE d   1       8.466  -7.370  -4.984  0.00  0.00    -0.346 N 
ATOM     10  C   GLU d   1       8.183  -8.240  -4.019  0.00  0.00     0.241 C 
ATOM     11  O   GLU d   1       8.209  -7.946  -2.824  0.00  0.00    -0.271 OA
ATOM     12  H   PHE d   1       8.423  -7.674  -5.957  0.00  0.00     0.163 HD
BRANCH  10  13
ATOM     13  CA  GLU d   1       7.812  -9.648  -4.472  0.00  0.00     0.090 C 
ATOM     14  H   GLU d   1       7.036  -9.573  -5.234  0.00  0.00     0.087 H 
BRANCH  13  15
ATOM     15  N   GLU d   1       8.963 -10.325  -5.063  0.00  0.00    -0.346 N 
ATOM     16  C   ASP d   1       8.919 -10.826  -6.292  0.00  0.00     0.249 C 
ATOM     17  O   ASP d   1       7.923 -10.756  -7.010  0.00  0.00    -0.271 OA
ATOM     18  H   GLU d   1       9.821 -10.415  -4.519  0.00  0.00     0.163 HD
BRANCH  16  19
ATOM     19  CA  ASP d   1      10.192 -11.509  -6.785  0.00  0.00     0.185 C 
ATOM     20  H   ASP d   1      10.072 -11.741  -7.843  0.00  0.00     0.100 H 
BRANCH  19  21
ATOM     21  N   ASP d   1      11.344 -10.626  -6.643  0.00  0.00    -0.066 N 
ATOM     22  H   ASP d   1      11.177  -9.765  -7.163  0.00  0.00     0.275 HD
ATOM     23  H   ASP d   1      11.483 -10.407  -5.657  0.00  0.00     0.275 HD
ATOM     24  H   ASP d   1      12.174 -11.091  -7.010  0.00  0.00     0.275 HD
ENDBRANCH  19  21
BRANCH  19  25
ATOM     25  CB  ASP d   1      10.420 -12.809  -6.012  0.00  0.00     0.050 C 
ATOM     26  H   ASP d   1      10.526 -12.559  -4.956  0.00  0.00     0.052 H 
ATOM     27  H   ASP d   1      11.310 -13.290  -6.418  0.00  0.00     0.052 H 
BRANCH  25  28
ATOM     28  CG  ASP d   1       9.261 -13.776  -6.150  0.00  0.00     0.175 C 
ATOM     29  OD1 ASP d   1       8.282 -13.642  -5.387  0.00  0.00    -0.648 OA
ATOM     30  OD2 ASP d   1       9.331 -14.667  -7.023  0.00  0.00    -0.648 OA
ENDBRANCH  25  28
ENDBRANCH  19  25
ENDBRANCH  16  19
ENDBRANCH  13  15
BRANCH  13  31
ATOM     31  CB  GLU d   1       7.273 -10.452  -3.287  0.00  0.00    -0.029 C 
ATOM     32  H   GLU d   1       6.724 -11.302  -3.692  0.00  0.00     0.037 H 
ATOM     33  H   GLU d   1       6.658  -9.779  -2.689  0.00  0.00     0.037 H 
BRANCH  31  34
ATOM     34  CG  GLU d   1       8.360 -11.003  -2.379  0.00  0.00     0.018 C 
ATOM     35  H   GLU d   1       8.088 -10.767  -1.350  0.00  0.00     0.049 H 
ATOM     36  H   GLU d   1       9.306 -10.552  -2.678  0.00  0.00     0.049 H 
BRANCH  34  37
ATOM     37  CD  GLU d   1       8.507 -12.508  -2.488  0.00  0.00     0.172 C 
ATOM     38  OE1 GLU d   1       7.470 -13.205  -2.485  0.00  0.00    -0.648 OA
ATOM     39  OE2 GLU d   1       9.655 -12.988  -2.577  0.00  0.00    -0.648 OA
ENDBRANCH  34  37
ENDBRANCH  31  34
ENDBRANCH  13  31
ENDBRANCH  10  13
ENDBRANCH   7   9
BRANCH   7  40
ATOM     40  CB  PHE d   1       7.689  -5.278  -3.968  0.00  0.00    -0.014 C 
ATOM     41  H   PHE d   1       8.071  -4.922  -3.011  0.00  0.00     0.043 H 
ATOM     42  H   PHE d   1       6.870  -5.991  -3.871  0.00  0.00     0.043 H 
BRANCH  40  43
ATOM     43  CG  PHE d   1       7.164  -4.086  -4.716  0.00  0.00    -0.056 A 
ATOM     44  CD1 PHE d   1       8.026  -3.097  -5.164  0.00  0.00    -0.077 A 
ATOM     45  CE1 PHE d   1       7.546  -1.999  -5.852  0.00  0.00    -0.082 A 
ATOM     46  H   PHE d   1       9.095  -3.187  -4.971  0.00  0.00     0.084 H 
ATOM     47  CZ  PHE d   1       6.192  -1.879  -6.099  0.00  0.00    -0.083 A 
ATOM     48  H   PHE d   1       8.235  -1.229  -6.199  0.00  0.00     0.083 H 
ATOM     49  CE2 PHE d   1       5.323  -2.857  -5.658  0.00  0.00    -0.082 A 
ATOM     50  H   PHE d   1       5.811  -1.014  -6.641  0.00  0.00     0.083 H 
ATOM     51  CD2 PHE d   1       5.809  -3.953  -4.970  0.00  0.00    -0.077 A 
ATOM     52  H   PHE d   1       4.254  -2.765  -5.852  0.00  0.00     0.083 H 
ATOM     53  H   PHE d   1       5.118  -4.721  -4.623  0.00  0.00     0.084 H 
ENDBRANCH  40  43
ENDBRANCH   7  40
ENDBRANCH   4   7
ENDBRANCH   1   3
BRANCH   1  54
ATOM     54  CB  MCL d   1      11.403  -3.290  -1.700  0.00  0.00    -0.038 C 
ATOM     55  H   MCL d   1      12.117  -3.273  -0.877  0.00  0.00     0.036 H 
ATOM     56  H   MCL d   1      10.390  -3.199  -1.309  0.00  0.00     0.036 H 
BRANCH  54  57
ATOM     57  CG  MCL d   1      11.692  -2.110  -2.653  0.00  0.00    -0.061 C 
ATOM     58  H   MCL d   1      10.997  -1.297  -2.443  0.00  0.00     0.033 H 
ATOM     59  H   MCL d   1      11.570  -2.440  -3.684  0.00  0.00     0.033 H 
BRANCH  57  60
ATOM     60  CD  MCL d   1      13.137  -1.614  -2.443  0.00  0.00    -0.042 C 
ATOM     61  H   MCL d   1      13.836  -2.392  -2.749  0.00  0.00     0.035 H 
ATOM     62  H   MCL d   1      13.291  -1.380  -1.390  0.00  0.00     0.035 H 
BRANCH  60  63
ATOM     63  CE  MCL d   1      13.375  -0.347  -3.291  0.00  0.00     0.083 C 
ATOM     64  H   MCL d   1      12.931  -0.484  -4.277  0.00  0.00     0.075 H 
ATOM     65  H   MCL d   1      14.447  -0.176  -3.390  0.00  0.00     0.075 H 
BRANCH  63  66
ATOM     66  NZ  MCL d   1      12.756   0.813  -2.636  0.00  0.00    -0.061 N 
ATOM     67  H   MCL d   1      13.273   1.038  -1.786  0.00  0.00     0.278 HD
ATOM     68  H   MCL d   1      11.789   0.593  -2.399  0.00  0.00     0.278 HD
BRANCH  66  69
ATOM     69  CX1 MCL d   1      12.787   2.005  -3.577  0.00  0.00     0.181 C 
ATOM     70  H   MCL d   1      12.472   1.631  -4.551  0.00  0.00     0.101 H 
BRANCH  69  71
ATOM     71  C1  MCL d   1      14.215   2.577  -3.636  0.00  0.00    -0.040 C 
ATOM     72  H   MCL d   1      14.520   2.893  -2.639  0.00  0.00     0.031 H 
ATOM     73  H   MCL d   1      14.898   1.809  -3.999  0.00  0.00     0.031 H 
ATOM     74  H   MCL d   1      14.235   3.432  -4.312  0.00  0.00     0.031 H 
ENDBRANCH  69  71
BRANCH  69  75
ATOM     75  CX2 MCL d   1      11.799   3.127  -3.208  0.00  0.00     0.204 C 
ATOM     76  O1  MCL d   1      11.127   3.632  -4.450  0.00  0.00    -0.646 OA
ATOM     77  O2  MCL d   1      11.588   3.555  -2.042  0.00  0.00    -0.646 OA
ENDBRANCH  69  75
ENDBRANCH  66  69
ENDBRANCH  63  66
ENDBRANCH  60  63
ENDBRANCH  57  60
ENDBRANCH  54  57
ENDBRANCH   1  54
BRANCH   1  78
ATOM     78  C   MCL d   1      11.611  -5.749  -1.498  0.00  0.00     0.241 C 
ATOM     79  O   MCL d   1      12.638  -6.420  -1.377  0.00  0.00    -0.271 OA
ATOM     80  N   ALA d   1      10.511  -5.975  -0.787  0.00  0.00    -0.346 N 
ATOM     81  H   ALA d   1       9.693  -5.383  -0.933  0.00  0.00     0.163 HD
BRANCH  80  82
ATOM     82  CA  ALA d   1      10.446  -7.048   0.197  0.00  0.00     0.086 C 
ATOM     83  H   ALA d   1      11.148  -6.816   0.998  0.00  0.00     0.086 H 
BRANCH  82  84
ATOM     84  C   ALA d   1      10.857  -8.382  -0.416  0.00  0.00     0.240 C 
ATOM     85  O   ALA d   1      10.699  -8.599  -1.618  0.00  0.00    -0.271 OA
ATOM     86  N   ASP d   1      11.386  -9.272   0.416  0.00  0.00    -0.346 N 
ATOM     87  H   ASP d   1      11.491  -9.031   1.401  0.00  0.00     0.163 HD
BRANCH  86  88
ATOM     88  CA  ASP d   1      11.820 -10.586  -0.045  0.00  0.00     0.098 C 
ATOM     89  H   ASP d   1      10.984 -11.056  -0.564  0.00  0.00     0.088 H 
BRANCH  88  90
ATOM     90  C   ASP d   1      12.218 -11.472   1.133  0.00  0.00     0.241 C 
ATOM     91  O   ASP d   1      13.174 -11.174   1.848  0.00  0.00    -0.271 OA
ATOM     92  N   GLU d   1      11.477 -12.558   1.326  0.00  0.00    -0.345 N 
ATOM     93  H   GLU d   1      10.698 -12.748   0.696  0.00  0.00     0.163 HD
BRANCH  92  94
ATOM     94  CA  GLU d   1      11.752 -13.485   2.418  0.00  0.00     0.097 C 
ATOM     95  H   GLU d   1      12.589 -13.091   2.993  0.00  0.00     0.089 H 
BRANCH  94  96
ATOM     96  C   GLU d   1      12.139 -14.859   1.881  0.00  0.00     0.196 C 
ATOM     97  O   GLU d   1      12.929 -14.971   0.945  0.00  0.00    -0.646 OA
ATOM     98  O3  GLU d   1      11.643 -15.893   2.403  0.00  0.00    -0.646 OA
ENDBRANCH  94  96
BRANCH  94  99
ATOM     99  CB  GLU d   1      10.531 -13.607   3.332  0.00  0.00    -0.028 C 
ATOM    100  H   GLU d   1      10.309 -12.611   3.715  0.00  0.00     0.037 H 
ATOM    101  H   GLU d   1      10.777 -14.329   4.111  0.00  0.00     0.037 H 
BRANCH  99 102
ATOM    102  CG  GLU d   1       9.286 -14.110   2.621  0.00  0.00     0.018 C 
ATOM    103  H   GLU d   1       9.294 -13.711   1.607  0.00  0.00     0.049 H 
ATOM    104  H   GLU d   1       8.418 -13.783   3.193  0.00  0.00     0.049 H 
BRANCH 102 105
ATOM    105  CD  GLU d   1       9.240 -15.622   2.527  0.00  0.00     0.172 C 
ATOM    106  OE1 GLU d   1       9.521 -16.289   3.546  0.00  0.00    -0.648 OA
ATOM    107  OE2 GLU d   1       8.923 -16.141   1.436  0.00  0.00    -0.648 OA
ENDBRANCH 102 105
ENDBRANCH  99 102
ENDBRANCH  94  99
ENDBRANCH  92  94
ENDBRANCH  88  90
BRANCH  88 108
ATOM    108  CB  ASP d   1      12.995 -10.447  -1.014  0.00  0.00     0.043 C 
ATOM    109  H   ASP d   1      13.841 -10.037  -0.462  0.00  0.00     0.052 H 
ATOM    110  H   ASP d   1      12.681  -9.801  -1.834  0.00  0.00     0.052 H 
BRANCH 108 111
ATOM    111  CG  ASP d   1      13.421 -11.779  -1.603  0.00  0.00     0.175 C 
ATOM    112  OD1 ASP d   1      14.223 -12.483  -0.956  0.00  0.00    -0.648 OA
ATOM    113  OD2 ASP d   1      12.951 -12.116  -2.710  0.00  0.00    -0.648 OA
ENDBRANCH 108 111
ENDBRANCH  88 108
ENDBRANCH  86  88
ENDBRANCH  82  84
BRANCH  82 114
ATOM    114  CB  ALA d   1       9.044  -7.143   0.781  0.00  0.00    -0.049 C 
ATOM    115  H   ALA d   1       8.788  -6.200   1.264  0.00  0.00     0.030 H 
ATOM    116  H   ALA d   1       8.332  -7.348  -0.018  0.00  0.00     0.030 H 
ATOM    117  H   ALA d   1       9.011  -7.949   1.514  0.00  0.00     0.030 H 
ENDBRANCH  82 114
ENDBRANCH  80  82
ENDBRANCH   1  78
TORSDOF 35
