REMARK WARNING: 32 MAX_TORS EXCEEDED!!!
REMARK  76 active torsions:
REMARK  status: ('A' for Active; 'I' for Inactive)
REMARK    1  A    between atoms: N_1  and  CA_2 
REMARK    2  A    between atoms: CA_2  and  C_3 
REMARK       I    between atoms: C_3  and  N_5 
REMARK    3  A    between atoms: N_5  and  CA_6 
REMARK    4  A    between atoms: CA_6  and  C_7 
REMARK    5  A    between atoms: CA_6  and  CB_9 
REMARK       I    between atoms: C_7  and  N_10 
REMARK    6  A    between atoms: N_10  and  CA_11 
REMARK    7  A    between atoms: CA_11  and  C_12 
REMARK    8  A    between atoms: CA_11  and  CB_14 
REMARK       I    between atoms: C_12  and  N_18 
REMARK    9  A    between atoms: CB_14  and  CG_15 
REMARK   10  A    between atoms: CG_15  and  SD_16 
REMARK   11  A    between atoms: SD_16  and  CE_17 
REMARK   12  A    between atoms: N_18  and  CA_19 
REMARK   13  A    between atoms: CA_19  and  C_20 
REMARK       I    between atoms: C_20  and  N_22 
REMARK   14  A    between atoms: N_22  and  CA_23 
REMARK   15  A    between atoms: CA_23  and  C_24 
REMARK   16  A    between atoms: CA_23  and  CB_26 
REMARK       I    between atoms: C_24  and  N_28 
REMARK   17  A    between atoms: CB_26  and  OG_27 
REMARK   18  A    between atoms: N_28  and  CA_29 
REMARK   19  A    between atoms: CA_29  and  C_30 
REMARK   20  A    between atoms: CA_29  and  CB_32 
REMARK       I    between atoms: C_30  and  N_33 
REMARK   21  A    between atoms: N_33  and  CA_34 
REMARK   22  A    between atoms: CA_34  and  C_35 
REMARK   23  A    between atoms: CA_34  and  CB_37 
REMARK       I    between atoms: C_35  and  N_39 
REMARK   24  A    between atoms: CB_37  and  OG_38 
REMARK   25  A    between atoms: N_39  and  CA_40 
REMARK   26  A    between atoms: CA_40  and  C_41 
REMARK   27  A    between atoms: CA_40  and  CB_43 
REMARK       I    between atoms: C_41  and  N_45 
REMARK   28  A    between atoms: CB_43  and  OG_44 
REMARK   29  A    between atoms: N_45  and  CA_46 
REMARK   30  A    between atoms: CA_46  and  C_47 
REMARK   31  A    between atoms: CA_46  and  CB_49 
REMARK       I    between atoms: C_47  and  N_54 
REMARK   32  A    between atoms: CB_49  and  CG_50 
REMARK   33  A    between atoms: CG_50  and  CD_51 
REMARK   34  A    between atoms: N_54  and  CA_55 
REMARK   35  A    between atoms: CA_55  and  C_56 
REMARK   36  A    between atoms: CA_55  and  CB_58 
REMARK       I    between atoms: C_56  and  N_62 
REMARK   37  A    between atoms: CB_58  and  CG_59 
REMARK   38  A    between atoms: N_62  and  CA_63 
REMARK   39  A    between atoms: CA_63  and  C_64 
REMARK   40  A    between atoms: CA_63  and  CB_66 
REMARK       I    between atoms: C_64  and  N_74 
REMARK   41  A    between atoms: CB_66  and  CG_67 
REMARK   42  A    between atoms: CZ_72  and  OH_73 
REMARK   43  A    between atoms: N_74  and  CA_75 
REMARK   44  A    between atoms: CA_75  and  C_76 
REMARK   45  A    between atoms: CA_75  and  CB_78 
REMARK       I    between atoms: C_76  and  N_82 
REMARK   46  A    between atoms: CB_78  and  CG1_79 
REMARK   47  A    between atoms: CB_78  and  CG2_80 
REMARK   48  A    between atoms: CG1_79  and  CD1_81 
REMARK   49  A    between atoms: N_82  and  CA_83 
REMARK   50  A    between atoms: CA_83  and  C_84 
REMARK   51  A    between atoms: CA_83  and  CB_86 
REMARK       I    between atoms: C_84  and  N_90 
REMARK   52  A    between atoms: CB_86  and  CG1_87 
REMARK   53  A    between atoms: CB_86  and  CG2_88 
REMARK   54  A    between atoms: CG1_87  and  CD1_89 
REMARK   55  A    between atoms: N_90  and  CA_91 
REMARK   56  A    between atoms: CA_91  and  C_92 
REMARK   57  A    between atoms: CA_91  and  CB_94 
REMARK       I    between atoms: C_92  and  N_98 
REMARK   58  A    between atoms: CB_94  and  CG1_95 
REMARK   59  A    between atoms: CB_94  and  CG2_96 
REMARK   60  A    between atoms: CG1_95  and  CD1_97 
REMARK   61  A    between atoms: N_98  and  CA_99 
REMARK   62  A    between atoms: CA_99  and  C_100 
REMARK   63  A    between atoms: CA_99  and  CB_102 
REMARK       I    between atoms: C_100  and  N_106 
REMARK   64  A    between atoms: CB_102  and  CG_103 
REMARK   65  A    between atoms: CG_103  and  CD1_104 
REMARK   66  A    between atoms: CG_103  and  CD2_105 
REMARK   67  A    between atoms: CA_107  and  C_108 
REMARK       I    between atoms: C_108  and  N_113 
REMARK   68  A    between atoms: N_113  and  CA_114 
REMARK   69  A    between atoms: CA_114  and  C_115 
REMARK   70  A    between atoms: CA_114  and  CB_117 
REMARK       I    between atoms: C_115  and  N_122 
REMARK   71  A    between atoms: CB_117  and  CG_118 
REMARK   72  A    between atoms: CG_118  and  CD_119 
REMARK   73  A    between atoms: N_122  and  CA_123 
REMARK   74  A    between atoms: CA_123  and  C_124 
REMARK   75  A    between atoms: CA_123  and  CB_126 
REMARK   76  A    between atoms: CB_126  and  OG_127 
ROOT
ATOM      1  CA  TYR d   1      -7.058  -0.763  -7.190  0.00  0.00     0.093 C 
ATOM      2  H   TYR d   1      -6.472   0.065  -6.792  0.00  0.00     0.088 H 
ENDROOT
BRANCH   1   3
ATOM      3  N   TYR d   1      -8.125  -0.284  -8.069  0.00  0.00    -0.346 N 
ATOM      4  C   ASP d   1      -8.822   0.847  -7.915  0.00  0.00     0.241 C 
ATOM      5  O   ASP d   1      -8.592   1.650  -7.008  0.00  0.00    -0.271 OA
ATOM      6  H   TYR d   1      -8.359  -0.866  -8.873  0.00  0.00     0.163 HD
BRANCH   4   7
ATOM      7  CA  ASP d   1      -9.892   1.166  -8.960  0.00  0.00     0.098 C 
ATOM      8  H   ASP d   1      -9.751   0.462  -9.780  0.00  0.00     0.088 H 
BRANCH   7   9
ATOM      9  N   ASP d   1     -11.258   0.976  -8.471  0.00  0.00    -0.346 N 
ATOM     10  C   GLU d   1     -11.786  -0.187  -8.095  0.00  0.00     0.241 C 
ATOM     11  O   GLU d   1     -11.122  -1.224  -8.082  0.00  0.00    -0.271 OA
ATOM     12  H   ASP d   1     -11.854   1.802  -8.414  0.00  0.00     0.163 HD
BRANCH  10  13
ATOM     13  CA  GLU d   1     -13.254  -0.201  -7.641  0.00  0.00     0.090 C 
ATOM     14  H   GLU d   1     -13.772   0.553  -8.234  0.00  0.00     0.087 H 
BRANCH  13  15
ATOM     15  N   GLU d   1     -13.825  -1.519  -7.875  0.00  0.00    -0.346 N 
ATOM     16  C   SER d   1     -14.046  -1.991  -9.097  0.00  0.00     0.243 C 
ATOM     17  O   SER d   1     -13.696  -1.385 -10.114  0.00  0.00    -0.271 OA
ATOM     18  H   GLU d   1     -14.064  -2.101  -7.072  0.00  0.00     0.163 HD
BRANCH  16  19
ATOM     19  CA  SER d   1     -14.675  -3.384  -9.187  0.00  0.00     0.109 C 
ATOM     20  H   SER d   1     -15.433  -3.439  -8.405  0.00  0.00     0.090 H 
BRANCH  19  21
ATOM     21  N   SER d   1     -15.268  -3.563 -10.502  0.00  0.00    -0.344 N 
ATOM     22  C   SER d   1     -16.292  -2.831 -10.937  0.00  0.00     0.243 C 
ATOM     23  O   SER d   1     -16.833  -1.956 -10.253  0.00  0.00    -0.271 OA
ATOM     24  H   SER d   1     -14.883  -4.280 -11.118  0.00  0.00     0.163 HD
BRANCH  22  25
ATOM     25  CA  SER d   1     -16.809  -3.121 -12.350  0.00  0.00     0.109 C 
ATOM     26  H   SER d   1     -16.661  -4.170 -12.606  0.00  0.00     0.090 H 
BRANCH  25  27
ATOM     27  N   SER d   1     -18.208  -2.751 -12.360  0.00  0.00    -0.344 N 
ATOM     28  C   ALA d   1     -19.175  -3.508 -11.841  0.00  0.00     0.240 C 
ATOM     29  O   ALA d   1     -18.964  -4.609 -11.336  0.00  0.00    -0.271 OA
ATOM     30  H   SER d   1     -18.468  -1.862 -12.788  0.00  0.00     0.163 HD
BRANCH  28  31
ATOM     31  CA  ALA d   1     -20.589  -2.929 -11.884  0.00  0.00     0.086 C 
ATOM     32  H   ALA d   1     -21.268  -3.511 -11.261  0.00  0.00     0.086 H 
BRANCH  31  33
ATOM     33  N   ALA d   1     -20.481  -1.553 -11.396  0.00  0.00    -0.346 N 
ATOM     34  C   SER d   1     -21.184  -1.015 -10.400  0.00  0.00     0.243 C 
ATOM     35  O   SER d   1     -22.111  -1.624  -9.851  0.00  0.00    -0.271 OA
ATOM     36  H   ALA d   1     -19.804  -0.949 -11.862  0.00  0.00     0.163 HD
BRANCH  34  37
ATOM     37  CA  SER d   1     -20.858   0.444 -10.032  0.00  0.00     0.109 C 
ATOM     38  H   SER d   1     -20.907   1.032 -10.948  0.00  0.00     0.090 H 
BRANCH  37  39
ATOM     39  N   SER d   1     -21.834   0.927  -9.053  0.00  0.00    -0.344 N 
ATOM     40  C   GLY d   1     -22.972   1.536  -9.399  0.00  0.00     0.236 C 
ATOM     41  O   GLY d   1     -23.199   1.906 -10.553  0.00  0.00    -0.272 OA
ATOM     42  H   SER d   1     -21.636   0.792  -8.062  0.00  0.00     0.163 HD
BRANCH  40  43
ATOM     43  CA  GLY d   1     -23.910   1.988  -8.283  0.00  0.00     0.069 C 
ATOM     44  H   GLY d   1     -24.781   2.476  -8.721  0.00  0.00     0.078 H 
ATOM     45  H   GLY d   1     -24.223   1.120  -7.703  0.00  0.00     0.078 H 
BRANCH  43  46
ATOM     46  N   GLY d   1     -23.224   2.927  -7.408  0.00  0.00    -0.351 N 
ATOM     47  C   MET d   1     -23.332   2.996  -6.082  0.00  0.00     0.240 C 
ATOM     48  O   MET d   1     -24.023   2.233  -5.401  0.00  0.00    -0.271 OA
ATOM     49  H   GLY d   1     -22.599   3.598  -7.854  0.00  0.00     0.163 HD
BRANCH  47  50
ATOM     50  CA  MET d   1     -22.494   4.073  -5.391  0.00  0.00     0.090 C 
ATOM     51  H   MET d   1     -22.340   4.893  -6.093  0.00  0.00     0.087 H 
BRANCH  50  52
ATOM     52  N   MET d   1     -23.189   4.534  -4.201  0.00  0.00    -0.346 N 
ATOM     53  C   ALA d   1     -24.292   5.271  -4.201  0.00  0.00     0.240 C 
ATOM     54  O   ALA d   1     -24.814   5.704  -5.231  0.00  0.00    -0.271 OA
ATOM     55  H   MET d   1     -22.799   4.271  -3.296  0.00  0.00     0.163 HD
BRANCH  53  56
ATOM     56  CA  ALA d   1     -24.860   5.634  -2.832  0.00  0.00     0.086 C 
ATOM     57  H   ALA d   1     -24.412   4.989  -2.076  0.00  0.00     0.086 H 
BRANCH  56  58
ATOM     58  N   ALA d   1     -24.549   7.030  -2.559  0.00  0.00    -0.347 N 
ATOM     59  C   GLY d   1     -24.082   7.505  -1.403  0.00  0.00     0.243 C 
ATOM     60  O   GLY d   1     -23.887   6.804  -0.408  0.00  0.00    -0.272 OA
ATOM     61  H   ALA d   1     -24.701   7.700  -3.313  0.00  0.00     0.163 HD
BRANCH  59  62
ATOM     62  CA  GLY d   1     -23.834   8.997  -1.342  0.00  0.00     0.152 C 
ATOM     63  H   GLY d   1     -23.047   9.243  -2.055  0.00  0.00     0.090 H 
ATOM     64  H   GLY d   1     -24.767   9.510  -1.576  0.00  0.00     0.090 H 
BRANCH  62  65
ATOM     65  N   GLY d   1     -23.398   9.420  -0.012  0.00  0.00    -0.071 N 
ATOM     66  H   GLY d   1     -23.242  10.428  -0.011  0.00  0.00     0.274 HD
ATOM     67  H   GLY d   1     -24.118   9.186   0.671  0.00  0.00     0.274 HD
ATOM     68  H   GLY d   1     -22.531   8.940   0.229  0.00  0.00     0.274 HD
ENDBRANCH  62  65
ENDBRANCH  59  62
ENDBRANCH  56  58
BRANCH  56  69
ATOM     69  CB  ALA d   1     -26.377   5.421  -2.789  0.00  0.00    -0.049 C 
ATOM     70  H   ALA d   1     -26.852   6.050  -3.542  0.00  0.00     0.030 H 
ATOM     71  H   ALA d   1     -26.602   4.374  -2.994  0.00  0.00     0.030 H 
ATOM     72  H   ALA d   1     -26.752   5.688  -1.801  0.00  0.00     0.030 H 
ENDBRANCH  56  69
ENDBRANCH  53  56
ENDBRANCH  50  52
BRANCH  50  73
ATOM     73  CB  MET d   1     -21.142   3.500  -4.955  0.00  0.00    -0.030 C 
ATOM     74  H   MET d   1     -21.340   2.549  -4.461  0.00  0.00     0.037 H 
ATOM     75  H   MET d   1     -20.668   4.245  -4.316  0.00  0.00     0.037 H 
BRANCH  73  76
ATOM     76  CG  MET d   1     -20.183   3.218  -6.106  0.00  0.00    -0.021 C 
ATOM     77  H   MET d   1     -20.032   4.138  -6.671  0.00  0.00     0.049 H 
ATOM     78  H   MET d   1     -20.612   2.441  -6.738  0.00  0.00     0.049 H 
BRANCH  76  79
ATOM     79  SD  MET d   1     -18.585   2.647  -5.486  0.00  0.00    -0.173 SA
BRANCH  79  80
ATOM     80  CE  MET d   1     -18.925   0.876  -5.291  0.00  0.00    -0.035 C 
ATOM     81  H   MET d   1     -19.745   0.740  -4.586  0.00  0.00     0.041 H 
ATOM     82  H   MET d   1     -19.200   0.452  -6.257  0.00  0.00     0.041 H 
ATOM     83  H   MET d   1     -18.033   0.376  -4.914  0.00  0.00     0.041 H 
ENDBRANCH  79  80
ENDBRANCH  76  79
ENDBRANCH  73  76
ENDBRANCH  50  73
ENDBRANCH  47  50
ENDBRANCH  43  46
ENDBRANCH  40  43
ENDBRANCH  37  39
BRANCH  37  84
ATOM     84  CB  SER d   1     -19.438   0.599  -9.452  0.00  0.00     0.044 C 
ATOM     85  H   SER d   1     -19.325  -0.123  -8.643  0.00  0.00     0.077 H 
ATOM     86  H   SER d   1     -19.324   1.628  -9.112  0.00  0.00     0.077 H 
BRANCH  84  87
ATOM     87  OG  SER d   1     -18.426   0.341 -10.414  0.00  0.00    -0.398 OA
ATOM     88  H   SER d   1     -18.517  -0.558 -10.739  0.00  0.00     0.209 HD
ENDBRANCH  84  87
ENDBRANCH  37  84
ENDBRANCH  34  37
ENDBRANCH  31  33
BRANCH  31  89
ATOM     89  CB  ALA d   1     -21.186  -2.990 -13.292  0.00  0.00    -0.049 C 
ATOM     90  H   ALA d   1     -22.184  -2.552 -13.281  0.00  0.00     0.030 H 
ATOM     91  H   ALA d   1     -20.550  -2.432 -13.979  0.00  0.00     0.030 H 
ATOM     92  H   ALA d   1     -21.248  -4.029 -13.614  0.00  0.00     0.030 H 
ENDBRANCH  31  89
ENDBRANCH  28  31
ENDBRANCH  25  27
BRANCH  25  93
ATOM     93  CB  SER d   1     -16.063  -2.265 -13.375  0.00  0.00     0.044 C 
ATOM     94  H   SER d   1     -15.002  -2.507 -13.320  0.00  0.00     0.077 H 
ATOM     95  H   SER d   1     -16.246  -1.215 -13.146  0.00  0.00     0.077 H 
BRANCH  93  96
ATOM     96  OG  SER d   1     -16.514  -2.522 -14.693  0.00  0.00    -0.398 OA
ATOM     97  H   SER d   1     -16.027  -1.970 -15.310  0.00  0.00     0.209 HD
ENDBRANCH  93  96
ENDBRANCH  25  93
ENDBRANCH  22  25
ENDBRANCH  19  21
BRANCH  19  98
ATOM     98  CB  SER d   1     -13.674  -4.518  -8.926  0.00  0.00     0.044 C 
ATOM     99  H   SER d   1     -14.220  -5.462  -8.913  0.00  0.00     0.077 H 
ATOM    100  H   SER d   1     -13.178  -4.326  -7.974  0.00  0.00     0.077 H 
BRANCH  98 101
ATOM    101  OG  SER d   1     -12.681  -4.588  -9.943  0.00  0.00    -0.398 OA
ATOM    102  H   SER d   1     -12.074  -5.306  -9.748  0.00  0.00     0.209 HD
ENDBRANCH  98 101
ENDBRANCH  19  98
ENDBRANCH  16  19
ENDBRANCH  13  15
BRANCH  13 103
ATOM    103  CB  GLU d   1     -13.447   0.198  -6.170  0.00  0.00    -0.029 C 
ATOM    104  H   GLU d   1     -13.354   1.283  -6.130  0.00  0.00     0.037 H 
ATOM    105  H   GLU d   1     -12.707  -0.362  -5.599  0.00  0.00     0.037 H 
BRANCH 103 106
ATOM    106  CG  GLU d   1     -14.823  -0.145  -5.556  0.00  0.00     0.018 C 
ATOM    107  H   GLU d   1     -15.035   0.621  -4.810  0.00  0.00     0.049 H 
ATOM    108  H   GLU d   1     -14.750  -1.160  -5.165  0.00  0.00     0.049 H 
BRANCH 106 109
ATOM    109  CD  GLU d   1     -15.993  -0.135  -6.546  0.00  0.00     0.172 C 
ATOM    110  OE1 GLU d   1     -16.183   0.871  -7.265  0.00  0.00    -0.648 OA
ATOM    111  OE2 GLU d   1     -16.669  -1.191  -6.615  0.00  0.00    -0.648 OA
ENDBRANCH 106 109
ENDBRANCH 103 106
ENDBRANCH  13 103
ENDBRANCH  10  13
ENDBRANCH   7   9
BRANCH   7 112
ATOM    112  CB  ASP d   1      -9.718   2.618  -9.443  0.00  0.00     0.043 C 
ATOM    113  H   ASP d   1      -8.653   2.849  -9.417  0.00  0.00     0.052 H 
ATOM    114  H   ASP d   1     -10.312   3.257  -8.790  0.00  0.00     0.052 H 
BRANCH 112 115
ATOM    115  CG  ASP d   1     -10.202   2.838 -10.866  0.00  0.00     0.175 C 
ATOM    116  OD1 ASP d   1     -11.420   3.045 -11.063  0.00  0.00    -0.648 OA
ATOM    117  OD2 ASP d   1      -9.348   2.817 -11.781  0.00  0.00    -0.648 OA
ENDBRANCH 112 115
ENDBRANCH   7 112
ENDBRANCH   4   7
ENDBRANCH   1   3
BRANCH   1 118
ATOM    118  C   TYR d   1      -6.181  -1.694  -8.029  0.00  0.00     0.241 C 
ATOM    119  O   TYR d   1      -6.707  -2.650  -8.619  0.00  0.00    -0.271 OA
ATOM    120  N   ILE d   1      -4.865  -1.458  -8.052  0.00  0.00    -0.346 N 
ATOM    121  H   ILE d   1      -4.493  -0.688  -7.496  0.00  0.00     0.163 HD
BRANCH 120 122
ATOM    122  CA  ILE d   1      -3.942  -2.266  -8.846  0.00  0.00     0.092 C 
ATOM    123  H   ILE d   1      -4.432  -2.621  -9.752  0.00  0.00     0.088 H 
BRANCH 122 124
ATOM    124  C   ILE d   1      -3.531  -3.520  -8.062  0.00  0.00     0.241 C 
ATOM    125  O   ILE d   1      -2.733  -3.463  -7.128  0.00  0.00    -0.271 OA
ATOM    126  N   ILE d   1      -4.124  -4.662  -8.394  0.00  0.00    -0.346 N 
ATOM    127  H   ILE d   1      -4.818  -4.643  -9.141  0.00  0.00     0.163 HD
BRANCH 126 128
ATOM    128  CA  ILE d   1      -3.840  -5.940  -7.753  0.00  0.00     0.092 C 
ATOM    129  H   ILE d   1      -3.786  -5.809  -6.672  0.00  0.00     0.088 H 
BRANCH 128 130
ATOM    130  C   ILE d   1      -2.513  -6.459  -8.304  0.00  0.00     0.241 C 
ATOM    131  O   ILE d   1      -2.255  -6.325  -9.498  0.00  0.00    -0.271 OA
ATOM    132  N   ILE d   1      -1.683  -7.069  -7.463  0.00  0.00    -0.346 N 
ATOM    133  H   ILE d   1      -1.954  -7.133  -6.482  0.00  0.00     0.163 HD
BRANCH 132 134
ATOM    134  CA  ILE d   1      -0.408  -7.652  -7.863  0.00  0.00     0.092 C 
ATOM    135  H   ILE d   1      -0.229  -7.681  -8.938  0.00  0.00     0.088 H 
BRANCH 134 136
ATOM    136  C   ILE d   1      -0.477  -9.092  -7.353  0.00  0.00     0.241 C 
ATOM    137  O   ILE d   1       0.014  -9.403  -6.269  0.00  0.00    -0.271 OA
ATOM    138  N   LEU d   1      -1.144  -9.962  -8.116  0.00  0.00    -0.346 N 
ATOM    139  H   LEU d   1      -1.554  -9.626  -8.988  0.00  0.00     0.163 HD
BRANCH 138 140
ATOM    140  CA  LEU d   1      -1.317 -11.367  -7.768  0.00  0.00     0.090 C 
ATOM    141  H   LEU d   1      -0.466 -11.765  -7.216  0.00  0.00     0.087 H 
BRANCH 140 142
ATOM    142  C   LEU d   1      -1.424 -12.182  -9.068  0.00  0.00     0.243 C 
ATOM    143  O   LEU d   1      -2.517 -12.258  -9.641  0.00  0.00    -0.271 OA
ATOM    144  N   PRO d   1      -0.306 -12.690  -9.617  0.00  0.00    -0.337 N 
ATOM    145  CA  PRO d   1      -0.288 -13.493 -10.838  0.00  0.00     0.091 C 
ATOM    146  CD  PRO d   1       1.028 -12.646  -9.036  0.00  0.00    -0.001 C 
ATOM    147  CB  PRO d   1       1.180 -13.486 -11.270  0.00  0.00    -0.036 C 
ATOM    148  H   PRO d   1      -0.939 -13.109 -11.624  0.00  0.00     0.087 H 
ATOM    149  CG  PRO d   1       1.925 -13.492  -9.938  0.00  0.00    -0.048 C 
ATOM    150  H   PRO d   1       1.434 -12.629 -11.894  0.00  0.00     0.036 H 
ATOM    151  H   PRO d   1       1.439 -14.333 -11.905  0.00  0.00     0.036 H 
ATOM    152  H   PRO d   1       2.937 -13.094 -10.019  0.00  0.00     0.035 H 
ATOM    153  H   PRO d   1       2.086 -14.498  -9.549  0.00  0.00     0.035 H 
ATOM    154  H   PRO d   1       1.022 -13.035  -8.018  0.00  0.00     0.064 H 
ATOM    155  H   PRO d   1       1.393 -11.621  -8.976  0.00  0.00     0.064 H 
BRANCH 145 156
ATOM    156  C   PRO d   1      -0.775 -14.915 -10.519  0.00  0.00     0.241 C 
ATOM    157  O   PRO d   1      -1.091 -15.216  -9.372  0.00  0.00    -0.271 OA
ATOM    158  N   GLU d   1      -0.824 -15.816 -11.503  0.00  0.00    -0.346 N 
ATOM    159  H   GLU d   1      -0.548 -15.542 -12.446  0.00  0.00     0.163 HD
BRANCH 158 160
ATOM    160  CA  GLU d   1      -1.267 -17.194 -11.254  0.00  0.00     0.090 C 
ATOM    161  H   GLU d   1      -2.164 -17.145 -10.637  0.00  0.00     0.087 H 
BRANCH 160 162
ATOM    162  C   GLU d   1      -0.228 -18.006 -10.469  0.00  0.00     0.241 C 
ATOM    163  O   GLU d   1      -0.503 -19.140 -10.071  0.00  0.00    -0.271 OA
ATOM    164  N   SER d   1       0.970 -17.447 -10.286  0.00  0.00    -0.343 N 
ATOM    165  H   SER d   1       1.127 -16.520 -10.680  0.00  0.00     0.163 HD
BRANCH 164 166
ATOM    166  CA  SER d   1       2.059 -18.067  -9.567  0.00  0.00     0.116 C 
ATOM    167  H   SER d   1       2.071 -19.150  -9.686  0.00  0.00     0.093 H 
BRANCH 166 168
ATOM    168  C   SER d   1       1.875 -17.750  -8.087  0.00  0.00     0.198 C 
ATOM    169  O   SER d   1       1.886 -18.688  -7.256  0.00  0.00    -0.646 OA
ATOM    170  O1  SER d   1       1.714 -16.560  -7.704  0.00  0.00    -0.646 OA
ENDBRANCH 166 168
BRANCH 166 171
ATOM    171  CB  SER d   1       3.387 -17.534 -10.128  0.00  0.00     0.045 C 
ATOM    172  H   SER d   1       3.626 -16.599  -9.621  0.00  0.00     0.077 H 
ATOM    173  H   SER d   1       3.275 -17.388 -11.202  0.00  0.00     0.077 H 
BRANCH 171 174
ATOM    174  OG  SER d   1       4.445 -18.446  -9.908  0.00  0.00    -0.398 OA
ATOM    175  H   SER d   1       5.258 -18.085 -10.269  0.00  0.00     0.209 HD
ENDBRANCH 171 174
ENDBRANCH 166 171
ENDBRANCH 164 166
ENDBRANCH 160 162
BRANCH 160 176
ATOM    176  CB  GLU d   1      -1.601 -17.885 -12.580  0.00  0.00    -0.029 C 
ATOM    177  H   GLU d   1      -0.745 -18.484 -12.890  0.00  0.00     0.037 H 
ATOM    178  H   GLU d   1      -1.829 -17.124 -13.326  0.00  0.00     0.037 H 
BRANCH 176 179
ATOM    179  CG  GLU d   1      -2.820 -18.805 -12.420  0.00  0.00     0.018 C 
ATOM    180  H   GLU d   1      -3.573 -18.279 -11.834  0.00  0.00     0.049 H 
ATOM    181  H   GLU d   1      -2.496 -19.723 -11.929  0.00  0.00     0.049 H 
BRANCH 179 182
ATOM    182  CD  GLU d   1      -3.430 -19.171 -13.768  0.00  0.00     0.172 C 
ATOM    183  OE1 GLU d   1      -4.098 -18.305 -14.388  0.00  0.00    -0.648 OA
ATOM    184  OE2 GLU d   1      -3.276 -20.325 -14.223  0.00  0.00    -0.648 OA
ENDBRANCH 179 182
ENDBRANCH 176 179
ENDBRANCH 160 176
ENDBRANCH 158 160
ENDBRANCH 145 156
ENDBRANCH 140 142
BRANCH 140 185
ATOM    185  CB  LEU d   1      -2.549 -11.498  -6.840  0.00  0.00    -0.035 C 
ATOM    186  H   LEU d   1      -3.420 -11.519  -7.496  0.00  0.00     0.037 H 
ATOM    187  H   LEU d   1      -2.488 -10.666  -6.138  0.00  0.00     0.037 H 
BRANCH 185 188
ATOM    188  CG  LEU d   1      -2.631 -12.774  -5.982  0.00  0.00    -0.059 C 
ATOM    189  H   LEU d   1      -3.463 -12.593  -5.302  0.00  0.00     0.038 H 
BRANCH 188 190
ATOM    190  CD1 LEU d   1      -2.954 -14.027  -6.786  0.00  0.00    -0.073 C 
ATOM    191  H   LEU d   1      -3.918 -13.902  -7.279  0.00  0.00     0.028 H 
ATOM    192  H   LEU d   1      -2.179 -14.186  -7.535  0.00  0.00     0.028 H 
ATOM    193  H   LEU d   1      -2.996 -14.886  -6.116  0.00  0.00     0.028 H 
ENDBRANCH 188 190
BRANCH 188 194
ATOM    194  CD2 LEU d   1      -1.361 -13.007  -5.161  0.00  0.00    -0.073 C 
ATOM    195  H   LEU d   1      -0.509 -13.107  -5.833  0.00  0.00     0.028 H 
ATOM    196  H   LEU d   1      -1.202 -12.161  -4.493  0.00  0.00     0.028 H 
ATOM    197  H   LEU d   1      -1.471 -13.919  -4.574  0.00  0.00     0.028 H 
ENDBRANCH 188 194
ENDBRANCH 185 188
ENDBRANCH 140 185
ENDBRANCH 138 140
ENDBRANCH 134 136
BRANCH 134 198
ATOM    198  CB  ILE d   1       0.784  -6.775  -7.402  0.00  0.00    -0.030 C 
ATOM    199  H   ILE d   1       0.671  -5.823  -7.920  0.00  0.00     0.043 H 
BRANCH 198 200
ATOM    200  CG1 ILE d   1       2.124  -7.425  -7.814  0.00  0.00    -0.063 C 
ATOM    201  H   ILE d   1       2.053  -7.670  -8.874  0.00  0.00     0.033 H 
ATOM    202  H   ILE d   1       2.276  -8.291  -7.170  0.00  0.00     0.033 H 
BRANCH 200 203
ATOM    203  CD1 ILE d   1       3.341  -6.505  -7.638  0.00  0.00    -0.076 C 
ATOM    204  H   ILE d   1       3.212  -5.613  -8.251  0.00  0.00     0.027 H 
ATOM    205  H   ILE d   1       3.429  -6.218  -6.590  0.00  0.00     0.027 H 
ATOM    206  H   ILE d   1       4.242  -7.034  -7.948  0.00  0.00     0.027 H 
ENDBRANCH 200 203
ENDBRANCH 198 200
BRANCH 198 207
ATOM    207  CG2 ILE d   1       0.770  -6.410  -5.907  0.00  0.00    -0.071 C 
ATOM    208  H   ILE d   1      -0.139  -5.854  -5.678  0.00  0.00     0.028 H 
ATOM    209  H   ILE d   1       0.799  -7.322  -5.311  0.00  0.00     0.028 H 
ATOM    210  H   ILE d   1       1.641  -5.796  -5.676  0.00  0.00     0.028 H 
ENDBRANCH 198 207
ENDBRANCH 134 198
ENDBRANCH 132 134
ENDBRANCH 128 130
BRANCH 128 211
ATOM    211  CB  ILE d   1      -4.964  -6.962  -8.070  0.00  0.00    -0.030 C 
ATOM    212  H   ILE d   1      -4.911  -7.121  -9.147  0.00  0.00     0.043 H 
BRANCH 211 213
ATOM    213  CG1 ILE d   1      -6.385  -6.445  -7.742  0.00  0.00    -0.063 C 
ATOM    214  H   ILE d   1      -6.426  -5.384  -7.989  0.00  0.00     0.033 H 
ATOM    215  H   ILE d   1      -6.578  -6.628  -6.685  0.00  0.00     0.033 H 
BRANCH 213 216
ATOM    216  CD1 ILE d   1      -7.465  -7.168  -8.557  0.00  0.00    -0.076 C 
ATOM    217  H   ILE d   1      -7.283  -7.010  -9.620  0.00  0.00     0.027 H 
ATOM    218  H   ILE d   1      -7.432  -8.235  -8.336  0.00  0.00     0.027 H 
ATOM    219  H   ILE d   1      -8.445  -6.771  -8.292  0.00  0.00     0.027 H 
ENDBRANCH 213 216
ENDBRANCH 211 213
BRANCH 211 220
ATOM    220  CG2 ILE d   1      -4.734  -8.285  -7.314  0.00  0.00    -0.071 C 
ATOM    221  H   ILE d   1      -3.777  -8.712  -7.614  0.00  0.00     0.028 H 
ATOM    222  H   ILE d   1      -4.727  -8.092  -6.241  0.00  0.00     0.028 H 
ATOM    223  H   ILE d   1      -5.536  -8.983  -7.554  0.00  0.00     0.028 H 
ENDBRANCH 211 220
ENDBRANCH 128 211
ENDBRANCH 126 128
ENDBRANCH 122 124
BRANCH 122 224
ATOM    224  CB  ILE d   1      -2.747  -1.399  -9.306  0.00  0.00    -0.030 C 
ATOM    225  H   ILE d   1      -2.203  -1.147  -8.396  0.00  0.00     0.043 H 
BRANCH 224 226
ATOM    226  CG1 ILE d   1      -3.163  -0.059  -9.967  0.00  0.00    -0.063 C 
ATOM    227  H   ILE d   1      -2.256   0.376 -10.387  0.00  0.00     0.033 H 
ATOM    228  H   ILE d   1      -3.650   0.533  -9.191  0.00  0.00     0.033 H 
BRANCH 226 229
ATOM    229  CD1 ILE d   1      -4.167  -0.178 -11.122  0.00  0.00    -0.076 C 
ATOM    230  H   ILE d   1      -3.737  -0.792 -11.913  0.00  0.00     0.027 H 
ATOM    231  H   ILE d   1      -5.084  -0.641 -10.758  0.00  0.00     0.027 H 
ATOM    232  H   ILE d   1      -4.390   0.815 -11.512  0.00  0.00     0.027 H 
ENDBRANCH 226 229
ENDBRANCH 224 226
BRANCH 224 233
ATOM    233  CG2 ILE d   1      -1.839  -2.185 -10.265  0.00  0.00    -0.071 C 
ATOM    234  H   ILE d   1      -1.456  -3.070  -9.757  0.00  0.00     0.028 H 
ATOM    235  H   ILE d   1      -2.413  -2.487 -11.141  0.00  0.00     0.028 H 
ATOM    236  H   ILE d   1      -1.006  -1.554 -10.574  0.00  0.00     0.028 H 
ENDBRANCH 224 233
ENDBRANCH 122 224
ENDBRANCH 120 122
ENDBRANCH   1 118
BRANCH   1 237
ATOM    237  CB  TYR d   1      -7.660  -1.520  -5.993  0.00  0.00    -0.014 C 
ATOM    238  H   TYR d   1      -6.846  -2.047  -5.495  0.00  0.00     0.043 H 
ATOM    239  H   TYR d   1      -8.434  -2.183  -6.380  0.00  0.00     0.043 H 
BRANCH 237 240
ATOM    240  CG  TYR d   1      -8.309  -0.611  -4.968  0.00  0.00    -0.056 A 
ATOM    241  CD1 TYR d   1      -7.526   0.058  -4.012  0.00  0.00    -0.074 A 
ATOM    242  CE1 TYR d   1      -8.103   1.046  -3.191  0.00  0.00    -0.051 A 
ATOM    243  H   TYR d   1      -6.470  -0.188  -3.906  0.00  0.00     0.084 H 
ATOM    244  CZ  TYR d   1      -9.471   1.366  -3.340  0.00  0.00     0.065 A 
ATOM    245  H   TYR d   1      -7.498   1.561  -2.445  0.00  0.00     0.087 H 
ATOM    246  CE2 TYR d   1     -10.267   0.652  -4.256  0.00  0.00    -0.051 A 
ATOM    247  CD2 TYR d   1      -9.685  -0.340  -5.057  0.00  0.00    -0.074 A 
ATOM    248  H   TYR d   1     -11.332   0.870  -4.342  0.00  0.00     0.087 H 
ATOM    249  H   TYR d   1     -10.304  -0.905  -5.754  0.00  0.00     0.084 H 
BRANCH 244 250
ATOM    250  OH  TYR d   1     -10.009   2.414  -2.667  0.00  0.00    -0.361 OA
ATOM    251  H   TYR d   1     -10.304   3.078  -3.294  0.00  0.00     0.217 HD
ENDBRANCH 244 250
ENDBRANCH 237 240
ENDBRANCH   1 237
TORSDOF 76
