REMARK  15 active torsions:
REMARK  status: ('A' for Active; 'I' for Inactive)
REMARK    1  A    between atoms: C6_6  and  N6_7 
REMARK    2  A    between atoms: C1'_11  and  N9_10 
REMARK    3  A    between atoms: C2'_12  and  O2'_13 
REMARK    4  A    between atoms: C3'_14  and  O3'_15 
REMARK    5  A    between atoms: C5'_18  and  C4'_17 
REMARK    6  A    between atoms: O5'_19  and  C5'_18 
REMARK    7  A    between atoms: PA_20  and  O5'_19 
REMARK    8  A    between atoms: O3A_23  and  PA_20 
REMARK    9  A    between atoms: PB_24  and  O3A_23 
REMARK   10  A    between atoms: O5D_27  and  PB_24 
REMARK   11  A    between atoms: C5D_28  and  O5D_27 
REMARK   12  A    between atoms: C4D_36  and  C5D_28 
REMARK   13  A    between atoms: C1D_31  and  O1D_30 
REMARK   14  A    between atoms: C2D_33  and  O2D_32 
REMARK   15  A    between atoms: C3D_35  and  O3D_34 
ROOT
ATOM      1  C5' APR d   1       1.471  -4.989  -8.875  0.00  0.00     0.058 C 
ATOM      2  H   APR d   1       1.512  -3.902  -8.804  0.00  0.00     0.079 H 
ATOM      3  H   APR d   1       2.347  -5.375  -9.396  0.00  0.00     0.079 H 
ENDROOT
BRANCH   1   4
ATOM      4  C4' APR d   1       0.205  -5.390  -9.662  0.00  0.00     0.089 C 
ATOM      5  C3' APR d   1       0.579  -6.418 -10.774  0.00  0.00     0.091 C 
ATOM      6  C2' APR d   1       0.961  -5.497 -11.956  0.00  0.00     0.105 C 
ATOM      7  H   APR d   1       1.370  -7.110 -10.485  0.00  0.00     0.091 H 
ATOM      8  C1' APR d   1       0.244  -4.137 -11.598  0.00  0.00     0.139 C 
ATOM      9  H   APR d   1       2.038  -5.396 -12.088  0.00  0.00     0.093 H 
ATOM     10  O4' APR d   1      -0.403  -4.282 -10.329  0.00  0.00    -0.353 OA
ATOM     11  H   APR d   1      -0.512  -3.892 -12.344  0.00  0.00     0.122 H 
ATOM     12  H   APR d   1      -0.489  -5.801  -8.929  0.00  0.00     0.090 H 
BRANCH   5  13
ATOM     13  O3' APR d   1      -0.513  -7.220 -11.097  0.00  0.00    -0.390 OA
ATOM     14  H   APR d   1      -0.294  -7.767 -11.855  0.00  0.00     0.210 HD
ENDBRANCH   5  13
BRANCH   6  15
ATOM     15  O2' APR d   1       0.474  -6.002 -13.151  0.00  0.00    -0.388 OA
ATOM     16  H   APR d   1      -0.470  -6.158 -13.070  0.00  0.00     0.210 HD
ENDBRANCH   6  15
BRANCH   8  17
ATOM     17  N9  APR d   1       1.253  -3.004 -11.600  0.00  0.00    -0.294 N 
ATOM     18  C4  APR d   1       0.948  -1.738 -11.452  0.00  0.00     0.167 A 
ATOM     19  N3  APR d   1      -0.218  -1.116 -11.239  0.00  0.00    -0.222 NA
ATOM     20  C5  APR d   1       2.095  -1.011 -11.565  0.00  0.00     0.149 A 
ATOM     21  C2  APR d   1      -0.271   0.202 -11.136  0.00  0.00     0.091 A 
ATOM     22  N1  APR d   1       0.836   0.943 -11.243  0.00  0.00    -0.222 NA
ATOM     23  H   APR d   1      -1.230   0.690 -10.962  0.00  0.00     0.146 H 
ATOM     24  C6  APR d   1       2.027   0.360 -11.458  0.00  0.00     0.155 A 
ATOM     25  N7  APR d   1       3.099  -1.856 -11.769  0.00  0.00    -0.236 NA
ATOM     26  C8  APR d   1       2.590  -3.092 -11.789  0.00  0.00     0.071 A 
ATOM     27  H   APR d   1       3.155  -4.013 -11.933  0.00  0.00     0.144 H 
BRANCH  24  28
ATOM     28  N6  APR d   1       3.122   1.095 -11.566  0.00  0.00    -0.382 N 
ATOM     29  H   APR d   1       4.023   0.646 -11.729  0.00  0.00     0.157 HD
ATOM     30  H   APR d   1       3.065   2.110 -11.486  0.00  0.00     0.157 HD
ENDBRANCH  24  28
ENDBRANCH   8  17
ENDBRANCH   1   4
BRANCH   1  31
ATOM     31  O5' APR d   1       1.440  -5.541  -7.547  0.00  0.00    -0.287 OA
BRANCH  31  32
ATOM     32  PA  APR d   1       2.289  -6.873  -7.206  0.00  0.00     0.417 P 
ATOM     33  O1A APR d   1       3.760  -6.623  -7.098  0.00  0.00    -0.624 OA
ATOM     34  O2A APR d   1       1.975  -7.930  -8.393  0.00  0.00    -0.624 OA
BRANCH  32  35
ATOM     35  O3A APR d   1       1.683  -7.501  -5.854  0.00  0.00    -0.180 OA
BRANCH  35  36
ATOM     36  PB  APR d   1       2.430  -7.269  -4.442  0.00  0.00     0.417 P 
ATOM     37  O1B APR d   1       1.698  -7.831  -3.266  0.00  0.00    -0.624 OA
ATOM     38  O2B APR d   1       2.647  -5.671  -4.276  0.00  0.00    -0.624 OA
BRANCH  36  39
ATOM     39  O5D APR d   1       3.895  -7.899  -4.580  0.00  0.00    -0.287 OA
BRANCH  39  40
ATOM     40  C5D APR d   1       4.789  -7.860  -3.469  0.00  0.00     0.058 C 
ATOM     41  H   APR d   1       4.212  -7.681  -2.562  0.00  0.00     0.079 H 
ATOM     42  H   APR d   1       5.516  -7.064  -3.632  0.00  0.00     0.079 H 
BRANCH  40  43
ATOM     43  C4D APR d   1       5.551  -9.209  -3.319  0.00  0.00     0.090 C 
ATOM     44  O4D APR d   1       6.516  -9.400  -4.338  0.00  0.00    -0.349 OA
ATOM     45  C1D APR d   1       7.696  -8.720  -3.910  0.00  0.00     0.156 C 
ATOM     46  C2D APR d   1       7.793  -8.914  -2.349  0.00  0.00     0.110 C 
ATOM     47  H   APR d   1       8.564  -9.131  -4.426  0.00  0.00     0.133 H 
ATOM     48  C3D APR d   1       6.325  -9.221  -1.945  0.00  0.00     0.092 C 
ATOM     49  H   APR d   1       8.212  -8.050  -1.833  0.00  0.00     0.094 H 
ATOM     50  H   APR d   1       5.937  -8.490  -1.236  0.00  0.00     0.091 H 
ATOM     51  H   APR d   1       4.804 -10.001  -3.380  0.00  0.00     0.090 H 
BRANCH  45  52
ATOM     52  O1D APR d   1       7.653  -7.298  -4.228  0.00  0.00    -0.369 OA
ATOM     53  H   APR d   1       7.570  -7.186  -5.178  0.00  0.00     0.212 HD
ENDBRANCH  45  52
BRANCH  46  54
ATOM     54  O2D APR d   1       8.628  -9.987  -2.032  0.00  0.00    -0.388 OA
ATOM     55  H   APR d   1       8.277 -10.791  -2.422  0.00  0.00     0.210 HD
ENDBRANCH  46  54
BRANCH  48  56
ATOM     56  O3D APR d   1       6.180 -10.423  -1.261  0.00  0.00    -0.390 OA
ATOM     57  H   APR d   1       6.484 -11.145  -1.817  0.00  0.00     0.210 HD
ENDBRANCH  48  56
ENDBRANCH  40  43
ENDBRANCH  39  40
ENDBRANCH  36  39
ENDBRANCH  35  36
ENDBRANCH  32  35
ENDBRANCH  31  32
ENDBRANCH   1  31
TORSDOF 15
