REMARK  5 active torsions:
REMARK  status: ('A' for Active; 'I' for Inactive)
REMARK    1  A    between atoms: C1_1  and  O3_17 
REMARK    2  A    between atoms: C3_3  and  O2_16 
REMARK    3  A    between atoms: C5_5  and  C7_7 
REMARK    4  A    between atoms: C8_8  and  C9_9 
REMARK    5  A    between atoms: C12_12  and  O1_15 
ROOT
ATOM      1  C7  STL d   1      10.086  12.683  -4.250  0.00  0.00    -0.072 C 
ATOM      2  C8  STL d   1       8.978  13.185  -3.544  0.00  0.00    -0.072 C 
ATOM      3  H   STL d   1      10.093  12.812  -5.332  0.00  0.00     0.084 H 
ATOM      4  H   STL d   1       8.992  13.033  -2.465  0.00  0.00     0.084 H 
ENDROOT
BRANCH   1   5
ATOM      5  C5  STL d   1      11.172  12.035  -3.675  0.00  0.00    -0.031 A 
ATOM      6  C4  STL d   1      11.772  10.910  -4.265  0.00  0.00    -0.041 A 
ATOM      7  C3  STL d   1      12.840  10.253  -3.624  0.00  0.00     0.069 A 
ATOM      8  H   STL d   1      11.409  10.543  -5.225  0.00  0.00     0.089 H 
ATOM      9  C2  STL d   1      13.317  10.728  -2.393  0.00  0.00    -0.019 A 
ATOM     10  C1  STL d   1      12.730  11.861  -1.797  0.00  0.00     0.069 A 
ATOM     11  H   STL d   1      14.143  10.219  -1.897  0.00  0.00     0.092 H 
ATOM     12  C6  STL d   1      11.657  12.518  -2.446  0.00  0.00    -0.041 A 
ATOM     13  H   STL d   1      11.206  13.400  -1.992  0.00  0.00     0.089 H 
BRANCH   7  14
ATOM     14  O2  STL d   1      13.400   9.160  -4.206  0.00  0.00    -0.361 OA
ATOM     15  H   STL d   1      14.109   8.831  -3.649  0.00  0.00     0.217 HD
ENDBRANCH   7  14
BRANCH  10  16
ATOM     16  O3  STL d   1      13.188  12.323  -0.610  0.00  0.00    -0.361 OA
ATOM     17  H   STL d   1      13.912  11.768  -0.309  0.00  0.00     0.217 HD
ENDBRANCH  10  16
ENDBRANCH   1   5
BRANCH   2  18
ATOM     18  C9  STL d   1       7.868  13.850  -4.049  0.00  0.00    -0.036 A 
ATOM     19  C10 STL d   1       7.886  14.578  -5.263  0.00  0.00    -0.070 A 
ATOM     20  C11 STL d   1       6.719  15.254  -5.695  0.00  0.00    -0.050 A 
ATOM     21  H   STL d   1       8.795  14.618  -5.863  0.00  0.00     0.084 H 
ATOM     22  C12 STL d   1       5.560  15.173  -4.888  0.00  0.00     0.065 A 
ATOM     23  H   STL d   1       6.714  15.822  -6.625  0.00  0.00     0.087 H 
ATOM     24  C13 STL d   1       5.533  14.445  -3.677  0.00  0.00    -0.050 A 
ATOM     25  C14 STL d   1       6.696  13.779  -3.256  0.00  0.00    -0.070 A 
ATOM     26  H   STL d   1       4.623  14.401  -3.078  0.00  0.00     0.087 H 
ATOM     27  H   STL d   1       6.697  13.211  -2.325  0.00  0.00     0.084 H 
BRANCH  22  28
ATOM     28  O1  STL d   1       4.433  15.813  -5.290  0.00  0.00    -0.361 OA
ATOM     29  H   STL d   1       4.600  16.261  -6.122  0.00  0.00     0.217 HD
ENDBRANCH  22  28
ENDBRANCH   2  18
TORSDOF 5
