REMARK WARNING: 32 MAX_TORS EXCEEDED!!!
REMARK  69 active torsions:
REMARK  status: ('A' for Active; 'I' for Inactive)
REMARK    1  A    between atoms: N_1  and  CA_2 
REMARK    2  A    between atoms: CA_2  and  C_3 
REMARK    3  A    between atoms: CA_2  and  CB_5 
REMARK       I    between atoms: C_3  and  N_9 
REMARK    4  A    between atoms: CB_5  and  CG_6 
REMARK    5  A    between atoms: N_9  and  CA_10 
REMARK    6  A    between atoms: CA_10  and  C_11 
REMARK    7  A    between atoms: CA_10  and  CB_13 
REMARK       I    between atoms: C_11  and  N_17 
REMARK    8  A    between atoms: CB_13  and  CG_14 
REMARK       I    between atoms: CG_14  and  ND2_16 
REMARK    9  A    between atoms: N_17  and  CA_18 
REMARK   10  A    between atoms: CA_18  and  C_19 
REMARK   11  A    between atoms: CA_18  and  CB_21 
REMARK       I    between atoms: C_19  and  N_26 
REMARK   12  A    between atoms: CB_21  and  CG_22 
REMARK   13  A    between atoms: CG_22  and  CD_23 
REMARK   14  A    between atoms: N_26  and  CA_27 
REMARK   15  A    between atoms: CA_27  and  C_28 
REMARK   16  A    between atoms: CA_27  and  CB_30 
REMARK       I    between atoms: C_28  and  N_34 
REMARK   17  A    between atoms: CB_30  and  CG1_31 
REMARK   18  A    between atoms: CB_30  and  CG2_32 
REMARK   19  A    between atoms: CG1_31  and  CD1_33 
REMARK   20  A    between atoms: N_34  and  CA_35 
REMARK   21  A    between atoms: CA_35  and  C_36 
REMARK   22  A    between atoms: CA_35  and  CB_38 
REMARK       I    between atoms: C_36  and  N_43 
REMARK   23  A    between atoms: CB_38  and  CG_39 
REMARK   24  A    between atoms: CG_39  and  CD_40 
REMARK   25  A    between atoms: N_43  and  CA_44 
REMARK   26  A    between atoms: CA_44  and  C_45 
REMARK   27  A    between atoms: CA_44  and  CB_47 
REMARK       I    between atoms: C_45  and  N_50 
REMARK   28  A    between atoms: CB_47  and  CG1_48 
REMARK   29  A    between atoms: CB_47  and  CG2_49 
REMARK   30  A    between atoms: N_50  and  CA_51 
REMARK   31  A    between atoms: CA_51  and  C_52 
REMARK   32  A    between atoms: CA_51  and  CB_54 
REMARK       I    between atoms: C_52  and  N_58 
REMARK   33  A    between atoms: CB_54  and  CG1_55 
REMARK   34  A    between atoms: CB_54  and  CG2_56 
REMARK   35  A    between atoms: CG1_55  and  CD1_57 
REMARK   36  A    between atoms: N_58  and  CA_59 
REMARK   37  A    between atoms: CA_59  and  C_60 
REMARK   38  A    between atoms: CA_59  and  CB_62 
REMARK       I    between atoms: C_60  and  N_66 
REMARK   39  A    between atoms: CB_62  and  CG1_63 
REMARK   40  A    between atoms: CB_62  and  CG2_64 
REMARK   41  A    between atoms: CG1_63  and  CD1_65 
REMARK   42  A    between atoms: N_66  and  CA_67 
REMARK   43  A    between atoms: CA_67  and  C_68 
REMARK   44  A    between atoms: CA_67  and  CB_70 
REMARK       I    between atoms: C_68  and  N_73 
REMARK   45  A    between atoms: CB_70  and  CG1_71 
REMARK   46  A    between atoms: CB_70  and  CG2_72 
REMARK   47  A    between atoms: N_73  and  CA_74 
REMARK   48  A    between atoms: CA_74  and  C_75 
REMARK   49  A    between atoms: CA_74  and  CB_77 
REMARK       I    between atoms: C_75  and  N_87 
REMARK   50  A    between atoms: CB_77  and  CG_78 
REMARK   51  A    between atoms: N_87  and  CA_88 
REMARK   52  A    between atoms: CA_88  and  C_89 
REMARK   53  A    between atoms: CA_88  and  CB_91 
REMARK       I    between atoms: C_89  and  N_96 
REMARK   54  A    between atoms: CB_91  and  CG_92 
REMARK   55  A    between atoms: CG_92  and  CD_93 
REMARK   56  A    between atoms: N_96  and  CA_97 
REMARK   57  A    between atoms: CA_97  and  C_98 
REMARK   58  A    between atoms: CA_97  and  CB_100 
REMARK       I    between atoms: C_98  and  N_105 
REMARK   59  A    between atoms: CB_100  and  CG_101 
REMARK   60  A    between atoms: CG_101  and  CD_102 
REMARK   61  A    between atoms: CD_102  and  CE_103 
REMARK   62  A    between atoms: CE_103  and  NZ_104 
REMARK   63  A    between atoms: N_105  and  CA_106 
REMARK   64  A    between atoms: CA_106  and  C_107 
REMARK   65  A    between atoms: CA_106  and  CB_109 
REMARK   66  A    between atoms: CB_109  and  CG_110 
REMARK   67  A    between atoms: CG_110  and  CD_111 
REMARK   68  A    between atoms: CD_111  and  CE_112 
REMARK   69  A    between atoms: CE_112  and  NZ_113 
ROOT
ATOM      1  CA  ILE d   1       5.507   7.187   3.930  0.00  0.00     0.092 C 
ATOM      2  H   ILE d   1       5.803   7.057   2.889  0.00  0.00     0.088 H 
ENDROOT
BRANCH   1   3
ATOM      3  N   ILE d   1       6.594   6.649   4.731  0.00  0.00    -0.346 N 
ATOM      4  C   ILE d   1       7.592   5.984   4.163  0.00  0.00     0.241 C 
ATOM      5  O   ILE d   1       7.667   5.806   2.949  0.00  0.00    -0.271 OA
ATOM      6  H   ILE d   1       6.590   6.784   5.742  0.00  0.00     0.163 HD
BRANCH   4   7
ATOM      7  CA  ILE d   1       8.664   5.445   5.093  0.00  0.00     0.092 C 
ATOM      8  H   ILE d   1       8.381   5.633   6.129  0.00  0.00     0.088 H 
BRANCH   7   9
ATOM      9  N   ILE d   1       8.796   3.998   4.958  0.00  0.00    -0.346 N 
ATOM     10  C   VAL d   1       8.358   3.166   5.898  0.00  0.00     0.241 C 
ATOM     11  O   VAL d   1       7.821   3.553   6.938  0.00  0.00    -0.271 OA
ATOM     12  H   ILE d   1       9.236   3.615   4.121  0.00  0.00     0.163 HD
BRANCH  10  13
ATOM     13  CA  VAL d   1       8.563   1.677   5.631  0.00  0.00     0.092 C 
ATOM     14  H   VAL d   1       9.074   1.532   4.679  0.00  0.00     0.088 H 
BRANCH  13  15
ATOM     15  N   VAL d   1       9.405   1.098   6.671  0.00  0.00    -0.346 N 
ATOM     16  C   GLU d   1      10.375   0.227   6.403  0.00  0.00     0.241 C 
ATOM     17  O   GLU d   1      10.638  -0.169   5.266  0.00  0.00    -0.271 OA
ATOM     18  H   VAL d   1       9.245   1.371   7.641  0.00  0.00     0.163 HD
BRANCH  16  19
ATOM     19  CA  GLU d   1      11.165  -0.261   7.610  0.00  0.00     0.090 C 
ATOM     20  H   GLU d   1      10.691   0.148   8.503  0.00  0.00     0.087 H 
BRANCH  19  21
ATOM     21  N   GLU d   1      11.140  -1.715   7.727  0.00  0.00    -0.346 N 
ATOM     22  C   ILE d   1      11.279  -2.308   8.912  0.00  0.00     0.241 C 
ATOM     23  O   ILE d   1      11.433  -1.678   9.958  0.00  0.00    -0.271 OA
ATOM     24  H   GLU d   1      11.014  -2.285   6.891  0.00  0.00     0.163 HD
BRANCH  22  25
ATOM     25  CA  ILE d   1      11.244  -3.833   8.926  0.00  0.00     0.092 C 
ATOM     26  H   ILE d   1      11.665  -4.214   7.996  0.00  0.00     0.088 H 
BRANCH  25  27
ATOM     27  N   ILE d   1      12.062  -4.357  10.017  0.00  0.00    -0.346 N 
ATOM     28  C   GLU d   1      13.045  -5.228   9.803  0.00  0.00     0.241 C 
ATOM     29  O   GLU d   1      13.340  -5.641   8.682  0.00  0.00    -0.271 OA
ATOM     30  H   ILE d   1      11.874  -4.046  10.970  0.00  0.00     0.163 HD
BRANCH  28  31
ATOM     31  CA  GLU d   1      13.816  -5.696  11.038  0.00  0.00     0.090 C 
ATOM     32  H   GLU d   1      14.437  -6.545  10.752  0.00  0.00     0.087 H 
BRANCH  31  33
ATOM     33  N   GLU d   1      14.699  -4.647  11.540  0.00  0.00    -0.346 N 
ATOM     34  C   ASN d   1      15.917  -4.464  11.038  0.00  0.00     0.241 C 
ATOM     35  O   ASN d   1      16.371  -5.145  10.117  0.00  0.00    -0.271 OA
ATOM     36  H   GLU d   1      14.374  -4.040  12.293  0.00  0.00     0.163 HD
BRANCH  34  37
ATOM     37  CA  ASN d   1      16.747  -3.343  11.658  0.00  0.00     0.097 C 
ATOM     38  H   ASN d   1      17.677  -3.262  11.095  0.00  0.00     0.088 H 
BRANCH  37  39
ATOM     39  N   ASN d   1      16.054  -2.064  11.574  0.00  0.00    -0.346 N 
ATOM     40  C   ASP d   1      16.053  -1.343  10.457  0.00  0.00     0.249 C 
ATOM     41  O   ASP d   1      16.614  -1.705   9.422  0.00  0.00    -0.271 OA
ATOM     42  H   ASN d   1      15.557  -1.713  12.393  0.00  0.00     0.163 HD
BRANCH  40  43
ATOM     43  CA  ASP d   1      15.298  -0.020  10.512  0.00  0.00     0.185 C 
ATOM     44  H   ASP d   1      15.346   0.444   9.527  0.00  0.00     0.100 H 
BRANCH  43  45
ATOM     45  N   ASP d   1      13.870  -0.240  10.856  0.00  0.00    -0.066 N 
ATOM     46  H   ASP d   1      13.447  -0.861  10.166  0.00  0.00     0.275 HD
ATOM     47  H   ASP d   1      13.806  -0.664  11.781  0.00  0.00     0.275 HD
ATOM     48  H   ASP d   1      13.380   0.654  10.856  0.00  0.00     0.275 HD
ENDBRANCH  43  45
BRANCH  43  49
ATOM     49  CB  ASP d   1      15.947   0.911  11.540  0.00  0.00     0.050 C 
ATOM     50  H   ASP d   1      15.842   0.450  12.522  0.00  0.00     0.052 H 
ATOM     51  H   ASP d   1      15.451   1.879  11.474  0.00  0.00     0.052 H 
BRANCH  49  52
ATOM     52  CG  ASP d   1      17.426   1.127  11.283  0.00  0.00     0.175 C 
ATOM     53  OD1 ASP d   1      17.763   1.859  10.330  0.00  0.00    -0.648 OA
ATOM     54  OD2 ASP d   1      18.248   0.562  12.036  0.00  0.00    -0.648 OA
ENDBRANCH  49  52
ENDBRANCH  43  49
ENDBRANCH  40  43
ENDBRANCH  37  39
BRANCH  37  55
ATOM     55  CB  ASN d   1      17.070  -3.671  13.120  0.00  0.00     0.036 C 
ATOM     56  H   ASN d   1      16.130  -3.870  13.634  0.00  0.00     0.051 H 
ATOM     57  H   ASN d   1      17.608  -2.822  13.542  0.00  0.00     0.051 H 
BRANCH  55  58
ATOM     58  CG  ASN d   1      17.950  -4.900  13.264  0.00  0.00     0.217 C 
ATOM     59  OD1 ASN d   1      17.457  -6.019  13.397  0.00  0.00    -0.274 OA
ATOM     60  ND2 ASN d   1      19.262  -4.695  13.242  0.00  0.00    -0.370 N 
ATOM     61  H   ASN d   1      19.903  -5.483  13.338  0.00  0.00     0.159 HD
ATOM     62  H   ASN d   1      19.629  -3.750  13.130  0.00  0.00     0.159 HD
ENDBRANCH  55  58
ENDBRANCH  37  55
ENDBRANCH  34  37
ENDBRANCH  31  33
BRANCH  31  63
ATOM     63  CB  GLU d   1      12.833  -6.134  12.131  0.00  0.00    -0.029 C 
ATOM     64  H   GLU d   1      12.360  -7.055  11.791  0.00  0.00     0.037 H 
ATOM     65  H   GLU d   1      12.135  -5.311  12.289  0.00  0.00     0.037 H 
BRANCH  63  66
ATOM     66  CG  GLU d   1      13.493  -6.431  13.470  0.00  0.00     0.018 C 
ATOM     67  H   GLU d   1      14.567  -6.518  13.303  0.00  0.00     0.049 H 
ATOM     68  H   GLU d   1      13.056  -7.348  13.864  0.00  0.00     0.049 H 
BRANCH  66  69
ATOM     69  CD  GLU d   1      13.265  -5.329  14.489  0.00  0.00     0.172 C 
ATOM     70  OE1 GLU d   1      13.992  -4.314  14.442  0.00  0.00    -0.648 OA
ATOM     71  OE2 GLU d   1      12.357  -5.480  15.333  0.00  0.00    -0.648 OA
ENDBRANCH  66  69
ENDBRANCH  63  66
ENDBRANCH  31  63
ENDBRANCH  28  31
ENDBRANCH  25  27
BRANCH  25  72
ATOM     72  CB  ILE d   1       9.777  -4.315   9.031  0.00  0.00    -0.030 C 
ATOM     73  H   ILE d   1       9.169  -3.684   8.383  0.00  0.00     0.043 H 
BRANCH  72  74
ATOM     74  CG1 ILE d   1       9.253  -4.176  10.466  0.00  0.00    -0.063 C 
ATOM     75  H   ILE d   1      10.118  -4.053  11.117  0.00  0.00     0.033 H 
ATOM     76  H   ILE d   1       8.661  -5.065  10.683  0.00  0.00     0.033 H 
BRANCH  74  77
ATOM     77  CD1 ILE d   1       8.356  -2.975  10.676  0.00  0.00    -0.076 C 
ATOM     78  H   ILE d   1       8.909  -2.065  10.444  0.00  0.00     0.027 H 
ATOM     79  H   ILE d   1       7.489  -3.052  10.021  0.00  0.00     0.027 H 
ATOM     80  H   ILE d   1       8.027  -2.946  11.715  0.00  0.00     0.027 H 
ENDBRANCH  74  77
ENDBRANCH  72  74
BRANCH  72  81
ATOM     81  CG2 ILE d   1       9.656  -5.759   8.565  0.00  0.00    -0.071 C 
ATOM     82  H   ILE d   1       9.980  -5.833   7.527  0.00  0.00     0.028 H 
ATOM     83  H   ILE d   1      10.284  -6.395   9.189  0.00  0.00     0.028 H 
ATOM     84  H   ILE d   1       8.617  -6.080   8.646  0.00  0.00     0.028 H 
ENDBRANCH  72  81
ENDBRANCH  25  72
ENDBRANCH  22  25
ENDBRANCH  19  21
BRANCH  19  85
ATOM     85  CB  GLU d   1      12.609   0.234   7.522  0.00  0.00    -0.029 C 
ATOM     86  H   GLU d   1      12.997  -0.062   6.547  0.00  0.00     0.037 H 
ATOM     87  H   GLU d   1      13.155  -0.201   8.360  0.00  0.00     0.037 H 
BRANCH  85  88
ATOM     88  CG  GLU d   1      12.743   1.744   7.626  0.00  0.00     0.018 C 
ATOM     89  H   GLU d   1      12.113   2.082   8.449  0.00  0.00     0.049 H 
ATOM     90  H   GLU d   1      12.446   2.175   6.670  0.00  0.00     0.049 H 
BRANCH  88  91
ATOM     91  CD  GLU d   1      14.164   2.180   7.915  0.00  0.00     0.172 C 
ATOM     92  OE1 GLU d   1      15.053   1.901   7.084  0.00  0.00    -0.648 OA
ATOM     93  OE2 GLU d   1      14.390   2.793   8.979  0.00  0.00    -0.648 OA
ENDBRANCH  88  91
ENDBRANCH  85  88
ENDBRANCH  19  85
ENDBRANCH  16  19
ENDBRANCH  13  15
BRANCH  13  94
ATOM     94  CB  VAL d   1       7.185   0.978   5.546  0.00  0.00    -0.033 C 
ATOM     95  H   VAL d   1       6.711   1.056   6.524  0.00  0.00     0.042 H 
BRANCH  94  96
ATOM     96  CG1 VAL d   1       6.290   1.663   4.523  0.00  0.00    -0.071 C 
ATOM     97  H   VAL d   1       6.139   2.703   4.813  0.00  0.00     0.028 H 
ATOM     98  H   VAL d   1       6.765   1.623   3.542  0.00  0.00     0.028 H 
ATOM     99  H   VAL d   1       5.328   1.152   4.484  0.00  0.00     0.028 H 
ENDBRANCH  94  96
BRANCH  94 100
ATOM    100  CG2 VAL d   1       7.344  -0.498   5.206  0.00  0.00    -0.071 C 
ATOM    101  H   VAL d   1       7.847  -0.596   4.244  0.00  0.00     0.028 H 
ATOM    102  H   VAL d   1       7.938  -0.986   5.979  0.00  0.00     0.028 H 
ATOM    103  H   VAL d   1       6.361  -0.965   5.152  0.00  0.00     0.028 H 
ENDBRANCH  94 100
ENDBRANCH  13  94
ENDBRANCH  10  13
ENDBRANCH   7   9
BRANCH   7 104
ATOM    104  CB  ILE d   1       9.989   6.176   4.802  0.00  0.00    -0.030 C 
ATOM    105  H   ILE d   1       9.787   7.006   4.125  0.00  0.00     0.043 H 
BRANCH 104 106
ATOM    106  CG1 ILE d   1      10.991   5.244   4.108  0.00  0.00    -0.063 C 
ATOM    107  H   ILE d   1      10.501   4.840   3.222  0.00  0.00     0.033 H 
ATOM    108  H   ILE d   1      11.284   4.484   4.832  0.00  0.00     0.033 H 
BRANCH 106 109
ATOM    109  CD1 ILE d   1      12.253   5.941   3.648  0.00  0.00    -0.076 C 
ATOM    110  H   ILE d   1      11.995   6.727   2.938  0.00  0.00     0.027 H 
ATOM    111  H   ILE d   1      12.759   6.379   4.508  0.00  0.00     0.027 H 
ATOM    112  H   ILE d   1      12.912   5.218   3.167  0.00  0.00     0.027 H 
ENDBRANCH 106 109
ENDBRANCH 104 106
BRANCH 104 113
ATOM    113  CG2 ILE d   1      10.568   6.724   6.092  0.00  0.00    -0.071 C 
ATOM    114  H   ILE d   1       9.861   7.423   6.538  0.00  0.00     0.028 H 
ATOM    115  H   ILE d   1      10.754   5.902   6.783  0.00  0.00     0.028 H 
ATOM    116  H   ILE d   1      11.504   7.239   5.878  0.00  0.00     0.028 H 
ENDBRANCH 104 113
ENDBRANCH   7 104
ENDBRANCH   4   7
ENDBRANCH   1   3
BRANCH   1 117
ATOM    117  C   ILE d   1       5.288   8.681   4.170  0.00  0.00     0.241 C 
ATOM    118  O   ILE d   1       4.884   9.103   5.255  0.00  0.00    -0.271 OA
ATOM    119  N   VAL d   1       5.570   9.483   3.145  0.00  0.00    -0.346 N 
ATOM    120  H   VAL d   1       5.938   9.074   2.286  0.00  0.00     0.163 HD
BRANCH 119 121
ATOM    121  CA  VAL d   1       5.375  10.900   3.207  0.00  0.00     0.092 C 
ATOM    122  H   VAL d   1       4.559  11.068   3.910  0.00  0.00     0.088 H 
BRANCH 121 123
ATOM    123  C   VAL d   1       5.022  11.437   1.826  0.00  0.00     0.241 C 
ATOM    124  O   VAL d   1       5.837  11.401   0.901  0.00  0.00    -0.271 OA
ATOM    125  N   TRP d   1       3.792  11.912   1.693  0.00  0.00    -0.346 N 
ATOM    126  H   TRP d   1       3.159  11.872   2.492  0.00  0.00     0.163 HD
BRANCH 125 127
ATOM    127  CA  TRP d   1       3.315  12.488   0.447  0.00  0.00     0.093 C 
ATOM    128  H   TRP d   1       3.896  12.055  -0.367  0.00  0.00     0.088 H 
BRANCH 127 129
ATOM    129  C   TRP d   1       3.522  13.998   0.419  0.00  0.00     0.241 C 
ATOM    130  O   TRP d   1       4.065  14.584   1.356  0.00  0.00    -0.271 OA
ATOM    131  N   GLU d   1       3.075  14.612  -0.667  0.00  0.00    -0.346 N 
ATOM    132  H   GLU d   1       2.673  14.050  -1.417  0.00  0.00     0.163 HD
BRANCH 131 133
ATOM    133  CA  GLU d   1       3.135  16.045  -0.829  0.00  0.00     0.090 C 
ATOM    134  H   GLU d   1       3.067  16.520   0.150  0.00  0.00     0.087 H 
BRANCH 133 135
ATOM    135  C   GLU d   1       1.962  16.498  -1.699  0.00  0.00     0.241 C 
ATOM    136  O   GLU d   1       1.726  15.933  -2.767  0.00  0.00    -0.271 OA
ATOM    137  N   LYS d   1       1.233  17.520  -1.254  0.00  0.00    -0.346 N 
ATOM    138  H   LYS d   1       1.483  17.968  -0.372  0.00  0.00     0.163 HD
BRANCH 137 139
ATOM    139  CA  LYS d   1       0.079  18.012  -2.008  0.00  0.00     0.089 C 
ATOM    140  H   LYS d   1      -0.397  17.148  -2.471  0.00  0.00     0.087 H 
BRANCH 139 141
ATOM    141  C   LYS d   1       0.502  18.968  -3.114  0.00  0.00     0.241 C 
ATOM    142  O   LYS d   1       1.497  19.684  -2.988  0.00  0.00    -0.271 OA
ATOM    143  N   LYS d   1      -0.265  18.962  -4.201  0.00  0.00    -0.345 N 
ATOM    144  H   LYS d   1      -1.073  18.341  -4.231  0.00  0.00     0.163 HD
BRANCH 143 145
ATOM    145  CA  LYS d   1       0.012  19.815  -5.352  0.00  0.00     0.096 C 
ATOM    146  H   LYS d   1       1.073  20.065  -5.350  0.00  0.00     0.089 H 
BRANCH 145 147
ATOM    147  C   LYS d   1      -0.786  21.115  -5.271  0.00  0.00     0.196 C 
ATOM    148  O   LYS d   1      -1.995  21.089  -5.591  0.00  0.00    -0.646 OA
ATOM    149  OXT LYS d   1      -0.196  22.148  -4.892  0.00  0.00    -0.646 OA
ENDBRANCH 145 147
BRANCH 145 150
ATOM    150  CB  LYS d   1      -0.333  19.068  -6.645  0.00  0.00    -0.037 C 
ATOM    151  H   LYS d   1      -1.420  19.013  -6.708  0.00  0.00     0.036 H 
ATOM    152  H   LYS d   1       0.156  18.095  -6.598  0.00  0.00     0.036 H 
BRANCH 150 153
ATOM    153  CG  LYS d   1       0.160  19.763  -7.908  0.00  0.00    -0.061 C 
ATOM    154  H   LYS d   1       1.223  19.550  -8.026  0.00  0.00     0.033 H 
ATOM    155  H   LYS d   1      -0.027  20.832  -7.808  0.00  0.00     0.033 H 
BRANCH 153 156
ATOM    156  CD  LYS d   1      -0.571  19.261  -9.146  0.00  0.00    -0.043 C 
ATOM    157  H   LYS d   1      -1.274  18.487  -8.840  0.00  0.00     0.035 H 
ATOM    158  H   LYS d   1       0.168  18.878  -9.850  0.00  0.00     0.035 H 
BRANCH 156 159
ATOM    159  CE  LYS d   1      -1.351  20.376  -9.828  0.00  0.00     0.080 C 
ATOM    160  H   LYS d   1      -1.813  19.968 -10.727  0.00  0.00     0.075 H 
ATOM    161  H   LYS d   1      -0.658  21.186 -10.055  0.00  0.00     0.075 H 
BRANCH 159 162
ATOM    162  NZ  LYS d   1      -2.430  20.918  -8.957  0.00  0.00    -0.079 N 
ATOM    163  H   LYS d   1      -2.925  21.660  -9.452  0.00  0.00     0.274 HD
ATOM    164  H   LYS d   1      -3.083  20.171  -8.722  0.00  0.00     0.274 HD
ATOM    165  H   LYS d   1      -2.019  21.294  -8.102  0.00  0.00     0.274 HD
ENDBRANCH 159 162
ENDBRANCH 156 159
ENDBRANCH 153 156
ENDBRANCH 150 153
ENDBRANCH 145 150
ENDBRANCH 143 145
ENDBRANCH 139 141
BRANCH 139 166
ATOM    166  CB  LYS d   1      -0.934  18.691  -1.081  0.00  0.00    -0.038 C 
ATOM    167  H   LYS d   1      -1.365  19.531  -1.626  0.00  0.00     0.036 H 
ATOM    168  H   LYS d   1      -0.403  18.985  -0.176  0.00  0.00     0.036 H 
BRANCH 166 169
ATOM    169  CG  LYS d   1      -2.083  17.780  -0.662  0.00  0.00    -0.061 C 
ATOM    170  H   LYS d   1      -2.617  18.264   0.155  0.00  0.00     0.033 H 
ATOM    171  H   LYS d   1      -1.662  16.818  -0.369  0.00  0.00     0.033 H 
BRANCH 169 172
ATOM    172  CD  LYS d   1      -3.074  17.537  -1.797  0.00  0.00    -0.043 C 
ATOM    173  H   LYS d   1      -3.703  16.688  -1.528  0.00  0.00     0.035 H 
ATOM    174  H   LYS d   1      -2.511  17.347  -2.711  0.00  0.00     0.035 H 
BRANCH 172 175
ATOM    175  CE  LYS d   1      -3.970  18.744  -2.028  0.00  0.00     0.080 C 
ATOM    176  H   LYS d   1      -3.341  19.588  -2.309  0.00  0.00     0.075 H 
ATOM    177  H   LYS d   1      -4.524  18.940  -1.110  0.00  0.00     0.075 H 
BRANCH 175 178
ATOM    178  NZ  LYS d   1      -4.948  18.505  -3.122  0.00  0.00    -0.079 N 
ATOM    179  H   LYS d   1      -5.528  19.335  -3.245  0.00  0.00     0.274 HD
ATOM    180  H   LYS d   1      -4.446  18.308  -3.988  0.00  0.00     0.274 HD
ATOM    181  H   LYS d   1      -5.538  17.709  -2.881  0.00  0.00     0.274 HD
ENDBRANCH 175 178
ENDBRANCH 172 175
ENDBRANCH 169 172
ENDBRANCH 166 169
ENDBRANCH 139 166
ENDBRANCH 137 139
ENDBRANCH 133 135
BRANCH 133 182
ATOM    182  CB  GLU d   1       4.464  16.467  -1.458  0.00  0.00    -0.029 C 
ATOM    183  H   GLU d   1       4.480  16.082  -2.478  0.00  0.00     0.037 H 
ATOM    184  H   GLU d   1       5.263  16.072  -0.831  0.00  0.00     0.037 H 
BRANCH 182 185
ATOM    185  CG  GLU d   1       4.648  17.972  -1.536  0.00  0.00     0.018 C 
ATOM    186  H   GLU d   1       4.740  18.352  -0.519  0.00  0.00     0.049 H 
ATOM    187  H   GLU d   1       3.789  18.389  -2.062  0.00  0.00     0.049 H 
BRANCH 185 188
ATOM    188  CD  GLU d   1       5.897  18.366  -2.297  0.00  0.00     0.172 C 
ATOM    189  OE1 GLU d   1       6.990  18.356  -1.692  0.00  0.00    -0.648 OA
ATOM    190  OE2 GLU d   1       5.784  18.684  -3.499  0.00  0.00    -0.648 OA
ENDBRANCH 185 188
ENDBRANCH 182 185
ENDBRANCH 133 182
ENDBRANCH 131 133
ENDBRANCH 127 129
BRANCH 127 191
ATOM    191  CB  TRP d   1       1.840  12.153   0.242  0.00  0.00    -0.012 C 
ATOM    192  H   TRP d   1       1.260  12.806   0.894  0.00  0.00     0.044 H 
ATOM    193  H   TRP d   1       1.709  11.094   0.465  0.00  0.00     0.044 H 
BRANCH 191 194
ATOM    194  CG  TRP d   1       1.368  12.382  -1.166  0.00  0.00    -0.028 A 
ATOM    195  CD1 TRP d   1       1.913  11.886  -2.316  0.00  0.00    -0.015 A 
ATOM    196  NE1 TRP d   1       1.213  12.344  -3.404  0.00  0.00    -0.365 N 
ATOM    197  H   TRP d   1       2.777  11.223  -2.363  0.00  0.00     0.112 H 
ATOM    198  CE2 TRP d   1       0.196  13.148  -2.968  0.00  0.00     0.042 A 
ATOM    199  H   TRP d   1       1.418  12.121  -4.378  0.00  0.00     0.165 HD
ATOM    200  CD2 TRP d   1       0.269  13.194  -1.565  0.00  0.00    -0.002 A 
ATOM    201  CZ2 TRP d   1      -0.778  13.840  -3.684  0.00  0.00    -0.056 A 
ATOM    202  CE3 TRP d   1      -0.665  13.953  -0.865  0.00  0.00    -0.070 A 
ATOM    203  CZ3 TRP d   1      -1.628  14.633  -1.573  0.00  0.00    -0.082 A 
ATOM    204  H   TRP d   1      -0.633  14.007   0.223  0.00  0.00     0.084 H 
ATOM    205  CH2 TRP d   1      -1.681  14.576  -2.968  0.00  0.00    -0.081 A 
ATOM    206  H   TRP d   1      -2.365  15.229  -1.035  0.00  0.00     0.083 H 
ATOM    207  H   TRP d   1      -2.458  15.129  -3.496  0.00  0.00     0.083 H 
ATOM    208  H   TRP d   1      -0.819  13.796  -4.772  0.00  0.00     0.086 H 
ENDBRANCH 191 194
ENDBRANCH 127 191
ENDBRANCH 125 127
ENDBRANCH 121 123
BRANCH 121 209
ATOM    209  CB  VAL d   1       6.620  11.665   3.740  0.00  0.00    -0.033 C 
ATOM    210  H   VAL d   1       7.480  11.324   3.163  0.00  0.00     0.042 H 
BRANCH 209 211
ATOM    211  CG1 VAL d   1       6.453  13.168   3.546  0.00  0.00    -0.071 C 
ATOM    212  H   VAL d   1       6.333  13.385   2.485  0.00  0.00     0.028 H 
ATOM    213  H   VAL d   1       5.571  13.507   4.089  0.00  0.00     0.028 H 
ATOM    214  H   VAL d   1       7.336  13.682   3.926  0.00  0.00     0.028 H 
ENDBRANCH 209 211
BRANCH 209 215
ATOM    215  CG2 VAL d   1       6.885  11.357   5.207  0.00  0.00    -0.071 C 
ATOM    216  H   VAL d   1       6.020  11.652   5.801  0.00  0.00     0.028 H 
ATOM    217  H   VAL d   1       7.061  10.288   5.326  0.00  0.00     0.028 H 
ATOM    218  H   VAL d   1       7.763  11.911   5.540  0.00  0.00     0.028 H 
ENDBRANCH 209 215
ENDBRANCH 121 209
ENDBRANCH 119 121
ENDBRANCH   1 117
BRANCH   1 219
ATOM    219  CB  ILE d   1       4.187   6.414   4.181  0.00  0.00    -0.030 C 
ATOM    220  H   ILE d   1       3.426   6.830   3.521  0.00  0.00     0.043 H 
BRANCH 219 221
ATOM    221  CG1 ILE d   1       3.698   6.580   5.624  0.00  0.00    -0.063 C 
ATOM    222  H   ILE d   1       3.817   7.630   5.892  0.00  0.00     0.033 H 
ATOM    223  H   ILE d   1       4.282   5.904   6.248  0.00  0.00     0.033 H 
BRANCH 221 224
ATOM    224  CD1 ILE d   1       2.239   6.225   5.811  0.00  0.00    -0.076 C 
ATOM    225  H   ILE d   1       1.626   6.870   5.182  0.00  0.00     0.027 H 
ATOM    226  H   ILE d   1       2.081   5.184   5.530  0.00  0.00     0.027 H 
ATOM    227  H   ILE d   1       1.963   6.366   6.856  0.00  0.00     0.027 H 
ENDBRANCH 221 224
ENDBRANCH 219 221
BRANCH 219 228
ATOM    228  CG2 ILE d   1       4.388   4.942   3.873  0.00  0.00    -0.071 C 
ATOM    229  H   ILE d   1       4.681   4.827   2.829  0.00  0.00     0.028 H 
ATOM    230  H   ILE d   1       5.170   4.541   4.518  0.00  0.00     0.028 H 
ATOM    231  H   ILE d   1       3.457   4.404   4.051  0.00  0.00     0.028 H 
ENDBRANCH 219 228
ENDBRANCH   1 219
TORSDOF 69
