REMARK  19 active torsions:
REMARK  status: ('A' for Active; 'I' for Inactive)
REMARK    1  A    between atoms: C1_1  and  C2_2 
REMARK    2  A    between atoms: C2_2  and  C3_3 
REMARK    3  A    between atoms: C3_3  and  C4_4 
REMARK    4  A    between atoms: C4_4  and  C5_5 
REMARK    5  A    between atoms: C5_5  and  C6_6 
REMARK    6  A    between atoms: C6_6  and  C7_7 
REMARK    7  A    between atoms: C7_7  and  C8_8 
REMARK    8  A    between atoms: C8_8  and  C9_9 
REMARK    9  A    between atoms: C9_9  and  C10_10 
REMARK   10  A    between atoms: C10_10  and  C11_11 
REMARK   11  A    between atoms: C11_11  and  C12_12 
REMARK   12  A    between atoms: C12_12  and  C13_13 
REMARK   13  A    between atoms: C13_13  and  C14_14 
REMARK   14  A    between atoms: C14_14  and  C15_15 
REMARK   15  A    between atoms: C15_15  and  C16_16 
REMARK   16  A    between atoms: C16_16  and  C17_17 
REMARK   17  A    between atoms: C17_17  and  C18_18 
REMARK   18  A    between atoms: C18_18  and  C19_19 
REMARK   19  A    between atoms: C19_19  and  C20_20 
ROOT
ATOM      1  C11 ACD d   1      -1.069   6.497  -1.937  0.00  0.00    -0.065 C 
ATOM      2  H   ACD d   1      -1.121   5.675  -2.651  0.00  0.00     0.033 H 
ATOM      3  H   ACD d   1      -1.971   7.030  -1.637  0.00  0.00     0.033 H 
ENDROOT
BRANCH   1   4
ATOM      4  C10 ACD d   1      -0.224   7.558  -2.647  0.00  0.00    -0.065 C 
ATOM      5  H   ACD d   1      -0.805   8.475  -2.743  0.00  0.00     0.033 H 
ATOM      6  H   ACD d   1       0.677   7.748  -2.064  0.00  0.00     0.033 H 
BRANCH   4   7
ATOM      7  C9  ACD d   1       0.171   7.064  -4.040  0.00  0.00    -0.065 C 
ATOM      8  H   ACD d   1       1.254   6.956  -3.985  0.00  0.00     0.033 H 
ATOM      9  H   ACD d   1      -0.471   6.199  -4.206  0.00  0.00     0.033 H 
BRANCH   7  10
ATOM     10  C8  ACD d   1      -0.053   7.936  -5.278  0.00  0.00    -0.065 C 
ATOM     11  H   ACD d   1       0.953   8.130  -5.649  0.00  0.00     0.033 H 
ATOM     12  H   ACD d   1      -0.772   7.372  -5.872  0.00  0.00     0.033 H 
BRANCH  10  13
ATOM     13  C7  ACD d   1      -0.680   9.327  -5.161  0.00  0.00    -0.065 C 
ATOM     14  H   ACD d   1      -0.951   9.520  -4.123  0.00  0.00     0.033 H 
ATOM     15  H   ACD d   1       0.036  10.080  -5.491  0.00  0.00     0.033 H 
BRANCH  13  16
ATOM     16  C6  ACD d   1      -1.932   9.390  -6.038  0.00  0.00    -0.065 C 
ATOM     17  H   ACD d   1      -2.365   8.392  -5.965  0.00  0.00     0.033 H 
ATOM     18  H   ACD d   1      -2.482  10.254  -5.664  0.00  0.00     0.033 H 
BRANCH  16  19
ATOM     19  C5  ACD d   1      -1.805   9.641  -7.542  0.00  0.00    -0.065 C 
ATOM     20  H   ACD d   1      -2.192   8.730  -8.000  0.00  0.00     0.033 H 
ATOM     21  H   ACD d   1      -2.307  10.596  -7.698  0.00  0.00     0.033 H 
BRANCH  19  22
ATOM     22  C4  ACD d   1      -0.429   9.830  -8.185  0.00  0.00    -0.065 C 
ATOM     23  H   ACD d   1       0.199  10.447  -7.543  0.00  0.00     0.033 H 
ATOM     24  H   ACD d   1       0.054   8.862  -8.319  0.00  0.00     0.033 H 
BRANCH  22  25
ATOM     25  C3  ACD d   1      -0.614  10.512  -9.543  0.00  0.00    -0.056 C 
ATOM     26  H   ACD d   1      -1.172   9.844 -10.200  0.00  0.00     0.033 H 
ATOM     27  H   ACD d   1      -1.153  11.448  -9.397  0.00  0.00     0.033 H 
BRANCH  25  28
ATOM     28  C2  ACD d   1       0.741  10.817 -10.184  0.00  0.00     0.016 C 
ATOM     29  H   ACD d   1       1.346  11.419  -9.506  0.00  0.00     0.049 H 
ATOM     30  H   ACD d   1       1.272   9.888 -10.390  0.00  0.00     0.049 H 
BRANCH  28  31
ATOM     31  C1  ACD d   1       0.502  11.581 -11.488  0.00  0.00     0.172 C 
ATOM     32  O1  ACD d   1      -0.574  12.212 -11.585  0.00  0.00    -0.648 OA
ATOM     33  O2  ACD d   1       1.397  11.517 -12.358  0.00  0.00    -0.648 OA
ENDBRANCH  28  31
ENDBRANCH  25  28
ENDBRANCH  22  25
ENDBRANCH  19  22
ENDBRANCH  16  19
ENDBRANCH  13  16
ENDBRANCH  10  13
ENDBRANCH   7  10
ENDBRANCH   4   7
ENDBRANCH   1   4
BRANCH   1  34
ATOM     34  C12 ACD d   1      -0.574   5.841  -0.645  0.00  0.00    -0.065 C 
ATOM     35  H   ACD d   1      -0.454   4.790  -0.909  0.00  0.00     0.033 H 
ATOM     36  H   ACD d   1      -1.303   6.148   0.105  0.00  0.00     0.033 H 
BRANCH  34  37
ATOM     37  C13 ACD d   1       0.775   6.230  -0.036  0.00  0.00    -0.065 C 
ATOM     38  H   ACD d   1       1.566   6.180  -0.784  0.00  0.00     0.033 H 
ATOM     39  H   ACD d   1       1.052   5.542   0.763  0.00  0.00     0.033 H 
BRANCH  37  40
ATOM     40  C14 ACD d   1       0.625   7.655   0.502  0.00  0.00    -0.065 C 
ATOM     41  H   ACD d   1       0.386   7.521   1.557  0.00  0.00     0.033 H 
ATOM     42  H   ACD d   1      -0.094   8.123  -0.171  0.00  0.00     0.033 H 
BRANCH  40  43
ATOM     43  C15 ACD d   1       1.820   8.611   0.503  0.00  0.00    -0.065 C 
ATOM     44  H   ACD d   1       2.001   8.816   1.558  0.00  0.00     0.033 H 
ATOM     45  H   ACD d   1       1.523   9.415  -0.171  0.00  0.00     0.033 H 
BRANCH  43  46
ATOM     46  C16 ACD d   1       3.178   8.151  -0.032  0.00  0.00    -0.065 C 
ATOM     47  H   ACD d   1       3.468   7.226   0.466  0.00  0.00     0.033 H 
ATOM     48  H   ACD d   1       3.923   8.922   0.163  0.00  0.00     0.033 H 
BRANCH  46  49
ATOM     49  C17 ACD d   1       3.083   7.907  -1.539  0.00  0.00    -0.065 C 
ATOM     50  H   ACD d   1       2.357   7.116  -1.728  0.00  0.00     0.033 H 
ATOM     51  H   ACD d   1       4.063   7.616  -1.916  0.00  0.00     0.033 H 
BRANCH  49  52
ATOM     52  C18 ACD d   1       2.630   9.183  -2.253  0.00  0.00    -0.065 C 
ATOM     53  H   ACD d   1       3.379   9.965  -2.128  0.00  0.00     0.033 H 
ATOM     54  H   ACD d   1       1.689   9.533  -1.828  0.00  0.00     0.033 H 
BRANCH  52  55
ATOM     55  C19 ACD d   1       2.446   8.870  -3.739  0.00  0.00    -0.069 C 
ATOM     56  H   ACD d   1       1.649   8.135  -3.847  0.00  0.00     0.032 H 
ATOM     57  H   ACD d   1       3.385   8.484  -4.136  0.00  0.00     0.032 H 
BRANCH  55  58
ATOM     58  C20 ACD d   1       2.063  10.130  -4.517  0.00  0.00    -0.077 C 
ATOM     59  H   ACD d   1       1.128  10.528  -4.123  0.00  0.00     0.027 H 
ATOM     60  H   ACD d   1       2.851  10.875  -4.410  0.00  0.00     0.027 H 
ATOM     61  H   ACD d   1       1.938   9.881  -5.571  0.00  0.00     0.027 H 
ENDBRANCH  55  58
ENDBRANCH  52  55
ENDBRANCH  49  52
ENDBRANCH  46  49
ENDBRANCH  43  46
ENDBRANCH  40  43
ENDBRANCH  37  40
ENDBRANCH  34  37
ENDBRANCH   1  34
TORSDOF 19
