REMARK WARNING: 32 MAX_TORS EXCEEDED!!!
REMARK  55 active torsions:
REMARK  status: ('A' for Active; 'I' for Inactive)
REMARK    1  A    between atoms: N_1  and  CA_2 
REMARK    2  A    between atoms: CA_2  and  C_3 
REMARK       I    between atoms: C_3  and  N_5 
REMARK    3  A    between atoms: N_5  and  CA_6 
REMARK    4  A    between atoms: CA_6  and  C_7 
REMARK    5  A    between atoms: CA_6  and  CB_9 
REMARK       I    between atoms: C_7  and  N_14 
REMARK    6  A    between atoms: CB_9  and  CG_10 
REMARK    7  A    between atoms: CG_10  and  CD_11 
REMARK    8  A    between atoms: CD_11  and  CE_12 
REMARK    9  A    between atoms: CE_12  and  NZ_13 
REMARK   10  A    between atoms: N_14  and  CA_15 
REMARK   11  A    between atoms: CA_15  and  C_16 
REMARK   12  A    between atoms: CA_15  and  CB_18 
REMARK       I    between atoms: C_16  and  N_25 
REMARK   13  A    between atoms: CB_18  and  CG_19 
REMARK   14  A    between atoms: N_25  and  CA_26 
REMARK   15  A    between atoms: CA_26  and  C_27 
REMARK   16  A    between atoms: CA_26  and  CB_29 
REMARK       I    between atoms: C_27  and  N_33 
REMARK   17  A    between atoms: CB_29  and  CG1_30 
REMARK   18  A    between atoms: CB_29  and  CG2_31 
REMARK   19  A    between atoms: CG1_30  and  CD1_32 
REMARK   20  A    between atoms: CA_34  and  C_35 
REMARK       I    between atoms: C_35  and  N_40 
REMARK   21  A    between atoms: N_40  and  CA_41 
REMARK   22  A    between atoms: CA_41  and  C_42 
REMARK   23  A    between atoms: CA_41  and  CB_44 
REMARK       I    between atoms: C_42  and  N_46 
REMARK   24  A    between atoms: CB_44  and  OG_45 
REMARK   25  A    between atoms: N_46  and  CA_47 
REMARK   26  A    between atoms: CA_47  and  C_48 
REMARK   27  A    between atoms: CA_47  and  CB_50 
REMARK       I    between atoms: C_48  and  N_57 
REMARK   28  A    between atoms: CB_50  and  CG_51 
REMARK   29  A    between atoms: CG_51  and  CD_52 
REMARK   30  A    between atoms: CD_52  and  NE_53 
REMARK       I    between atoms: NE_53  and  CZ_54 
REMARK       I    between atoms: CZ_54  and  NH1_55 
REMARK       I    between atoms: CZ_54  and  NH2_56 
REMARK   31  A    between atoms: CA_58  and  C_59 
REMARK       I    between atoms: C_59  and  N_64 
REMARK   32  A    between atoms: N_64  and  CA_65 
REMARK   33  A    between atoms: CA_65  and  C_66 
REMARK   34  A    between atoms: CA_65  and  CB_68 
REMARK       I    between atoms: C_66  and  N_69 
REMARK   35  A    between atoms: CA_70  and  C_71 
REMARK       I    between atoms: C_71  and  N_76 
REMARK   36  A    between atoms: N_76  and  CA_77 
REMARK   37  A    between atoms: CA_77  and  C_78 
REMARK   38  A    between atoms: CA_77  and  CB_80 
REMARK       I    between atoms: C_78  and  N_85 
REMARK   39  A    between atoms: CB_80  and  CG_81 
REMARK   40  A    between atoms: CG_81  and  CD_82 
REMARK   41  A    between atoms: CD_82  and  CE_83 
REMARK   42  A    between atoms: CE_83  and  NZ_84 
REMARK   43  A    between atoms: CA_86  and  C_87 
REMARK       I    between atoms: C_87  and  N_92 
REMARK   44  A    between atoms: CA_93  and  C_94 
REMARK       I    between atoms: C_94  and  N_99 
REMARK   45  A    between atoms: N_99  and  CA_100 
REMARK   46  A    between atoms: CA_100  and  C_101 
REMARK   47  A    between atoms: CA_100  and  CB_103 
REMARK       I    between atoms: C_101  and  N_105 
REMARK   48  A    between atoms: CB_103  and  OG_104 
REMARK   49  A    between atoms: N_105  and  CA_106 
REMARK   50  A    between atoms: CA_106  and  C_107 
REMARK   51  A    between atoms: CA_106  and  CB_109 
REMARK       I    between atoms: C_107  and  N_111 
REMARK   52  A    between atoms: CB_109  and  OG_110 
REMARK   53  A    between atoms: N_111  and  CA_112 
REMARK   54  A    between atoms: CA_112  and  C_113 
REMARK   55  A    between atoms: CA_112  and  CB_115 
ROOT
ATOM      1  N   PRO d   1     -15.678  -6.940 -18.838  0.00  0.00    -0.337 N 
ATOM      2  CA  PRO d   1     -14.904  -8.160 -19.085  0.00  0.00     0.091 C 
ATOM      3  CB  PRO d   1     -15.936  -9.121 -19.681  0.00  0.00    -0.036 C 
ATOM      4  CG  PRO d   1     -16.969  -8.237 -20.290  0.00  0.00    -0.048 C 
ATOM      5  CD  PRO d   1     -17.028  -7.011 -19.422  0.00  0.00    -0.001 C 
ATOM      6  H64 PRO d   1     -14.497  -8.556 -18.143  0.00  0.00     0.087 H 
ATOM      7  H65 PRO d   1     -16.379  -9.751 -18.895  0.00  0.00     0.036 H 
ATOM      8  H66 PRO d   1     -15.473  -9.761 -20.447  0.00  0.00     0.036 H 
ATOM      9  H67 PRO d   1     -17.945  -8.743 -20.304  0.00  0.00     0.035 H 
ATOM     10  H68 PRO d   1     -16.683  -7.965 -21.317  0.00  0.00     0.035 H 
ATOM     11  H69 PRO d   1     -17.245  -6.115 -20.021  0.00  0.00     0.064 H 
ATOM     12  H70 PRO d   1     -17.791  -7.121 -18.637  0.00  0.00     0.064 H 
ATOM     13  C   ARG d   1     -15.187  -5.896 -18.154  0.00  0.00     0.243 C 
ATOM     14  O   ARG d   1     -14.047  -5.895 -17.688  0.00  0.00    -0.271 OA
ENDROOT
BRANCH  13  15
ATOM     15  CA  ARG d   1     -16.122  -4.702 -17.984  0.00  0.00     0.089 C 
ATOM     16  H52 ARG d   1     -17.149  -5.076 -17.858  0.00  0.00     0.087 H 
BRANCH  15  17
ATOM     17  N   ARG d   1     -15.764  -3.927 -16.802  0.00  0.00    -0.346 N 
ATOM     18  C   SER d   1     -16.458  -2.853 -16.438  0.00  0.00     0.243 C 
ATOM     19  O   SER d   1     -17.437  -2.444 -17.062  0.00  0.00    -0.271 OA
ATOM     20  H51 ARG d   1     -14.978  -4.210 -16.252  0.00  0.00     0.163 HD
BRANCH  18  21
ATOM     21  CA  SER d   1     -15.974  -2.135 -15.182  0.00  0.00     0.109 C 
ATOM     22  H47 SER d   1     -15.909  -2.867 -14.364  0.00  0.00     0.090 H 
BRANCH  21  23
ATOM     23  N   SER d   1     -14.651  -1.557 -15.391  0.00  0.00    -0.344 N 
ATOM     24  C   PRO d   1     -13.667  -1.735 -14.516  0.00  0.00     0.241 C 
ATOM     25  O   PRO d   1     -13.798  -2.393 -13.484  0.00  0.00    -0.271 OA
ATOM     26  H46 SER d   1     -14.480  -1.014 -16.213  0.00  0.00     0.163 HD
BRANCH  24  27
ATOM     27  CA  PRO d   1     -12.336  -1.073 -14.856  0.00  0.00     0.091 C 
ATOM     28  N   PRO d   1     -11.749  -0.379 -13.706  0.00  0.00    -0.337 N 
ATOM     29  C   ILE d   1     -12.275   0.743 -13.191  0.00  0.00     0.243 C 
ATOM     30  CD  PRO d   1     -10.542  -1.057 -13.203  0.00  0.00    -0.001 C 
ATOM     31  O   ILE d   1     -13.289   1.265 -13.655  0.00  0.00    -0.271 OA
ATOM     32  CG  PRO d   1     -10.553  -2.373 -13.931  0.00  0.00    -0.048 C 
ATOM     33  H44 PRO d   1     -10.600  -1.208 -12.115  0.00  0.00     0.064 H 
ATOM     34  H45 PRO d   1      -9.637  -0.481 -13.445  0.00  0.00     0.064 H 
ATOM     35  CB  PRO d   1     -11.286  -2.131 -15.205  0.00  0.00    -0.036 C 
ATOM     36  H42 PRO d   1      -9.525  -2.704 -14.139  0.00  0.00     0.035 H 
ATOM     37  H43 PRO d   1     -11.070  -3.137 -13.332  0.00  0.00     0.035 H 
ATOM     38  H40 PRO d   1     -10.602  -1.757 -15.981  0.00  0.00     0.036 H 
ATOM     39  H41 PRO d   1     -11.768  -3.055 -15.556  0.00  0.00     0.036 H 
ATOM     40  H39 PRO d   1     -12.484  -0.375 -15.693  0.00  0.00     0.087 H 
BRANCH  29  41
ATOM     41  CA  ILE d   1     -11.545   1.339 -11.992  0.00  0.00     0.092 C 
ATOM     42  H29 ILE d   1     -11.136   0.517 -11.386  0.00  0.00     0.088 H 
BRANCH  41  43
ATOM     43  N   ILE d   1     -10.435   2.183 -12.419  0.00  0.00    -0.346 N 
ATOM     44  C   PHE d   1      -9.373   2.379 -11.646  0.00  0.00     0.241 C 
ATOM     45  O   PHE d   1      -9.252   1.871 -10.530  0.00  0.00    -0.271 OA
ATOM     46  H28 ILE d   1     -10.475   2.625 -13.315  0.00  0.00     0.163 HD
BRANCH  44  47
ATOM     47  CA  PHE d   1      -8.284   3.284 -12.215  0.00  0.00     0.093 C 
ATOM     48  H20 PHE d   1      -8.737   3.946 -12.967  0.00  0.00     0.088 H 
BRANCH  47  49
ATOM     49  N   PHE d   1      -7.695   4.110 -11.168  0.00  0.00    -0.346 N 
ATOM     50  C   LYS d   1      -8.334   5.163 -10.669  0.00  0.00     0.241 C 
ATOM     51  O   LYS d   1      -9.453   5.510 -11.049  0.00  0.00    -0.271 OA
ATOM     52  H19 PHE d   1      -6.788   3.878 -10.817  0.00  0.00     0.163 HD
BRANCH  50  53
ATOM     53  CA  LYS d   1      -7.604   5.940  -9.578  0.00  0.00     0.089 C 
ATOM     54  H7  LYS d   1      -8.227   6.797  -9.282  0.00  0.00     0.087 H 
BRANCH  53  55
ATOM     55  N   LYS d   1      -7.381   5.104  -8.405  0.00  0.00    -0.346 N 
ATOM     56  C   GLY d   1      -8.368   4.791  -7.573  0.00  0.00     0.243 C 
ATOM     57  O   GLY d   1      -9.525   5.181  -7.731  0.00  0.00    -0.272 OA
ATOM     58  H6  LYS d   1      -6.461   4.757  -8.222  0.00  0.00     0.163 HD
BRANCH  56  59
ATOM     59  CA  GLY d   1      -8.001   3.915  -6.392  0.00  0.00     0.152 C 
ATOM     60  H4  GLY d   1      -7.727   2.917  -6.765  0.00  0.00     0.090 H 
ATOM     61  H5  GLY d   1      -7.139   4.363  -5.875  0.00  0.00     0.090 H 
BRANCH  59  62
ATOM     62  N   GLY d   1      -9.092   3.775  -5.444  0.00  0.00    -0.071 N 
ATOM     63  H1  GLY d   1      -8.800   3.186  -4.680  0.00  0.00     0.274 HD
ATOM     64  H2  GLY d   1      -9.886   3.358  -5.905  0.00  0.00     0.274 HD
ATOM     65  H3  GLY d   1      -9.348   4.683  -5.089  0.00  0.00     0.274 HD
ENDBRANCH  59  62
ENDBRANCH  56  59
ENDBRANCH  53  55
BRANCH  53  66
ATOM     66  CB  LYS d   1      -6.271   6.466 -10.117  0.00  0.00    -0.038 C 
ATOM     67  H8  LYS d   1      -6.471   7.052 -11.026  0.00  0.00     0.036 H 
ATOM     68  H9  LYS d   1      -5.634   5.606 -10.368  0.00  0.00     0.036 H 
BRANCH  66  69
ATOM     69  CG  LYS d   1      -5.522   7.347  -9.132  0.00  0.00    -0.061 C 
ATOM     70  H10 LYS d   1      -4.471   7.424  -9.449  0.00  0.00     0.033 H 
ATOM     71  H11 LYS d   1      -5.571   6.889  -8.133  0.00  0.00     0.033 H 
BRANCH  69  72
ATOM     72  CD  LYS d   1      -6.121   8.742  -9.065  0.00  0.00    -0.043 C 
ATOM     73  H12 LYS d   1      -7.199   8.678  -9.272  0.00  0.00     0.035 H 
ATOM     74  H13 LYS d   1      -5.639   9.375  -9.824  0.00  0.00     0.035 H 
BRANCH  72  75
ATOM     75  CE  LYS d   1      -5.917   9.371  -7.695  0.00  0.00     0.080 C 
ATOM     76  H14 LYS d   1      -6.010  10.463  -7.787  0.00  0.00     0.075 H 
ATOM     77  H15 LYS d   1      -4.909   9.118  -7.334  0.00  0.00     0.075 H 
BRANCH  75  78
ATOM     78  NZ  LYS d   1      -6.919   8.884  -6.707  0.00  0.00    -0.079 N 
ATOM     79  H16 LYS d   1      -6.751   9.322  -5.815  0.00  0.00     0.274 HD
ATOM     80  H17 LYS d   1      -6.838   7.884  -6.611  0.00  0.00     0.274 HD
ATOM     81  H18 LYS d   1      -7.846   9.116  -7.027  0.00  0.00     0.274 HD
ENDBRANCH  75  78
ENDBRANCH  72  75
ENDBRANCH  69  72
ENDBRANCH  66  69
ENDBRANCH  53  66
ENDBRANCH  50  53
ENDBRANCH  47  49
BRANCH  47  82
ATOM     82  CB  PHE d   1      -7.205   2.438 -12.894  0.00  0.00    -0.014 C 
ATOM     83  H21 PHE d   1      -7.617   2.034 -13.831  0.00  0.00     0.043 H 
ATOM     84  H22 PHE d   1      -6.939   1.608 -12.223  0.00  0.00     0.043 H 
BRANCH  82  85
ATOM     85  CG  PHE d   1      -5.956   3.206 -13.217  0.00  0.00    -0.056 A 
ATOM     86  CD1 PHE d   1      -6.013   4.358 -13.984  0.00  0.00    -0.077 A 
ATOM     87  CE1 PHE d   1      -4.865   5.067 -14.282  0.00  0.00    -0.082 A 
ATOM     88  H23 PHE d   1      -6.970   4.708 -14.355  0.00  0.00     0.084 H 
ATOM     89  CZ  PHE d   1      -3.643   4.627 -13.814  0.00  0.00    -0.083 A 
ATOM     90  H25 PHE d   1      -4.924   5.968 -14.883  0.00  0.00     0.083 H 
ATOM     91  CE2 PHE d   1      -3.572   3.481 -13.048  0.00  0.00    -0.082 A 
ATOM     92  H27 PHE d   1      -2.741   5.181 -14.048  0.00  0.00     0.083 H 
ATOM     93  CD2 PHE d   1      -4.723   2.775 -12.753  0.00  0.00    -0.077 A 
ATOM     94  H26 PHE d   1      -2.614   3.135 -12.678  0.00  0.00     0.083 H 
ATOM     95  H24 PHE d   1      -4.661   1.875 -12.152  0.00  0.00     0.084 H 
ENDBRANCH  82  85
ENDBRANCH  47  82
ENDBRANCH  44  47
ENDBRANCH  41  43
BRANCH  41  96
ATOM     96  CB  ILE d   1     -12.551   2.126 -11.132  0.00  0.00    -0.030 C 
ATOM     97  H30 ILE d   1     -13.473   1.533 -11.043  0.00  0.00     0.043 H 
BRANCH  96  98
ATOM     98  CG1 ILE d   1     -12.895   3.458 -11.801  0.00  0.00    -0.063 C 
ATOM     99  H31 ILE d   1     -12.731   3.356 -12.884  0.00  0.00     0.033 H 
ATOM    100  H32 ILE d   1     -12.225   4.232 -11.400  0.00  0.00     0.033 H 
BRANCH  98 101
ATOM    101  CD1 ILE d   1     -14.325   3.898 -11.573  0.00  0.00    -0.076 C 
ATOM    102  H36 ILE d   1     -14.498   4.858 -12.081  0.00  0.00     0.027 H 
ATOM    103  H37 ILE d   1     -14.505   4.016 -10.494  0.00  0.00     0.027 H 
ATOM    104  H38 ILE d   1     -15.011   3.140 -11.978  0.00  0.00     0.027 H 
ENDBRANCH  98 101
ENDBRANCH  96  98
BRANCH  96 105
ATOM    105  CG2 ILE d   1     -11.990   2.356  -9.737  0.00  0.00    -0.071 C 
ATOM    106  H33 ILE d   1     -11.750   1.387  -9.274  0.00  0.00     0.028 H 
ATOM    107  H34 ILE d   1     -12.737   2.880  -9.123  0.00  0.00     0.028 H 
ATOM    108  H35 ILE d   1     -11.078   2.966  -9.805  0.00  0.00     0.028 H 
ENDBRANCH  96 105
ENDBRANCH  41  96
ENDBRANCH  29  41
ENDBRANCH  24  27
ENDBRANCH  21  23
BRANCH  21 109
ATOM    109  CB  SER d   1     -16.973  -1.046 -14.786  0.00  0.00     0.044 C 
ATOM    110  H48 SER d   1     -16.903  -0.216 -15.504  0.00  0.00     0.077 H 
ATOM    111  H49 SER d   1     -16.726  -0.681 -13.778  0.00  0.00     0.077 H 
BRANCH 109 112
ATOM    112  OG  SER d   1     -18.299  -1.547 -14.785  0.00  0.00    -0.398 OA
ATOM    113  H50 SER d   1     -18.519  -1.860 -15.655  0.00  0.00     0.209 HD
ENDBRANCH 109 112
ENDBRANCH  21 109
ENDBRANCH  18  21
ENDBRANCH  15  17
BRANCH  15 114
ATOM    114  CB  ARG d   1     -16.072  -3.820 -19.233  0.00  0.00    -0.036 C 
ATOM    115  H53 ARG d   1     -16.890  -3.087 -19.174  0.00  0.00     0.036 H 
ATOM    116  H54 ARG d   1     -16.215  -4.460 -20.116  0.00  0.00     0.036 H 
BRANCH 114 117
ATOM    117  CG  ARG d   1     -14.763  -3.066 -19.394  0.00  0.00    -0.048 C 
ATOM    118  H55 ARG d   1     -13.983  -3.770 -19.720  0.00  0.00     0.035 H 
ATOM    119  H56 ARG d   1     -14.481  -2.628 -18.425  0.00  0.00     0.035 H 
BRANCH 117 120
ATOM    120  CD  ARG d   1     -14.885  -1.952 -20.423  0.00  0.00     0.009 C 
ATOM    121  H57 ARG d   1     -13.901  -1.476 -20.549  0.00  0.00     0.064 H 
ATOM    122  H58 ARG d   1     -15.608  -1.208 -20.057  0.00  0.00     0.064 H 
BRANCH 120 123
ATOM    123  NE  ARG d   1     -15.337  -2.451 -21.719  0.00  0.00    -0.227 N 
ATOM    124  CZ  ARG d   1     -14.577  -3.174 -22.534  0.00  0.00     0.665 C 
ATOM    125  NH1 ARG d   1     -13.333  -3.480 -22.189  0.00  0.00    -0.235 N 
ATOM    126  NH2 ARG d   1     -15.060  -3.592 -23.697  0.00  0.00    -0.235 N 
ATOM    127  H60 ARG d   1     -12.746  -4.041 -22.823  0.00  0.00     0.174 HD
ATOM    128  H61 ARG d   1     -12.954  -3.157 -21.287  0.00  0.00     0.174 HD
ATOM    129  H62 ARG d   1     -16.025  -3.356 -23.968  0.00  0.00     0.174 HD
ATOM    130  H63 ARG d   1     -14.470  -4.152 -24.328  0.00  0.00     0.174 HD
ATOM    131  H59 ARG d   1     -16.298  -2.230 -22.017  0.00  0.00     0.177 HD
ENDBRANCH 120 123
ENDBRANCH 117 120
ENDBRANCH 114 117
ENDBRANCH  15 114
ENDBRANCH  13  15
BRANCH   2 132
ATOM    132  C   PRO d   1     -13.760  -7.931 -20.067  0.00  0.00     0.241 C 
ATOM    133  O   PRO d   1     -13.959  -7.381 -21.150  0.00  0.00    -0.271 OA
ATOM    134  N   ALA d   1     -12.561  -8.356 -19.681  0.00  0.00    -0.346 N 
ATOM    135  H71 ALA d   1     -12.463  -8.793 -18.787  0.00  0.00     0.163 HD
BRANCH 134 136
ATOM    136  CA  ALA d   1     -11.386  -8.200 -20.529  0.00  0.00     0.086 C 
ATOM    137  H72 ALA d   1     -11.287  -7.136 -20.788  0.00  0.00     0.086 H 
BRANCH 136 138
ATOM    138  C   ALA d   1     -11.531  -8.995 -21.822  0.00  0.00     0.243 C 
ATOM    139  O   ALA d   1     -12.255  -9.989 -21.889  0.00  0.00    -0.271 OA
ATOM    140  N   PRO d   1     -10.828  -8.550 -22.874  0.00  0.00    -0.337 N 
ATOM    141  CA  PRO d   1     -10.863  -9.207 -24.184  0.00  0.00     0.091 C 
ATOM    142  CD  PRO d   1      -9.944  -7.373 -22.865  0.00  0.00    -0.001 C 
ATOM    143  CB  PRO d   1     -10.108  -8.230 -25.090  0.00  0.00    -0.036 C 
ATOM    144  H76 PRO d   1     -11.901  -9.336 -24.524  0.00  0.00     0.087 H 
ATOM    145  CG  PRO d   1      -9.207  -7.480 -24.171  0.00  0.00    -0.048 C 
ATOM    146  H77 PRO d   1     -10.808  -7.545 -25.591  0.00  0.00     0.036 H 
ATOM    147  H78 PRO d   1      -9.524  -8.775 -25.846  0.00  0.00     0.036 H 
ATOM    148  H79 PRO d   1      -8.997  -6.479 -24.575  0.00  0.00     0.035 H 
ATOM    149  H80 PRO d   1      -8.262  -8.025 -24.033  0.00  0.00     0.035 H 
ATOM    150  H81 PRO d   1      -9.246  -7.411 -22.015  0.00  0.00     0.064 H 
ATOM    151  H82 PRO d   1     -10.528  -6.442 -22.818  0.00  0.00     0.064 H 
BRANCH 141 152
ATOM    152  C   PRO d   1     -10.169 -10.565 -24.170  0.00  0.00     0.241 C 
ATOM    153  O   PRO d   1      -9.606 -10.976 -23.156  0.00  0.00    -0.271 OA
ATOM    154  N   LYS d   1     -10.214 -11.258 -25.303  0.00  0.00    -0.346 N 
ATOM    155  H83 LYS d   1     -10.688 -10.870 -26.093  0.00  0.00     0.163 HD
BRANCH 154 156
ATOM    156  CA  LYS d   1      -9.589 -12.570 -25.423  0.00  0.00     0.089 C 
ATOM    157  H84 LYS d   1      -9.032 -12.777 -24.497  0.00  0.00     0.087 H 
BRANCH 156 158
ATOM    158  C   LYS d   1      -8.612 -12.602 -26.595  0.00  0.00     0.243 C 
ATOM    159  O   LYS d   1      -8.810 -11.945 -27.617  0.00  0.00    -0.271 OA
ATOM    160  N   PRO d   1      -7.533 -13.384 -26.445  0.00  0.00    -0.337 N 
ATOM    161  CA  PRO d   1      -6.506 -13.522 -27.482  0.00  0.00     0.092 C 
ATOM    162  CD  PRO d   1      -7.233 -14.195 -25.253  0.00  0.00    -0.001 C 
ATOM    163  CB  PRO d   1      -5.397 -14.311 -26.780  0.00  0.00    -0.036 C 
ATOM    164  H96 PRO d   1      -6.144 -12.533 -27.800  0.00  0.00     0.087 H 
ATOM    165  CG  PRO d   1      -6.095 -15.068 -25.704  0.00  0.00    -0.048 C 
ATOM    166  H97 PRO d   1      -4.648 -13.629 -26.351  0.00  0.00     0.036 H 
ATOM    167  H98 PRO d   1      -4.906 -15.000 -27.483  0.00  0.00     0.036 H 
ATOM    168  H99 PRO d   1      -5.408 -15.263 -24.867  0.00  0.00     0.035 H 
ATOM    169 0H10 PRO d   1      -6.477 -16.023 -26.095  0.00  0.00     0.035 H 
ATOM    170 1H10 PRO d   1      -8.103 -14.802 -24.960  0.00  0.00     0.064 H 
ATOM    171 2H10 PRO d   1      -6.930 -13.558 -24.409  0.00  0.00     0.064 H 
BRANCH 161 172
ATOM    172  C   PRO d   1      -7.012 -14.285 -28.702  0.00  0.00     0.243 C 
ATOM    173  O   PRO d   1      -8.032 -14.972 -28.655  0.00  0.00    -0.271 OA
ATOM    174  N   PRO d   1      -6.283 -14.164 -29.821  0.00  0.00    -0.337 N 
ATOM    175  CA  PRO d   1      -6.638 -14.836 -31.074  0.00  0.00     0.091 C 
ATOM    176  CD  PRO d   1      -5.054 -13.361 -29.949  0.00  0.00    -0.001 C 
ATOM    177  CB  PRO d   1      -5.670 -14.226 -32.091  0.00  0.00    -0.036 C 
ATOM    178 3H10 PRO d   1      -7.681 -14.618 -31.346  0.00  0.00     0.087 H 
ATOM    179  CG  PRO d   1      -4.500 -13.783 -31.282  0.00  0.00    -0.048 C 
ATOM    180 4H10 PRO d   1      -6.134 -13.370 -32.603  0.00  0.00     0.036 H 
ATOM    181 5H10 PRO d   1      -5.365 -14.977 -32.835  0.00  0.00     0.036 H 
ATOM    182 6H10 PRO d   1      -3.995 -12.937 -31.771  0.00  0.00     0.035 H 
ATOM    183 7H10 PRO d   1      -3.788 -14.611 -31.155  0.00  0.00     0.035 H 
ATOM    184 8H10 PRO d   1      -4.347 -13.591 -29.138  0.00  0.00     0.064 H 
ATOM    185 9H10 PRO d   1      -5.284 -12.285 -29.941  0.00  0.00     0.064 H 
BRANCH 175 186
ATOM    186  C   PRO d   1      -6.446 -16.347 -30.996  0.00  0.00     0.241 C 
ATOM    187  O   PRO d   1      -6.213 -16.898 -29.920  0.00  0.00    -0.271 OA
ATOM    188  N   SER d   1      -6.546 -17.011 -32.143  0.00  0.00    -0.344 N 
ATOM    189 0H11 SER d   1      -6.735 -16.505 -32.985  0.00  0.00     0.163 HD
BRANCH 188 190
ATOM    190  CA  SER d   1      -6.387 -18.460 -32.203  0.00  0.00     0.109 C 
ATOM    191 1H11 SER d   1      -6.291 -18.843 -31.176  0.00  0.00     0.090 H 
BRANCH 190 192
ATOM    192  C   SER d   1      -5.130 -18.836 -32.982  0.00  0.00     0.243 C 
ATOM    193  O   SER d   1      -4.511 -19.868 -32.723  0.00  0.00    -0.271 OA
ATOM    194  N   SER d   1      -4.759 -17.991 -33.939  0.00  0.00    -0.344 N 
ATOM    195 5H11 SER d   1      -5.303 -17.167 -34.100  0.00  0.00     0.163 HD
BRANCH 194 196
ATOM    196  CA  SER d   1      -3.579 -18.235 -34.760  0.00  0.00     0.109 C 
ATOM    197 6H11 SER d   1      -3.732 -19.168 -35.322  0.00  0.00     0.090 H 
BRANCH 196 198
ATOM    198  C   SER d   1      -2.335 -18.391 -33.890  0.00  0.00     0.243 C 
ATOM    199  O   SER d   1      -1.754 -19.473 -33.808  0.00  0.00    -0.271 OA
ATOM    200  N   ALA d   1      -1.934 -17.303 -33.242  0.00  0.00    -0.345 N 
ATOM    201 0H12 ALA d   1      -2.449 -16.453 -33.351  0.00  0.00     0.163 HD
BRANCH 200 202
ATOM    202  CA  ALA d   1      -0.761 -17.318 -32.376  0.00  0.00     0.093 C 
ATOM    203 1H12 ALA d   1       0.098 -17.674 -32.964  0.00  0.00     0.089 H 
BRANCH 202 204
ATOM    204  C   ALA d   1      -0.960 -18.266 -31.199  0.00  0.00     0.196 C 
ATOM    205  O   ALA d   1      -2.063 -18.318 -30.591  0.00  0.00    -0.646 OA
ATOM    206  O   ALA d   1      -0.010 -19.007 -30.829  0.00  0.00    -0.646 OA
ENDBRANCH 202 204
BRANCH 202 207
ATOM    207  CB  ALA d   1      -0.454 -15.913 -31.878  0.00  0.00    -0.048 C 
ATOM    208 2H12 ALA d   1       0.432 -15.940 -31.227  0.00  0.00     0.030 H 
ATOM    209 3H12 ALA d   1      -1.314 -15.529 -31.310  0.00  0.00     0.030 H 
ATOM    210 4H12 ALA d   1      -0.258 -15.254 -32.737  0.00  0.00     0.030 H 
ENDBRANCH 202 207
ENDBRANCH 200 202
ENDBRANCH 196 198
BRANCH 196 211
ATOM    211  CB  SER d   1      -3.378 -17.092 -35.755  0.00  0.00     0.044 C 
ATOM    212 7H11 SER d   1      -2.865 -16.261 -35.249  0.00  0.00     0.077 H 
ATOM    213 8H11 SER d   1      -4.360 -16.752 -36.114  0.00  0.00     0.077 H 
BRANCH 211 214
ATOM    214  OG  SER d   1      -2.600 -17.510 -36.863  0.00  0.00    -0.398 OA
ATOM    215 9H11 SER d   1      -2.491 -16.782 -37.464  0.00  0.00     0.209 HD
ENDBRANCH 211 214
ENDBRANCH 196 211
ENDBRANCH 194 196
ENDBRANCH 190 192
BRANCH 190 216
ATOM    216  CB  SER d   1      -7.614 -19.102 -32.852  0.00  0.00     0.044 C 
ATOM    217 2H11 SER d   1      -8.461 -19.044 -32.153  0.00  0.00     0.077 H 
ATOM    218 3H11 SER d   1      -7.393 -20.156 -33.074  0.00  0.00     0.077 H 
BRANCH 216 219
ATOM    219  OG  SER d   1      -7.961 -18.439 -34.056  0.00  0.00    -0.398 OA
ATOM    220 4H11 SER d   1      -8.724 -18.857 -34.438  0.00  0.00     0.209 HD
ENDBRANCH 216 219
ENDBRANCH 190 216
ENDBRANCH 188 190
ENDBRANCH 175 186
ENDBRANCH 161 172
ENDBRANCH 156 158
BRANCH 156 221
ATOM    221  CB  LYS d   1     -10.656 -13.651 -25.605  0.00  0.00    -0.038 C 
ATOM    222  H85 LYS d   1     -10.490 -14.143 -26.575  0.00  0.00     0.036 H 
ATOM    223  H86 LYS d   1     -11.644 -13.168 -25.603  0.00  0.00     0.036 H 
BRANCH 221 224
ATOM    224  CG  LYS d   1     -10.638 -14.712 -24.518  0.00  0.00    -0.061 C 
ATOM    225  H87 LYS d   1     -10.319 -14.249 -23.572  0.00  0.00     0.033 H 
ATOM    226  H88 LYS d   1      -9.924 -15.500 -24.800  0.00  0.00     0.033 H 
BRANCH 224 227
ATOM    227  CD  LYS d   1     -12.011 -15.335 -24.325  0.00  0.00    -0.043 C 
ATOM    228  H89 LYS d   1     -11.919 -16.430 -24.384  0.00  0.00     0.035 H 
ATOM    229  H90 LYS d   1     -12.680 -14.980 -25.122  0.00  0.00     0.035 H 
BRANCH 227 230
ATOM    230  CE  LYS d   1     -12.607 -14.962 -22.977  0.00  0.00     0.080 C 
ATOM    231  H91 LYS d   1     -11.789 -14.770 -22.267  0.00  0.00     0.075 H 
ATOM    232  H92 LYS d   1     -13.219 -15.801 -22.614  0.00  0.00     0.075 H 
BRANCH 230 233
ATOM    233  NZ  LYS d   1     -13.462 -13.746 -23.066  0.00  0.00    -0.079 N 
ATOM    234  H93 LYS d   1     -13.837 -13.532 -22.155  0.00  0.00     0.274 HD
ATOM    235  H94 LYS d   1     -14.219 -13.914 -23.710  0.00  0.00     0.274 HD
ATOM    236  H95 LYS d   1     -12.909 -12.969 -23.392  0.00  0.00     0.274 HD
ENDBRANCH 230 233
ENDBRANCH 227 230
ENDBRANCH 224 227
ENDBRANCH 221 224
ENDBRANCH 156 221
ENDBRANCH 154 156
ENDBRANCH 141 152
ENDBRANCH 136 138
BRANCH 136 237
ATOM    237  CB  ALA d   1     -10.133  -8.630 -19.780  0.00  0.00    -0.049 C 
ATOM    238  H73 ALA d   1      -9.256  -8.507 -20.432  0.00  0.00     0.030 H 
ATOM    239  H74 ALA d   1     -10.226  -9.686 -19.486  0.00  0.00     0.030 H 
ATOM    240  H75 ALA d   1     -10.012  -8.008 -18.881  0.00  0.00     0.030 H 
ENDBRANCH 136 237
ENDBRANCH 134 136
ENDBRANCH   2 132
TORSDOF 55
