REMARK WARNING: 32 MAX_TORS EXCEEDED!!!
REMARK  54 active torsions:
REMARK  status: ('A' for Active; 'I' for Inactive)
REMARK    1  A    between atoms: N_1  and  CA_2 
REMARK    2  A    between atoms: CA_2  and  C_3 
REMARK    3  A    between atoms: CA_2  and  CB_5 
REMARK       I    between atoms: C_3  and  N_9 
REMARK    4  A    between atoms: CB_5  and  CG_6 
REMARK    5  A    between atoms: N_9  and  CA_10 
REMARK    6  A    between atoms: CA_10  and  C_11 
REMARK    7  A    between atoms: CA_10  and  CB_13 
REMARK       I    between atoms: C_11  and  N_16 
REMARK    8  A    between atoms: CB_13  and  OG1_14 
REMARK    9  A    between atoms: CB_13  and  CG2_15 
REMARK   10  A    between atoms: N_16  and  CA_17 
REMARK   11  A    between atoms: CA_17  and  C_18 
REMARK   12  A    between atoms: CA_17  and  CB_20 
REMARK       I    between atoms: C_18  and  N_25 
REMARK   13  A    between atoms: CB_20  and  CG_21 
REMARK   14  A    between atoms: CG_21  and  CD_22 
REMARK   15  A    between atoms: N_25  and  CA_26 
REMARK   16  A    between atoms: CA_26  and  C_27 
REMARK   17  A    between atoms: CA_26  and  CB_29 
REMARK       I    between atoms: C_27  and  N_32 
REMARK   18  A    between atoms: CB_29  and  CG1_30 
REMARK   19  A    between atoms: CB_29  and  CG2_31 
REMARK   20  A    between atoms: N_32  and  CA_33 
REMARK   21  A    between atoms: CA_33  and  C_34 
REMARK   22  A    between atoms: CA_33  and  CB_36 
REMARK       I    between atoms: C_34  and  N_48 
REMARK   23  A    between atoms: CB_36  and  CG_37 
REMARK   24  A    between atoms: CZ_42  and  OH_43 
REMARK   25  A    between atoms: OH_43  and  P_44 
REMARK   26  A    between atoms: N_48  and  CA_49 
REMARK   27  A    between atoms: CA_49  and  C_50 
REMARK   28  A    between atoms: CA_49  and  CB_52 
REMARK       I    between atoms: C_50  and  N_57 
REMARK   29  A    between atoms: CB_52  and  CG_53 
REMARK   30  A    between atoms: CG_53  and  CD_54 
REMARK   31  A    between atoms: N_57  and  CA_58 
REMARK   32  A    between atoms: CA_58  and  C_59 
REMARK   33  A    between atoms: CA_58  and  CB_61 
REMARK       I    between atoms: C_59  and  N_63 
REMARK   34  A    between atoms: CB_61  and  OG_62 
REMARK   35  A    between atoms: CA_64  and  C_65 
REMARK       I    between atoms: C_65  and  N_70 
REMARK   36  A    between atoms: N_70  and  CA_71 
REMARK   37  A    between atoms: CA_71  and  C_72 
REMARK   38  A    between atoms: CA_71  and  CB_74 
REMARK       I    between atoms: C_72  and  N_86 
REMARK   39  A    between atoms: CB_74  and  CG_75 
REMARK   40  A    between atoms: CZ_80  and  OH_81 
REMARK   41  A    between atoms: OH_81  and  P_82 
REMARK   42  A    between atoms: N_86  and  CA_87 
REMARK   43  A    between atoms: CA_87  and  C_88 
REMARK   44  A    between atoms: CA_87  and  CB_90 
REMARK       I    between atoms: C_88  and  N_91 
REMARK   45  A    between atoms: N_91  and  CA_92 
REMARK   46  A    between atoms: CA_92  and  C_93 
REMARK   47  A    between atoms: CA_92  and  CB_95 
REMARK       I    between atoms: C_93  and  N_99 
REMARK   48  A    between atoms: CB_95  and  CG_96 
REMARK   49  A    between atoms: CA_100  and  C_101 
REMARK       I    between atoms: C_101  and  N_106 
REMARK   50  A    between atoms: N_106  and  CA_107 
REMARK   51  A    between atoms: CA_107  and  C_108 
REMARK   52  A    between atoms: CA_107  and  CB_110 
REMARK   53  A    between atoms: CB_110  and  CG_111 
REMARK   54  A    between atoms: CG_111  and  CD_112 
ROOT
ATOM      1  C   GLU d   1       0.236   2.335  14.212  0.00  0.00     0.241 C 
ATOM      2  O   GLU d   1      -0.563   3.064  14.799  0.00  0.00    -0.271 OA
ATOM      3  N   SER d   1      -0.147   1.339  13.418  0.00  0.00    -0.344 N 
ATOM      4  H   SER d   1       0.562   0.765  12.961  0.00  0.00     0.163 HD
ENDROOT
BRANCH   3   5
ATOM      5  CA  SER d   1      -1.564   1.047  13.185  0.00  0.00     0.109 C 
ATOM      6  H   SER d   1      -1.650   0.494  12.250  0.00  0.00     0.090 H 
BRANCH   5   7
ATOM      7  C   SER d   1      -2.379   2.339  13.055  0.00  0.00     0.245 C 
ATOM      8  O   SER d   1      -3.261   2.613  13.877  0.00  0.00    -0.271 OA
ATOM      9  N   PRO d   1      -2.105   3.132  12.050  0.00  0.00    -0.337 N 
ATOM     10  CA  PRO d   1      -2.833   4.416  11.825  0.00  0.00     0.091 C 
ATOM     11  CD  PRO d   1      -1.075   2.897  11.023  0.00  0.00    -0.001 C 
ATOM     12  CB  PRO d   1      -2.297   4.914  10.475  0.00  0.00    -0.036 C 
ATOM     13  H   PRO d   1      -2.667   5.122  12.638  0.00  0.00     0.087 H 
ATOM     14  CG  PRO d   1      -0.980   4.237  10.294  0.00  0.00    -0.048 C 
ATOM     15  H   PRO d   1      -2.193   5.999  10.463  0.00  0.00     0.036 H 
ATOM     16  H   PRO d   1      -2.983   4.677   9.661  0.00  0.00     0.036 H 
ATOM     17  H   PRO d   1      -0.171   4.845  10.699  0.00  0.00     0.035 H 
ATOM     18  H   PRO d   1      -0.759   4.090   9.237  0.00  0.00     0.035 H 
ATOM     19  H   PRO d   1      -1.334   2.076  10.354  0.00  0.00     0.064 H 
ATOM     20  H   PRO d   1      -0.122   2.588  11.452  0.00  0.00     0.064 H 
BRANCH  10  21
ATOM     21  C   PRO d   1      -4.350   4.224  11.775  0.00  0.00     0.241 C 
ATOM     22  O   PRO d   1      -5.088   4.821  12.562  0.00  0.00    -0.271 OA
ATOM     23  N   PTR d   1      -4.804   3.396  10.837  0.00  0.00    -0.346 N 
ATOM     24  H   PTR d   1      -4.138   2.930  10.220  0.00  0.00     0.163 HD
BRANCH  23  25
ATOM     25  CA  PTR d   1      -6.234   3.138  10.669  0.00  0.00     0.093 C 
ATOM     26  H   PTR d   1      -6.753   3.496  11.558  0.00  0.00     0.088 H 
BRANCH  25  27
ATOM     27  C   PTR d   1      -6.504   1.646  10.514  0.00  0.00     0.241 C 
ATOM     28  O   PTR d   1      -5.746   0.938   9.851  0.00  0.00    -0.271 OA
ATOM     29  N   ALA d   1      -7.595   1.181  11.117  0.00  0.00    -0.346 N 
ATOM     30  H   ALA d   1      -8.184   1.821  11.649  0.00  0.00     0.163 HD
BRANCH  29  31
ATOM     31  CA  ALA d   1      -7.966  -0.230  11.031  0.00  0.00     0.086 C 
ATOM     32  H   ALA d   1      -8.291  -0.436  10.011  0.00  0.00     0.086 H 
BRANCH  31  33
ATOM     33  C   ALA d   1      -9.121  -0.550  11.979  0.00  0.00     0.240 C 
ATOM     34  O   ALA d   1     -10.293  -0.539  11.582  0.00  0.00    -0.271 OA
ATOM     35  N   ASP d   1      -8.786  -0.832  13.232  0.00  0.00    -0.346 N 
ATOM     36  H   ASP d   1      -7.802  -0.824  13.501  0.00  0.00     0.163 HD
BRANCH  35  37
ATOM     37  CA  ASP d   1      -9.797  -1.152  14.229  0.00  0.00     0.099 C 
ATOM     38  H   ASP d   1     -10.777  -0.857  13.853  0.00  0.00     0.088 H 
BRANCH  37  39
ATOM     39  C   ASP d   1      -9.550  -0.373  15.532  0.00  0.00     0.243 C 
ATOM     40  O   ASP d   1      -9.503  -0.957  16.617  0.00  0.00    -0.271 OA
ATOM     41  N   PRO d   1      -9.400   0.932  15.442  0.00  0.00    -0.337 N 
ATOM     42  CA  PRO d   1      -9.163   1.804  16.628  0.00  0.00     0.091 C 
ATOM     43  CD  PRO d   1      -9.449   1.729  14.202  0.00  0.00    -0.001 C 
ATOM     44  CB  PRO d   1      -8.514   3.048  16.018  0.00  0.00    -0.036 C 
ATOM     45  H   PRO d   1      -8.549   1.324  17.390  0.00  0.00     0.087 H 
ATOM     46  CG  PRO d   1      -9.097   3.154  14.649  0.00  0.00    -0.048 C 
ATOM     47  H   PRO d   1      -7.428   2.965  15.990  0.00  0.00     0.036 H 
ATOM     48  H   PRO d   1      -8.712   3.940  16.612  0.00  0.00     0.036 H 
ATOM     49  H   PRO d   1      -8.386   3.610  13.960  0.00  0.00     0.035 H 
ATOM     50  H   PRO d   1      -9.984   3.787  14.655  0.00  0.00     0.035 H 
ATOM     51  H   PRO d   1     -10.427   1.680  13.723  0.00  0.00     0.064 H 
ATOM     52  H   PRO d   1      -8.758   1.354  13.447  0.00  0.00     0.064 H 
BRANCH  42  53
ATOM     53  C   PRO d   1     -10.474   2.162  17.331  0.00  0.00     0.241 C 
ATOM     54  O   PRO d   1     -11.407   2.644  16.687  0.00  0.00    -0.271 OA
ATOM     55  N   GLU d   1     -10.526   1.924  18.646  0.00  0.00    -0.345 N 
ATOM     56  H   GLU d   1      -9.709   1.524  19.108  0.00  0.00     0.163 HD
BRANCH  55  57
ATOM     57  CA  GLU d   1     -11.720   2.220  19.447  0.00  0.00     0.097 C 
ATOM     58  H   GLU d   1     -11.451   2.088  20.495  0.00  0.00     0.089 H 
BRANCH  57  59
ATOM     59  C   GLU d   1     -12.870   1.255  19.120  0.00  0.00     0.196 C 
ATOM     60  O   GLU d   1     -13.020   0.893  17.962  0.00  0.00    -0.646 OA
ATOM     61  OXT GLU d   1     -13.583   0.887  20.040  0.00  0.00    -0.646 OA
ENDBRANCH  57  59
BRANCH  57  62
ATOM     62  CB  GLU d   1     -12.177   3.672  19.224  0.00  0.00    -0.028 C 
ATOM     63  H   GLU d   1     -13.186   3.793  19.618  0.00  0.00     0.037 H 
ATOM     64  H   GLU d   1     -12.161   3.891  18.156  0.00  0.00     0.037 H 
BRANCH  62  65
ATOM     65  CG  GLU d   1     -11.234   4.643  19.951  0.00  0.00     0.018 C 
ATOM     66  H   GLU d   1     -10.853   4.161  20.851  0.00  0.00     0.049 H 
ATOM     67  H   GLU d   1     -11.786   5.547  20.209  0.00  0.00     0.049 H 
BRANCH  65  68
ATOM     68  CD  GLU d   1     -10.059   5.017  19.052  0.00  0.00     0.172 C 
ATOM     69  OE1 GLU d   1     -10.210   5.937  18.265  0.00  0.00    -0.648 OA
ATOM     70  OE2 GLU d   1      -9.023   4.383  19.170  0.00  0.00    -0.648 OA
ENDBRANCH  65  68
ENDBRANCH  62  65
ENDBRANCH  57  62
ENDBRANCH  55  57
ENDBRANCH  42  53
ENDBRANCH  37  39
BRANCH  37  71
ATOM     71  CB  ASP d   1      -9.786  -2.667  14.488  0.00  0.00     0.043 C 
ATOM     72  H   ASP d   1     -10.612  -2.922  15.152  0.00  0.00     0.052 H 
ATOM     73  H   ASP d   1      -8.836  -2.944  14.945  0.00  0.00     0.052 H 
BRANCH  71  74
ATOM     74  CG  ASP d   1      -9.949  -3.427  13.173  0.00  0.00     0.175 C 
ATOM     75  OD1 ASP d   1     -11.085  -3.629  12.766  0.00  0.00    -0.648 OA
ATOM     76  OD2 ASP d   1      -8.942  -3.789  12.585  0.00  0.00    -0.648 OA
ENDBRANCH  71  74
ENDBRANCH  37  71
ENDBRANCH  35  37
ENDBRANCH  31  33
BRANCH  31  77
ATOM     77  CB  ALA d   1      -6.757  -1.110  11.367  0.00  0.00    -0.049 C 
ATOM     78  H   ALA d   1      -5.953  -0.906  10.660  0.00  0.00     0.030 H 
ATOM     79  H   ALA d   1      -6.418  -0.888  12.379  0.00  0.00     0.030 H 
ATOM     80  H   ALA d   1      -7.043  -2.160  11.300  0.00  0.00     0.030 H 
ENDBRANCH  31  77
ENDBRANCH  29  31
ENDBRANCH  25  27
BRANCH  25  81
ATOM     81  CB  PTR d   1      -6.747   3.875   9.428  0.00  0.00    -0.014 C 
ATOM     82  H   PTR d   1      -7.776   4.195   9.594  0.00  0.00     0.043 H 
ATOM     83  H   PTR d   1      -6.710   3.207   8.567  0.00  0.00     0.043 H 
BRANCH  81  84
ATOM     84  CG  PTR d   1      -5.879   5.082   9.167  0.00  0.00    -0.056 A 
ATOM     85  CD1 PTR d   1      -5.183   5.209   7.957  0.00  0.00    -0.074 A 
ATOM     86  CE1 PTR d   1      -4.378   6.336   7.732  0.00  0.00    -0.050 A 
ATOM     87  H   PTR d   1      -5.267   4.435   7.194  0.00  0.00     0.084 H 
ATOM     88  CZ  PTR d   1      -4.269   7.324   8.717  0.00  0.00     0.082 A 
ATOM     89  H   PTR d   1      -3.838   6.442   6.791  0.00  0.00     0.087 H 
ATOM     90  CE2 PTR d   1      -4.961   7.190   9.921  0.00  0.00    -0.050 A 
ATOM     91  CD2 PTR d   1      -5.764   6.072  10.146  0.00  0.00    -0.074 A 
ATOM     92  H   PTR d   1      -4.874   7.960  10.687  0.00  0.00     0.087 H 
ATOM     93  H   PTR d   1      -6.303   5.971  11.088  0.00  0.00     0.084 H 
BRANCH  88  94
ATOM     94  OH  PTR d   1      -3.489   8.447   8.497  0.00  0.00    -0.240 OA
BRANCH  94  95
ATOM     95  P   PTR d   1      -4.167   9.918   8.738  0.00  0.00     0.427 P 
ATOM     96  O1P PTR d   1      -3.652  10.999   7.782  0.00  0.00    -0.617 OA
ATOM     97  O2P PTR d   1      -3.820  10.302  10.184  0.00  0.00    -0.617 OA
ATOM     98  O3P PTR d   1      -5.689   9.819   8.619  0.00  0.00    -0.617 OA
ENDBRANCH  94  95
ENDBRANCH  88  94
ENDBRANCH  81  84
ENDBRANCH  25  81
ENDBRANCH  23  25
ENDBRANCH  10  21
ENDBRANCH   5   7
BRANCH   5  99
ATOM     99  CB  SER d   1      -2.115   0.198  14.338  0.00  0.00     0.044 C 
ATOM    100  H   SER d   1      -1.632   0.493  15.270  0.00  0.00     0.077 H 
ATOM    101  H   SER d   1      -1.914  -0.855  14.142  0.00  0.00     0.077 H 
BRANCH  99 102
ATOM    102  OG  SER d   1      -3.519   0.401  14.447  0.00  0.00    -0.398 OA
ATOM    103  H   SER d   1      -3.695   1.329  14.620  0.00  0.00     0.209 HD
ENDBRANCH  99 102
ENDBRANCH   5  99
ENDBRANCH   3   5
BRANCH   1 104
ATOM    104  CA  GLU d   1       1.747   2.538  14.378  0.00  0.00     0.090 C 
ATOM    105  H   GLU d   1       2.111   1.752  15.040  0.00  0.00     0.087 H 
BRANCH 104 106
ATOM    106  N   GLU d   1       2.449   2.436  13.101  0.00  0.00    -0.346 N 
ATOM    107  C   PTR d   1       2.435   1.339  12.361  0.00  0.00     0.241 C 
ATOM    108  O   PTR d   1       1.827   0.308  12.675  0.00  0.00    -0.271 OA
ATOM    109  H   GLU d   1       2.972   3.245  12.765  0.00  0.00     0.163 HD
BRANCH 107 110
ATOM    110  CA  PTR d   1       3.228   1.426  11.057  0.00  0.00     0.093 C 
ATOM    111  H   PTR d   1       3.137   2.434  10.652  0.00  0.00     0.088 H 
BRANCH 110 112
ATOM    112  N   PTR d   1       4.655   1.158  11.304  0.00  0.00    -0.346 N 
ATOM    113  C   VAL d   1       5.394   1.951  12.082  0.00  0.00     0.241 C 
ATOM    114  O   VAL d   1       4.944   2.951  12.638  0.00  0.00    -0.271 OA
ATOM    115  H   PTR d   1       5.090   0.344  10.869  0.00  0.00     0.163 HD
BRANCH 113 116
ATOM    116  CA  VAL d   1       6.866   1.558  12.256  0.00  0.00     0.092 C 
ATOM    117  H   VAL d   1       7.280   1.404  11.259  0.00  0.00     0.088 H 
BRANCH 116 118
ATOM    118  N   VAL d   1       7.624   2.616  12.929  0.00  0.00    -0.346 N 
ATOM    119  C   GLU d   1       8.590   3.282  12.298  0.00  0.00     0.241 C 
ATOM    120  O   GLU d   1       8.898   3.057  11.125  0.00  0.00    -0.271 OA
ATOM    121  H   VAL d   1       7.408   2.847  13.899  0.00  0.00     0.163 HD
BRANCH 119 122
ATOM    122  CA  GLU d   1       9.330   4.351  13.109  0.00  0.00     0.090 C 
ATOM    123  H   GLU d   1       9.494   5.226  12.481  0.00  0.00     0.087 H 
BRANCH 122 124
ATOM    124  N   GLU d   1       8.535   4.783  14.264  0.00  0.00    -0.346 N 
ATOM    125  C   THR d   1       7.586   5.705  14.134  0.00  0.00     0.243 C 
ATOM    126  O   THR d   1       7.332   6.247  13.059  0.00  0.00    -0.271 OA
ATOM    127  H   GLU d   1       8.713   4.370  15.180  0.00  0.00     0.163 HD
BRANCH 125 128
ATOM    128  CA  THR d   1       6.806   6.101  15.393  0.00  0.00     0.113 C 
ATOM    129  H   THR d   1       5.748   6.125  15.133  0.00  0.00     0.091 H 
BRANCH 128 130
ATOM    130  N   THR d   1       6.949   5.125  16.481  0.00  0.00    -0.344 N 
ATOM    131  C   ASP d   1       6.847   3.813  16.279  0.00  0.00     0.249 C 
ATOM    132  O   ASP d   1       6.631   3.309  15.173  0.00  0.00    -0.271 OA
ATOM    133  H   THR d   1       7.133   5.464  17.425  0.00  0.00     0.163 HD
BRANCH 131 134
ATOM    134  CA  ASP d   1       7.013   2.935  17.522  0.00  0.00     0.185 C 
ATOM    135  H   ASP d   1       6.882   1.890  17.241  0.00  0.00     0.100 H 
BRANCH 134 136
ATOM    136  N   ASP d   1       8.376   3.140  18.093  0.00  0.00    -0.066 N 
ATOM    137  H   ASP d   1       9.077   2.891  17.395  0.00  0.00     0.275 HD
ATOM    138  H   ASP d   1       8.489   4.119  18.356  0.00  0.00     0.275 HD
ATOM    139  H   ASP d   1       8.491   2.550  18.917  0.00  0.00     0.275 HD
ENDBRANCH 134 136
BRANCH 134 140
ATOM    140  CB  ASP d   1       5.958   3.311  18.577  0.00  0.00     0.050 C 
ATOM    141  H   ASP d   1       5.775   2.449  19.218  0.00  0.00     0.052 H 
ATOM    142  H   ASP d   1       5.041   3.611  18.070  0.00  0.00     0.052 H 
BRANCH 140 143
ATOM    143  CG  ASP d   1       6.452   4.471  19.436  0.00  0.00     0.175 C 
ATOM    144  OD1 ASP d   1       7.266   5.239  18.947  0.00  0.00    -0.648 OA
ATOM    145  OD2 ASP d   1       6.021   4.568  20.569  0.00  0.00    -0.648 OA
ENDBRANCH 140 143
ENDBRANCH 134 140
ENDBRANCH 131 134
ENDBRANCH 128 130
BRANCH 128 146
ATOM    146  CB  THR d   1       7.273   7.485  15.859  0.00  0.00     0.060 C 
ATOM    147  H   THR d   1       6.588   7.854  16.623  0.00  0.00     0.086 H 
BRANCH 146 148
ATOM    148  OG1 THR d   1       7.289   8.370  14.748  0.00  0.00    -0.393 OA
ATOM    149  H   THR d   1       7.892   8.033  14.081  0.00  0.00     0.210 HD
ENDBRANCH 146 148
BRANCH 146 150
ATOM    150  CG2 THR d   1       8.682   7.396  16.450  0.00  0.00    -0.050 C 
ATOM    151  H   THR d   1       8.675   6.716  17.302  0.00  0.00     0.031 H 
ATOM    152  H   THR d   1       9.370   7.023  15.691  0.00  0.00     0.031 H 
ATOM    153  H   THR d   1       9.001   8.386  16.777  0.00  0.00     0.031 H 
ENDBRANCH 146 150
ENDBRANCH 128 146
ENDBRANCH 125 128
ENDBRANCH 122 124
BRANCH 122 154
ATOM    154  CB  GLU d   1      10.681   3.780  13.567  0.00  0.00    -0.029 C 
ATOM    155  H   GLU d   1      11.413   3.919  12.771  0.00  0.00     0.037 H 
ATOM    156  H   GLU d   1      10.560   2.720  13.792  0.00  0.00     0.037 H 
BRANCH 154 157
ATOM    157  CG  GLU d   1      11.169   4.506  14.827  0.00  0.00     0.018 C 
ATOM    158  H   GLU d   1      10.876   5.554  14.772  0.00  0.00     0.049 H 
ATOM    159  H   GLU d   1      12.254   4.424  14.890  0.00  0.00     0.049 H 
BRANCH 157 160
ATOM    160  CD  GLU d   1      10.547   3.877  16.067  0.00  0.00     0.172 C 
ATOM    161  OE1 GLU d   1      10.988   2.812  16.461  0.00  0.00    -0.648 OA
ATOM    162  OE2 GLU d   1       9.619   4.460  16.598  0.00  0.00    -0.648 OA
ENDBRANCH 157 160
ENDBRANCH 154 157
ENDBRANCH 122 154
ENDBRANCH 119 122
ENDBRANCH 116 118
BRANCH 116 163
ATOM    163  CB  VAL d   1       6.986   0.262  13.074  0.00  0.00    -0.033 C 
ATOM    164  H   VAL d   1       7.887   0.317  13.685  0.00  0.00     0.042 H 
BRANCH 163 165
ATOM    165  CG1 VAL d   1       5.771   0.095  13.993  0.00  0.00    -0.071 C 
ATOM    166  H   VAL d   1       5.715   0.943  14.676  0.00  0.00     0.028 H 
ATOM    167  H   VAL d   1       4.864   0.052  13.390  0.00  0.00     0.028 H 
ATOM    168  H   VAL d   1       5.873  -0.828  14.564  0.00  0.00     0.028 H 
ENDBRANCH 163 165
BRANCH 163 169
ATOM    169  CG2 VAL d   1       7.076  -0.938  12.127  0.00  0.00    -0.071 C 
ATOM    170  H   VAL d   1       6.178  -0.981  11.510  0.00  0.00     0.028 H 
ATOM    171  H   VAL d   1       7.953  -0.830  11.488  0.00  0.00     0.028 H 
ATOM    172  H   VAL d   1       7.161  -1.855  12.711  0.00  0.00     0.028 H 
ENDBRANCH 163 169
ENDBRANCH 116 163
ENDBRANCH 113 116
ENDBRANCH 110 112
BRANCH 110 173
ATOM    173  CB  PTR d   1       2.659   0.424  10.036  0.00  0.00    -0.014 C 
ATOM    174  H   PTR d   1       2.423   0.941   9.106  0.00  0.00     0.043 H 
ATOM    175  H   PTR d   1       1.750  -0.028  10.432  0.00  0.00     0.043 H 
BRANCH 173 176
ATOM    176  CG  PTR d   1       3.683  -0.645   9.775  0.00  0.00    -0.056 A 
ATOM    177  CD1 PTR d   1       3.958  -1.601  10.758  0.00  0.00    -0.074 A 
ATOM    178  CE1 PTR d   1       4.938  -2.568  10.533  0.00  0.00    -0.050 A 
ATOM    179  H   PTR d   1       3.407  -1.591  11.699  0.00  0.00     0.084 H 
ATOM    180  CZ  PTR d   1       5.635  -2.583   9.323  0.00  0.00     0.082 A 
ATOM    181  H   PTR d   1       5.159  -3.310  11.300  0.00  0.00     0.087 H 
ATOM    182  CE2 PTR d   1       5.358  -1.633   8.339  0.00  0.00    -0.050 A 
ATOM    183  CD2 PTR d   1       4.384  -0.658   8.567  0.00  0.00    -0.074 A 
ATOM    184  H   PTR d   1       5.901  -1.652   7.394  0.00  0.00     0.087 H 
ATOM    185  H   PTR d   1       4.171   0.091   7.804  0.00  0.00     0.084 H 
BRANCH 180 186
ATOM    186  OH  PTR d   1       6.621  -3.522   9.111  0.00  0.00    -0.240 OA
BRANCH 186 187
ATOM    187  P   PTR d   1       8.178  -3.055   9.286  0.00  0.00     0.427 P 
ATOM    188  O1P PTR d   1       8.402  -1.542   9.193  0.00  0.00    -0.617 OA
ATOM    189  O2P PTR d   1       8.937  -3.711   8.139  0.00  0.00    -0.617 OA
ATOM    190  O3P PTR d   1       8.749  -3.576  10.606  0.00  0.00    -0.617 OA
ENDBRANCH 186 187
ENDBRANCH 180 186
ENDBRANCH 173 176
ENDBRANCH 110 173
ENDBRANCH 107 110
ENDBRANCH 104 106
BRANCH 104 191
ATOM    191  CB  GLU d   1       2.025   3.922  14.982  0.00  0.00    -0.029 C 
ATOM    192  H   GLU d   1       3.096   4.029  15.156  0.00  0.00     0.037 H 
ATOM    193  H   GLU d   1       1.483   4.018  15.923  0.00  0.00     0.037 H 
BRANCH 191 194
ATOM    194  CG  GLU d   1       1.556   5.024  14.011  0.00  0.00     0.018 C 
ATOM    195  H   GLU d   1       1.413   5.947  14.572  0.00  0.00     0.049 H 
ATOM    196  H   GLU d   1       0.625   4.705  13.542  0.00  0.00     0.049 H 
BRANCH 194 197
ATOM    197  CD  GLU d   1       2.597   5.269  12.919  0.00  0.00     0.172 C 
ATOM    198  OE1 GLU d   1       2.563   4.562  11.924  0.00  0.00    -0.648 OA
ATOM    199  OE2 GLU d   1       3.420   6.159  13.091  0.00  0.00    -0.648 OA
ENDBRANCH 194 197
ENDBRANCH 191 194
ENDBRANCH 104 191
ENDBRANCH   1 104
TORSDOF 54
