REMARK WARNING: 32 MAX_TORS EXCEEDED!!!
REMARK  80 active torsions:
REMARK  status: ('A' for Active; 'I' for Inactive)
REMARK    1  A    between atoms: N_1  and  CA_2 
REMARK    2  A    between atoms: CA_2  and  C_3 
REMARK    3  A    between atoms: CA_2  and  CB_5 
REMARK       I    between atoms: C_3  and  N_6 
REMARK    4  A    between atoms: N_6  and  CA_7 
REMARK    5  A    between atoms: CA_7  and  C_8 
REMARK    6  A    between atoms: CA_7  and  CB_10 
REMARK       I    between atoms: C_8  and  N_17 
REMARK    7  A    between atoms: CB_10  and  CG_11 
REMARK    8  A    between atoms: N_17  and  CA_18 
REMARK    9  A    between atoms: CA_18  and  C_19 
REMARK   10  A    between atoms: CA_18  and  CB_21 
REMARK       I    between atoms: C_19  and  N_25 
REMARK   11  A    between atoms: CB_21  and  CG1_22 
REMARK   12  A    between atoms: CB_21  and  CG2_23 
REMARK   13  A    between atoms: CG1_22  and  CD1_24 
REMARK   14  A    between atoms: N_25  and  CA_26 
REMARK   15  A    between atoms: CA_26  and  C_27 
REMARK   16  A    between atoms: CA_26  and  CB_29 
REMARK       I    between atoms: C_27  and  N_33 
REMARK   17  A    between atoms: CB_29  and  CG1_30 
REMARK   18  A    between atoms: CB_29  and  CG2_31 
REMARK   19  A    between atoms: CG1_30  and  CD1_32 
REMARK   20  A    between atoms: N_33  and  CA_34 
REMARK   21  A    between atoms: CA_34  and  C_35 
REMARK   22  A    between atoms: CA_34  and  CB_37 
REMARK       I    between atoms: C_35  and  N_47 
REMARK   23  A    between atoms: CB_37  and  CG_38 
REMARK   24  A    between atoms: N_47  and  CA_48 
REMARK   25  A    between atoms: CA_48  and  C_49 
REMARK   26  A    between atoms: CA_48  and  CB_51 
REMARK       I    between atoms: C_49  and  N_55 
REMARK   27  A    between atoms: CB_51  and  CG_52 
REMARK   28  A    between atoms: CG_52  and  CD1_53 
REMARK   29  A    between atoms: CG_52  and  CD2_54 
REMARK   30  A    between atoms: N_55  and  CA_56 
REMARK   31  A    between atoms: CA_56  and  C_57 
REMARK   32  A    between atoms: CA_56  and  CB_59 
REMARK       I    between atoms: C_57  and  N_60 
REMARK   33  A    between atoms: N_60  and  CA_61 
REMARK   34  A    between atoms: CA_61  and  C_62 
REMARK   35  A    between atoms: CA_61  and  CB_64 
REMARK       I    between atoms: C_62  and  N_71 
REMARK   36  A    between atoms: CB_64  and  CG_65 
REMARK   37  A    between atoms: CG_65  and  CD_66 
REMARK   38  A    between atoms: CD_66  and  NE_67 
REMARK       I    between atoms: NE_67  and  CZ_68 
REMARK       I    between atoms: CZ_68  and  NH1_69 
REMARK       I    between atoms: CZ_68  and  NH2_70 
REMARK   39  A    between atoms: N_71  and  CA_72 
REMARK   40  A    between atoms: CA_72  and  C_73 
REMARK   41  A    between atoms: CA_72  and  CB_75 
REMARK       I    between atoms: C_73  and  N_82 
REMARK   42  A    between atoms: CB_75  and  CG_76 
REMARK   43  A    between atoms: CG_76  and  CD_77 
REMARK   44  A    between atoms: CD_77  and  NE_78 
REMARK       I    between atoms: NE_78  and  CZ_79 
REMARK       I    between atoms: CZ_79  and  NH1_80 
REMARK   45  A    between atoms: N_82  and  CA_83 
REMARK   46  A    between atoms: CA_83  and  C_84 
REMARK   47  A    between atoms: CA_83  and  CB_86 
REMARK       I    between atoms: C_84  and  N_90 
REMARK   48  A    between atoms: CB_86  and  CG_87 
REMARK   49  A    between atoms: CG_87  and  CD1_88 
REMARK   50  A    between atoms: CG_87  and  CD2_89 
REMARK   51  A    between atoms: N_90  and  CA_91 
REMARK   52  A    between atoms: CA_91  and  C_92 
REMARK   53  A    between atoms: CA_91  and  CB_94 
REMARK       I    between atoms: C_92  and  N_99 
REMARK   54  A    between atoms: CB_94  and  CG_95 
REMARK   55  A    between atoms: CG_95  and  CD_96 
REMARK   56  A    between atoms: CD_96  and  CE_97 
REMARK   57  A    between atoms: CE_97  and  NZ_98 
REMARK   58  A    between atoms: N_99  and  CA_100 
REMARK   59  A    between atoms: CA_100  and  C_101 
REMARK   60  A    between atoms: CA_100  and  CB_103 
REMARK       I    between atoms: C_101  and  N_108 
REMARK   61  A    between atoms: CB_103  and  CG_104 
REMARK   62  A    between atoms: CG_104  and  CD_105 
REMARK   63  A    between atoms: CD_105  and  CE_106 
REMARK   64  A    between atoms: CE_106  and  NZ_107 
REMARK   65  A    between atoms: N_108  and  CA_109 
REMARK   66  A    between atoms: CA_109  and  C_110 
REMARK       I    between atoms: C_110  and  N_112 
REMARK   67  A    between atoms: N_112  and  CA_113 
REMARK   68  A    between atoms: CA_113  and  C_114 
REMARK   69  A    between atoms: CA_113  and  CB_116 
REMARK       I    between atoms: C_114  and  N_121 
REMARK   70  A    between atoms: CB_116  and  CG_117 
REMARK   71  A    between atoms: CG_117  and  CD_118 
REMARK   72  A    between atoms: CD_118  and  CE_119 
REMARK   73  A    between atoms: CE_119  and  NZ_120 
REMARK   74  A    between atoms: N_121  and  CA_122 
REMARK   75  A    between atoms: CA_122  and  C_123 
REMARK   76  A    between atoms: CA_122  and  CB_125 
REMARK   77  A    between atoms: CB_125  and  CG_126 
REMARK   78  A    between atoms: CG_126  and  CD_127 
REMARK   79  A    between atoms: CD_127  and  CE_128 
REMARK   80  A    between atoms: CE_128  and  NZ_129 
ROOT
ATOM      1  CA  ARG d   1       7.443   4.404  -2.901  0.00  0.00     0.089 C 
ATOM      2  H66 ARG d   1       7.809   4.515  -3.932  0.00  0.00     0.087 H 
ENDROOT
BRANCH   1   3
ATOM      3  N   ARG d   1       6.700   3.156  -2.801  0.00  0.00    -0.346 N 
ATOM      4  C   ALA d   1       7.269   2.001  -3.121  0.00  0.00     0.240 C 
ATOM      5  O   ALA d   1       8.432   1.913  -3.516  0.00  0.00    -0.271 OA
ATOM      6  H65 ARG d   1       5.750   3.170  -2.488  0.00  0.00     0.163 HD
BRANCH   4   7
ATOM      7  CA  ALA d   1       6.393   0.762  -2.987  0.00  0.00     0.086 C 
ATOM      8  H61 ALA d   1       7.040  -0.122  -2.890  0.00  0.00     0.086 H 
BRANCH   7   9
ATOM      9  N   ALA d   1       5.542   0.854  -1.805  0.00  0.00    -0.346 N 
ATOM     10  C   LEU d   1       6.066   0.766  -0.594  0.00  0.00     0.241 C 
ATOM     11  O   LEU d   1       7.271   0.601  -0.394  0.00  0.00    -0.271 OA
ATOM     12  H60 ALA d   1       4.556   0.984  -1.911  0.00  0.00     0.163 HD
BRANCH  10  13
ATOM     13  CA  LEU d   1       5.099   0.871   0.566  0.00  0.00     0.089 C 
ATOM     14  H50 LEU d   1       5.665   1.076   1.486  0.00  0.00     0.087 H 
BRANCH  13  15
ATOM     15  N   LEU d   1       4.159   1.947   0.342  0.00  0.00    -0.346 N 
ATOM     16  C   TRP d   1       4.590   3.154   0.024  0.00  0.00     0.241 C 
ATOM     17  O   TRP d   1       5.784   3.431  -0.099  0.00  0.00    -0.271 OA
ATOM     18  H49 LEU d   1       3.178   1.776   0.428  0.00  0.00     0.163 HD
BRANCH  16  19
ATOM     19  CA  TRP d   1       3.517   4.226  -0.136  0.00  0.00     0.093 C 
ATOM     20  H40 TRP d   1       3.932   5.064  -0.715  0.00  0.00     0.088 H 
BRANCH  19  21
ATOM     21  N   TRP d   1       2.370   3.687  -0.840  0.00  0.00    -0.346 N 
ATOM     22  C   ILE d   1       2.481   3.278  -2.089  0.00  0.00     0.241 C 
ATOM     23  O   ILE d   1       3.542   3.315  -2.715  0.00  0.00    -0.271 OA
ATOM     24  H39 TRP d   1       1.487   3.625  -0.375  0.00  0.00     0.163 HD
BRANCH  22  25
ATOM     25  CA  ILE d   1       1.220   2.719  -2.731  0.00  0.00     0.092 C 
ATOM     26  H29 ILE d   1       1.496   2.167  -3.642  0.00  0.00     0.088 H 
BRANCH  25  27
ATOM     27  N   ILE d   1       0.555   1.817  -1.812  0.00  0.00    -0.346 N 
ATOM     28  C   ILE d   1       1.176   0.746  -1.366  0.00  0.00     0.241 C 
ATOM     29  O   ILE d   1       2.337   0.461  -1.689  0.00  0.00    -0.271 OA
ATOM     30  H28 ILE d   1      -0.380   2.010  -1.515  0.00  0.00     0.163 HD
BRANCH  28  31
ATOM     31  CA  ILE d   1       0.379  -0.145  -0.419  0.00  0.00     0.092 C 
ATOM     32  H18 ILE d   1       1.081  -0.791   0.129  0.00  0.00     0.088 H 
BRANCH  31  33
ATOM     33  N   ILE d   1      -0.358   0.663   0.542  0.00  0.00    -0.346 N 
ATOM     34  C   PHE d   1       0.260   1.532   1.321  0.00  0.00     0.241 C 
ATOM     35  O   PHE d   1       1.472   1.716   1.282  0.00  0.00    -0.271 OA
ATOM     36  H17 ILE d   1      -1.350   0.558   0.614  0.00  0.00     0.163 HD
BRANCH  34  37
ATOM     37  CA  PHE d   1      -0.628   2.316   2.291  0.00  0.00     0.093 C 
ATOM     38  H9  PHE d   1      -0.256   3.349   2.356  0.00  0.00     0.088 H 
BRANCH  37  39
ATOM     39  N   PHE d   1      -2.014   2.341   1.820  0.00  0.00    -0.346 N 
ATOM     40  C   ALA d   1      -2.301   2.492   0.532  0.00  0.00     0.248 C 
ATOM     41  O   ALA d   1      -1.437   2.621  -0.328  0.00  0.00    -0.271 OA
ATOM     42  H8  PHE d   1      -2.759   2.243   2.480  0.00  0.00     0.163 HD
BRANCH  40  43
ATOM     43  CA  ALA d   1      -3.778   2.485   0.159  0.00  0.00     0.172 C 
ATOM     44  H4  ALA d   1      -3.914   1.901  -0.763  0.00  0.00     0.098 H 
BRANCH  43  45
ATOM     45  N   ALA d   1      -4.562   1.856   1.265  0.00  0.00    -0.067 N 
ATOM     46  H1  ALA d   1      -5.540   1.849   1.022  0.00  0.00     0.275 HD
ATOM     47  H2  ALA d   1      -4.430   2.385   2.113  0.00  0.00     0.275 HD
ATOM     48  H3  ALA d   1      -4.245   0.910   1.406  0.00  0.00     0.275 HD
ENDBRANCH  43  45
BRANCH  43  49
ATOM     49  CB  ALA d   1      -4.281   3.907  -0.071  0.00  0.00    -0.042 C 
ATOM     50  H5  ALA d   1      -3.705   4.372  -0.885  0.00  0.00     0.030 H 
ATOM     51  H6  ALA d   1      -4.154   4.494   0.850  0.00  0.00     0.030 H 
ATOM     52  H7  ALA d   1      -5.346   3.880  -0.344  0.00  0.00     0.030 H 
ENDBRANCH  43  49
ENDBRANCH  40  43
ENDBRANCH  37  39
BRANCH  37  53
ATOM     53  CB  PHE d   1      -0.568   1.673   3.687  0.00  0.00    -0.014 C 
ATOM     54  H10 PHE d   1      -1.418   2.029   4.287  0.00  0.00     0.043 H 
ATOM     55  H11 PHE d   1       0.374   1.959   4.178  0.00  0.00     0.043 H 
BRANCH  53  56
ATOM     56  CG  PHE d   1      -0.634   0.160   3.573  0.00  0.00    -0.056 A 
ATOM     57  CD1 PHE d   1      -1.548  -0.458   2.695  0.00  0.00    -0.077 A 
ATOM     58  CE1 PHE d   1      -1.587  -1.839   2.586  0.00  0.00    -0.082 A 
ATOM     59  H12 PHE d   1      -2.223   0.149   2.103  0.00  0.00     0.084 H 
ATOM     60  CZ  PHE d   1      -0.718  -2.624   3.340  0.00  0.00    -0.083 A 
ATOM     61  H14 PHE d   1      -2.295  -2.309   1.913  0.00  0.00     0.083 H 
ATOM     62  CE2 PHE d   1       0.195  -2.021   4.216  0.00  0.00    -0.082 A 
ATOM     63  H16 PHE d   1      -0.748  -3.704   3.249  0.00  0.00     0.083 H 
ATOM     64  CD2 PHE d   1       0.236  -0.628   4.334  0.00  0.00    -0.077 A 
ATOM     65  H15 PHE d   1       0.870  -2.635   4.802  0.00  0.00     0.083 H 
ATOM     66  H13 PHE d   1       0.940  -0.160   5.013  0.00  0.00     0.084 H 
ENDBRANCH  53  56
ENDBRANCH  37  53
ENDBRANCH  34  37
ENDBRANCH  31  33
BRANCH  31  67
ATOM     67  CB  ILE d   1      -0.604  -1.044  -1.219  0.00  0.00    -0.030 C 
ATOM     68  H19 ILE d   1      -0.387  -0.942  -2.293  0.00  0.00     0.043 H 
BRANCH  67  69
ATOM     69  CG1 ILE d   1      -2.049  -0.611  -0.949  0.00  0.00    -0.063 C 
ATOM     70  H20 ILE d   1      -2.130   0.477  -1.086  0.00  0.00     0.033 H 
ATOM     71  H21 ILE d   1      -2.315  -0.871   0.086  0.00  0.00     0.033 H 
BRANCH  69  72
ATOM     72  CD1 ILE d   1      -3.015  -1.308  -1.903  0.00  0.00    -0.076 C 
ATOM     73  H25 ILE d   1      -4.043  -0.980  -1.688  0.00  0.00     0.027 H 
ATOM     74  H26 ILE d   1      -2.942  -2.397  -1.768  0.00  0.00     0.027 H 
ATOM     75  H27 ILE d   1      -2.757  -1.049  -2.940  0.00  0.00     0.027 H 
ENDBRANCH  69  72
ENDBRANCH  67  69
BRANCH  67  76
ATOM     76  CG2 ILE d   1      -0.452  -2.514  -0.812  0.00  0.00    -0.071 C 
ATOM     77  H22 ILE d   1       0.581  -2.841  -1.000  0.00  0.00     0.028 H 
ATOM     78  H23 ILE d   1      -1.145  -3.131  -1.402  0.00  0.00     0.028 H 
ATOM     79  H24 ILE d   1      -0.683  -2.624   0.258  0.00  0.00     0.028 H 
ENDBRANCH  67  76
ENDBRANCH  31  67
ENDBRANCH  28  31
ENDBRANCH  25  27
BRANCH  25  80
ATOM     80  CB  ILE d   1       0.264   3.869  -3.107  0.00  0.00    -0.030 C 
ATOM     81  H30 ILE d   1      -0.186   4.273  -2.188  0.00  0.00     0.043 H 
BRANCH  80  82
ATOM     82  CG1 ILE d   1      -0.864   3.350  -4.030  0.00  0.00    -0.063 C 
ATOM     83  H31 ILE d   1      -0.439   2.640  -4.754  0.00  0.00     0.033 H 
ATOM     84  H32 ILE d   1      -1.309   4.200  -4.568  0.00  0.00     0.033 H 
BRANCH  82  85
ATOM     85  CD1 ILE d   1      -1.951   2.647  -3.220  0.00  0.00    -0.076 C 
ATOM     86  H36 ILE d   1      -2.739   2.288  -3.898  0.00  0.00     0.027 H 
ATOM     87  H37 ILE d   1      -2.384   3.353  -2.496  0.00  0.00     0.027 H 
ATOM     88  H38 ILE d   1      -1.513   1.793  -2.682  0.00  0.00     0.027 H 
ENDBRANCH  82  85
ENDBRANCH  80  82
BRANCH  80  89
ATOM     89  CG2 ILE d   1       1.043   4.983  -3.811  0.00  0.00    -0.071 C 
ATOM     90  H33 ILE d   1       1.843   5.346  -3.149  0.00  0.00     0.028 H 
ATOM     91  H34 ILE d   1       0.361   5.812  -4.051  0.00  0.00     0.028 H 
ATOM     92  H35 ILE d   1       1.485   4.591  -4.739  0.00  0.00     0.028 H 
ENDBRANCH  80  89
ENDBRANCH  25  80
ENDBRANCH  22  25
ENDBRANCH  19  21
BRANCH  19  93
ATOM     93  CB  TRP d   1       3.080   4.738   1.254  0.00  0.00    -0.012 C 
ATOM     94  H41 TRP d   1       2.216   4.153   1.601  0.00  0.00     0.044 H 
ATOM     95  H42 TRP d   1       2.798   5.799   1.179  0.00  0.00     0.044 H 
BRANCH  93  96
ATOM     96  CG  TRP d   1       4.202   4.593   2.235  0.00  0.00    -0.028 A 
ATOM     97  CD1 TRP d   1       5.315   5.351   2.272  0.00  0.00    -0.015 A 
ATOM     98  NE1 TRP d   1       6.129   4.892   3.292  0.00  0.00    -0.365 N 
ATOM     99  H43 TRP d   1       5.537   6.186   1.609  0.00  0.00     0.112 H 
ATOM    100  CE2 TRP d   1       5.568   3.813   3.944  0.00  0.00     0.042 A 
ATOM    101  H44 TRP d   1       7.041   5.305   3.535  0.00  0.00     0.165 HD
ATOM    102  CD2 TRP d   1       4.344   3.608   3.286  0.00  0.00    -0.002 A 
ATOM    103  CZ2 TRP d   1       5.968   3.000   5.001  0.00  0.00    -0.056 A 
ATOM    104  CE3 TRP d   1       3.526   2.570   3.721  0.00  0.00    -0.070 A 
ATOM    105  CZ3 TRP d   1       3.915   1.746   4.786  0.00  0.00    -0.082 A 
ATOM    106  H45 TRP d   1       2.575   2.396   3.230  0.00  0.00     0.084 H 
ATOM    107  CH2 TRP d   1       5.140   1.961   5.425  0.00  0.00    -0.081 A 
ATOM    108  H47 TRP d   1       3.266   0.942   5.114  0.00  0.00     0.083 H 
ATOM    109  H48 TRP d   1       5.445   1.323   6.247  0.00  0.00     0.083 H 
ATOM    110  H46 TRP d   1       6.919   3.174   5.492  0.00  0.00     0.086 H 
ENDBRANCH  93  96
ENDBRANCH  19  93
ENDBRANCH  16  19
ENDBRANCH  13  15
BRANCH  13 111
ATOM    111  CB  LEU d   1       4.340  -0.452   0.727  0.00  0.00    -0.035 C 
ATOM    112  H51 LEU d   1       5.054  -1.287   0.669  0.00  0.00     0.037 H 
ATOM    113  H52 LEU d   1       3.601  -0.544  -0.082  0.00  0.00     0.037 H 
BRANCH 111 114
ATOM    114  CG  LEU d   1       3.617  -0.503   2.076  0.00  0.00    -0.059 C 
ATOM    115  H53 LEU d   1       3.118   0.462   2.249  0.00  0.00     0.038 H 
BRANCH 114 116
ATOM    116  CD1 LEU d   1       2.555  -1.630   2.087  0.00  0.00    -0.073 C 
ATOM    117  H54 LEU d   1       2.049  -1.648   3.064  0.00  0.00     0.028 H 
ATOM    118  H55 LEU d   1       3.046  -2.598   1.911  0.00  0.00     0.028 H 
ATOM    119  H56 LEU d   1       1.815  -1.444   1.294  0.00  0.00     0.028 H 
ENDBRANCH 114 116
BRANCH 114 120
ATOM    120  CD2 LEU d   1       4.631  -0.756   3.199  0.00  0.00    -0.073 C 
ATOM    121  H57 LEU d   1       5.388   0.042   3.196  0.00  0.00     0.028 H 
ATOM    122  H58 LEU d   1       5.121  -1.727   3.038  0.00  0.00     0.028 H 
ATOM    123  H59 LEU d   1       4.111  -0.764   4.168  0.00  0.00     0.028 H 
ENDBRANCH 114 120
ENDBRANCH 111 114
ENDBRANCH  13 111
ENDBRANCH  10  13
ENDBRANCH   7   9
BRANCH   7 124
ATOM    124  CB  ALA d   1       5.525   0.612  -4.237  0.00  0.00    -0.049 C 
ATOM    125  H62 ALA d   1       6.170   0.543  -5.125  0.00  0.00     0.030 H 
ATOM    126  H63 ALA d   1       4.864   1.486  -4.331  0.00  0.00     0.030 H 
ATOM    127  H64 ALA d   1       4.917  -0.301  -4.154  0.00  0.00     0.030 H 
ENDBRANCH   7 124
ENDBRANCH   4   7
ENDBRANCH   1   3
BRANCH   1 128
ATOM    128  C   ARG d   1       8.634   4.400  -1.952  0.00  0.00     0.241 C 
ATOM    129  O   ARG d   1       9.695   4.924  -2.281  0.00  0.00    -0.271 OA
ATOM    130  N   ARG d   1       8.453   3.822  -0.772  0.00  0.00    -0.346 N 
ATOM    131  H78 ARG d   1       7.569   3.408  -0.554  0.00  0.00     0.163 HD
BRANCH 130 132
ATOM    132  CA  ARG d   1       9.528   3.784   0.209  0.00  0.00     0.089 C 
ATOM    133  H79 ARG d   1       9.816   4.814   0.466  0.00  0.00     0.087 H 
BRANCH 132 134
ATOM    134  C   ARG d   1      10.742   3.053  -0.350  0.00  0.00     0.241 C 
ATOM    135  O   ARG d   1      11.859   3.568  -0.313  0.00  0.00    -0.271 OA
ATOM    136  N   LEU d   1      10.520   1.852  -0.863  0.00  0.00    -0.346 N 
ATOM    137  H91 LEU d   1       9.591   1.481  -0.866  0.00  0.00     0.163 HD
BRANCH 136 138
ATOM    138  CA  LEU d   1      11.609   1.066  -1.422  0.00  0.00     0.089 C 
ATOM    139  H92 LEU d   1      12.447   1.070  -0.710  0.00  0.00     0.087 H 
BRANCH 138 140
ATOM    140  C   LEU d   1      12.086   1.659  -2.739  0.00  0.00     0.241 C 
ATOM    141  O   LEU d   1      13.285   1.702  -3.019  0.00  0.00    -0.271 OA
ATOM    142  N   LYS d   1      11.133   2.103  -3.551  0.00  0.00    -0.346 N 
ATOM    143 2H10 LYS d   1      10.177   2.041  -3.265  0.00  0.00     0.163 HD
BRANCH 142 144
ATOM    144  CA  LYS d   1      11.454   2.678  -4.847  0.00  0.00     0.089 C 
ATOM    145 3H10 LYS d   1      12.039   1.945  -5.423  0.00  0.00     0.087 H 
BRANCH 144 146
ATOM    146  C   LYS d   1      12.287   3.947  -4.676  0.00  0.00     0.241 C 
ATOM    147  O   LYS d   1      13.201   4.213  -5.456  0.00  0.00    -0.271 OA
ATOM    148  N   LYS d   1      11.961   4.724  -3.644  0.00  0.00    -0.346 N 
ATOM    149 5H11 LYS d   1      11.208   4.453  -3.045  0.00  0.00     0.163 HD
BRANCH 148 150
ATOM    150  CA  LYS d   1      12.683   5.964  -3.372  0.00  0.00     0.089 C 
ATOM    151 6H11 LYS d   1      12.619   6.613  -4.258  0.00  0.00     0.087 H 
BRANCH 150 152
ATOM    152  C   LYS d   1      14.151   5.674  -3.078  0.00  0.00     0.240 C 
ATOM    153  O   LYS d   1      15.036   6.431  -3.475  0.00  0.00    -0.271 OA
ATOM    154  N   GLY d   1      14.404   4.568  -2.384  0.00  0.00    -0.351 N 
ATOM    155 8H12 GLY d   1      13.644   3.988  -2.090  0.00  0.00     0.163 HD
BRANCH 154 156
ATOM    156  CA  GLY d   1      15.770   4.186  -2.044  0.00  0.00     0.069 C 
ATOM    157 9H12 GLY d   1      15.742   3.361  -1.317  0.00  0.00     0.078 H 
ATOM    158 0H13 GLY d   1      16.284   5.050  -1.598  0.00  0.00     0.078 H 
BRANCH 156 159
ATOM    159  C   GLY d   1      16.538   3.734  -3.283  0.00  0.00     0.236 C 
ATOM    160  O   GLY d   1      17.734   3.997  -3.413  0.00  0.00    -0.272 OA
ATOM    161  N   LYS d   1      15.840   3.056  -4.191  0.00  0.00    -0.346 N 
ATOM    162 1H13 LYS d   1      14.870   2.874  -4.028  0.00  0.00     0.163 HD
BRANCH 161 163
ATOM    163  CA  LYS d   1      16.462   2.573  -5.420  0.00  0.00     0.089 C 
ATOM    164 2H13 LYS d   1      17.314   1.929  -5.156  0.00  0.00     0.087 H 
BRANCH 163 165
ATOM    165  C   LYS d   1      16.971   3.742  -6.255  0.00  0.00     0.241 C 
ATOM    166  O   LYS d   1      18.088   3.711  -6.772  0.00  0.00    -0.271 OA
ATOM    167  N   LYS d   1      16.145   4.771  -6.379  0.00  0.00    -0.345 N 
ATOM    168 4H14 LYS d   1      15.250   4.741  -5.934  0.00  0.00     0.163 HD
BRANCH 167 169
ATOM    169  CA  LYS d   1      16.521   5.945  -7.154  0.00  0.00     0.096 C 
ATOM    170 5H14 LYS d   1      16.725   5.634  -8.189  0.00  0.00     0.089 H 
BRANCH 169 171
ATOM    171  C   LYS d   1      17.774   6.595  -6.579  0.00  0.00     0.196 C 
ATOM    172  O   LYS d   1      17.777   6.886  -5.394  0.00  0.00    -0.646 OA
ATOM    173  OXT LYS d   1      18.710   6.800  -7.336  0.00  0.00    -0.646 OA
ENDBRANCH 169 171
BRANCH 169 174
ATOM    174  CB  LYS d   1      15.375   6.961  -7.155  0.00  0.00    -0.037 C 
ATOM    175 6H14 LYS d   1      15.320   7.450  -6.171  0.00  0.00     0.036 H 
ATOM    176 7H14 LYS d   1      14.427   6.442  -7.359  0.00  0.00     0.036 H 
BRANCH 174 177
ATOM    177  CG  LYS d   1      15.621   8.027  -8.245  0.00  0.00    -0.061 C 
ATOM    178 8H14 LYS d   1      16.703   8.196  -8.352  0.00  0.00     0.033 H 
ATOM    179 9H14 LYS d   1      15.130   8.967  -7.954  0.00  0.00     0.033 H 
BRANCH 177 180
ATOM    180  CD  LYS d   1      15.047   7.547  -9.582  0.00  0.00    -0.043 C 
ATOM    181 0H15 LYS d   1      13.973   7.338  -9.466  0.00  0.00     0.035 H 
ATOM    182 1H15 LYS d   1      15.567   6.630  -9.896  0.00  0.00     0.035 H 
BRANCH 180 183
ATOM    183  CE  LYS d   1      15.243   8.629 -10.638  0.00  0.00     0.080 C 
ATOM    184 2H15 LYS d   1      16.317   8.839 -10.754  0.00  0.00     0.075 H 
ATOM    185 3H15 LYS d   1      14.722   9.546 -10.326  0.00  0.00     0.075 H 
BRANCH 183 186
ATOM    186  NZ  LYS d   1      14.685   8.156 -11.935  0.00  0.00    -0.079 N 
ATOM    187 4H15 LYS d   1      14.813   8.869 -12.636  0.00  0.00     0.274 HD
ATOM    188 5H15 LYS d   1      13.701   7.963 -11.827  0.00  0.00     0.274 HD
ATOM    189 6H15 LYS d   1      15.163   7.316 -12.220  0.00  0.00     0.274 HD
ENDBRANCH 183 186
ENDBRANCH 180 183
ENDBRANCH 177 180
ENDBRANCH 174 177
ENDBRANCH 169 174
ENDBRANCH 167 169
ENDBRANCH 163 165
BRANCH 163 190
ATOM    190  CB  LYS d   1      15.459   1.758  -6.228  0.00  0.00    -0.038 C 
ATOM    191 3H13 LYS d   1      14.639   2.410  -6.563  0.00  0.00     0.036 H 
ATOM    192 4H13 LYS d   1      15.052   0.950  -5.602  0.00  0.00     0.036 H 
BRANCH 190 193
ATOM    193  CG  LYS d   1      16.165   1.157  -7.446  0.00  0.00    -0.061 C 
ATOM    194 5H13 LYS d   1      17.050   0.593  -7.117  0.00  0.00     0.033 H 
ATOM    195 6H13 LYS d   1      16.476   1.964  -8.126  0.00  0.00     0.033 H 
BRANCH 193 196
ATOM    196  CD  LYS d   1      15.206   0.223  -8.169  0.00  0.00    -0.043 C 
ATOM    197 7H13 LYS d   1      14.326   0.791  -8.505  0.00  0.00     0.035 H 
ATOM    198 8H13 LYS d   1      14.887  -0.576  -7.484  0.00  0.00     0.035 H 
BRANCH 196 199
ATOM    199  CE  LYS d   1      15.906  -0.397  -9.384  0.00  0.00     0.080 C 
ATOM    200 9H13 LYS d   1      16.798  -0.947  -9.050  0.00  0.00     0.075 H 
ATOM    201 0H14 LYS d   1      16.206   0.401 -10.079  0.00  0.00     0.075 H 
BRANCH 199 202
ATOM    202  NZ  LYS d   1      14.976  -1.335 -10.077  0.00  0.00    -0.079 N 
ATOM    203 1H14 LYS d   1      15.440  -1.740 -10.875  0.00  0.00     0.274 HD
ATOM    204 2H14 LYS d   1      14.158  -0.832 -10.384  0.00  0.00     0.274 HD
ATOM    205 3H14 LYS d   1      14.701  -2.067  -9.441  0.00  0.00     0.274 HD
ENDBRANCH 199 202
ENDBRANCH 196 199
ENDBRANCH 193 196
ENDBRANCH 190 193
ENDBRANCH 163 190
ENDBRANCH 161 163
ENDBRANCH 156 159
ENDBRANCH 154 156
ENDBRANCH 150 152
BRANCH 150 206
ATOM    206  CB  LYS d   1      12.056   6.684  -2.183  0.00  0.00    -0.038 C 
ATOM    207 7H11 LYS d   1      12.184   6.076  -1.275  0.00  0.00     0.036 H 
ATOM    208 8H11 LYS d   1      10.984   6.840  -2.371  0.00  0.00     0.036 H 
BRANCH 206 209
ATOM    209  CG  LYS d   1      12.744   8.035  -1.994  0.00  0.00    -0.061 C 
ATOM    210 9H11 LYS d   1      12.678   8.615  -2.926  0.00  0.00     0.033 H 
ATOM    211 0H12 LYS d   1      13.801   7.876  -1.734  0.00  0.00     0.033 H 
BRANCH 209 212
ATOM    212  CD  LYS d   1      12.052   8.797  -0.870  0.00  0.00    -0.043 C 
ATOM    213 1H12 LYS d   1      12.127   8.219   0.063  0.00  0.00     0.035 H 
ATOM    214 2H12 LYS d   1      10.992   8.943  -1.126  0.00  0.00     0.035 H 
BRANCH 212 215
ATOM    215  CE  LYS d   1      12.722  10.164  -0.678  0.00  0.00     0.080 C 
ATOM    216 3H12 LYS d   1      13.813  10.052  -0.758  0.00  0.00     0.075 H 
ATOM    217 4H12 LYS d   1      12.466  10.562   0.315  0.00  0.00     0.075 H 
BRANCH 215 218
ATOM    218  NZ  LYS d   1      12.240  11.103  -1.729  0.00  0.00    -0.079 N 
ATOM    219 5H12 LYS d   1      12.680  12.002  -1.604  0.00  0.00     0.274 HD
ATOM    220 6H12 LYS d   1      11.240  11.205  -1.655  0.00  0.00     0.274 HD
ATOM    221 7H12 LYS d   1      12.475  10.738  -2.639  0.00  0.00     0.274 HD
ENDBRANCH 215 218
ENDBRANCH 212 215
ENDBRANCH 209 212
ENDBRANCH 206 209
ENDBRANCH 150 206
ENDBRANCH 148 150
ENDBRANCH 144 146
BRANCH 144 222
ATOM    222  CB  LYS d   1      10.173   2.999  -5.616  0.00  0.00    -0.038 C 
ATOM    223 4H10 LYS d   1       9.632   3.809  -5.105  0.00  0.00     0.036 H 
ATOM    224 5H10 LYS d   1       9.537   2.103  -5.658  0.00  0.00     0.036 H 
BRANCH 222 225
ATOM    225  CG  LYS d   1      10.527   3.440  -7.037  0.00  0.00    -0.061 C 
ATOM    226 6H10 LYS d   1      11.153   2.672  -7.515  0.00  0.00     0.033 H 
ATOM    227 7H10 LYS d   1      11.079   4.391  -7.000  0.00  0.00     0.033 H 
BRANCH 225 228
ATOM    228  CD  LYS d   1       9.241   3.627  -7.846  0.00  0.00    -0.043 C 
ATOM    229 8H10 LYS d   1       8.621   4.404  -7.374  0.00  0.00     0.035 H 
ATOM    230 9H10 LYS d   1       8.684   2.679  -7.872  0.00  0.00     0.035 H 
BRANCH 228 231
ATOM    231  CE  LYS d   1       9.591   4.052  -9.273  0.00  0.00     0.080 C 
ATOM    232 0H11 LYS d   1      10.226   3.284  -9.739  0.00  0.00     0.075 H 
ATOM    233 1H11 LYS d   1      10.132   5.010  -9.248  0.00  0.00     0.075 H 
BRANCH 231 234
ATOM    234  NZ  LYS d   1       8.338   4.209 -10.066  0.00  0.00    -0.079 N 
ATOM    235 2H11 LYS d   1       8.569   4.489 -11.007  0.00  0.00     0.274 HD
ATOM    236 3H11 LYS d   1       7.756   4.913  -9.639  0.00  0.00     0.274 HD
ATOM    237 4H11 LYS d   1       7.843   3.332 -10.089  0.00  0.00     0.274 HD
ENDBRANCH 231 234
ENDBRANCH 228 231
ENDBRANCH 225 228
ENDBRANCH 222 225
ENDBRANCH 144 222
ENDBRANCH 142 144
ENDBRANCH 138 140
BRANCH 138 238
ATOM    238  CB  LEU d   1      11.154  -0.374  -1.640  0.00  0.00    -0.035 C 
ATOM    239  H93 LEU d   1      12.034  -1.013  -1.807  0.00  0.00     0.037 H 
ATOM    240  H94 LEU d   1      10.496  -0.419  -2.520  0.00  0.00     0.037 H 
BRANCH 238 241
ATOM    241  CG  LEU d   1      10.389  -0.874  -0.406  0.00  0.00    -0.059 C 
ATOM    242  H95 LEU d   1       9.411  -0.372  -0.361  0.00  0.00     0.038 H 
BRANCH 241 243
ATOM    243  CD1 LEU d   1      10.172  -2.390  -0.506  0.00  0.00    -0.073 C 
ATOM    244  H96 LEU d   1       9.624  -2.741   0.381  0.00  0.00     0.028 H 
ATOM    245  H97 LEU d   1      11.147  -2.897  -0.559  0.00  0.00     0.028 H 
ATOM    246  H98 LEU d   1       9.590  -2.618  -1.411  0.00  0.00     0.028 H 
ENDBRANCH 241 243
BRANCH 241 247
ATOM    247  CD2 LEU d   1      11.179  -0.550   0.867  0.00  0.00    -0.073 C 
ATOM    248  H99 LEU d   1      11.333   0.537   0.936  0.00  0.00     0.028 H 
ATOM    249 0H10 LEU d   1      12.155  -1.057   0.832  0.00  0.00     0.028 H 
ATOM    250 1H10 LEU d   1      10.616  -0.897   1.746  0.00  0.00     0.028 H 
ENDBRANCH 241 247
ENDBRANCH 238 241
ENDBRANCH 138 238
ENDBRANCH 136 138
ENDBRANCH 132 134
BRANCH 132 251
ATOM    251  CB  ARG d   1       9.040   3.064   1.472  0.00  0.00    -0.036 C 
ATOM    252  H80 ARG d   1       8.808   2.017   1.228  0.00  0.00     0.036 H 
ATOM    253  H81 ARG d   1       8.134   3.562   1.849  0.00  0.00     0.036 H 
BRANCH 251 254
ATOM    254  CG  ARG d   1      10.128   3.106   2.549  0.00  0.00    -0.048 C 
ATOM    255  H82 ARG d   1      10.347   4.153   2.807  0.00  0.00     0.035 H 
ATOM    256  H83 ARG d   1      11.040   2.624   2.167  0.00  0.00     0.035 H 
BRANCH 254 257
ATOM    257  CD  ARG d   1       9.646   2.366   3.794  0.00  0.00     0.009 C 
ATOM    258  H84 ARG d   1       9.553   1.294   3.566  0.00  0.00     0.064 H 
ATOM    259  H85 ARG d   1       8.666   2.763   4.096  0.00  0.00     0.064 H 
BRANCH 257 260
ATOM    260  NE  ARG d   1      10.596   2.546   4.886  0.00  0.00    -0.227 N 
ATOM    261  CZ  ARG d   1      10.573   1.759   5.956  0.00  0.00     0.665 C 
ATOM    262  NH1 ARG d   1       9.689   0.804   6.044  0.00  0.00    -0.235 N 
ATOM    263  NH2 ARG d   1      11.434   1.942   6.920  0.00  0.00    -0.235 N 
ATOM    264  H87 ARG d   1       9.671   0.194   6.873  0.00  0.00     0.174 HD
ATOM    265  H88 ARG d   1       9.009   0.660   5.284  0.00  0.00     0.174 HD
ATOM    266  H89 ARG d   1      12.132   2.696   6.851  0.00  0.00     0.174 HD
ATOM    267  H90 ARG d   1      11.415   1.332   7.750  0.00  0.00     0.174 HD
ATOM    268  H86 ARG d   1      11.298   3.297   4.826  0.00  0.00     0.177 HD
ENDBRANCH 257 260
ENDBRANCH 254 257
ENDBRANCH 251 254
ENDBRANCH 132 251
ENDBRANCH 130 132
ENDBRANCH   1 128
BRANCH   1 269
ATOM    269  CB  ARG d   1       6.536   5.586  -2.565  0.00  0.00    -0.036 C 
ATOM    270  H67 ARG d   1       7.146   6.495  -2.455  0.00  0.00     0.036 H 
ATOM    271  H68 ARG d   1       6.006   5.384  -1.622  0.00  0.00     0.036 H 
BRANCH 269 272
ATOM    272  CG  ARG d   1       5.516   5.790  -3.688  0.00  0.00    -0.048 C 
ATOM    273  H69 ARG d   1       4.804   4.952  -3.692  0.00  0.00     0.035 H 
ATOM    274  H70 ARG d   1       6.039   5.831  -4.655  0.00  0.00     0.035 H 
BRANCH 272 275
ATOM    275  CD  ARG d   1       4.758   7.102  -3.463  0.00  0.00     0.009 C 
ATOM    276  H71 ARG d   1       3.756   7.023  -3.909  0.00  0.00     0.064 H 
ATOM    277  H72 ARG d   1       5.309   7.925  -3.942  0.00  0.00     0.064 H 
BRANCH 275 278
ATOM    278  NE  ARG d   1       4.628   7.377  -2.032  0.00  0.00    -0.227 N 
ATOM    279  CZ  ARG d   1       4.577   8.625  -1.570  0.00  0.00     0.665 C 
ATOM    280  NH1 ARG d   1       4.630   9.632  -2.398  0.00  0.00    -0.235 N 
ATOM    281  NH2 ARG d   1       4.472   8.842  -0.287  0.00  0.00    -0.235 N 
ATOM    282  H74 ARG d   1       4.590  10.597  -2.039  0.00  0.00     0.174 HD
ATOM    283  H75 ARG d   1       4.711   9.462  -3.411  0.00  0.00     0.174 HD
ATOM    284  H76 ARG d   1       4.430   8.048   0.368  0.00  0.00     0.174 HD
ATOM    285  H77 ARG d   1       4.431   9.807   0.070  0.00  0.00     0.174 HD
ATOM    286  H73 ARG d   1       4.575   6.590  -1.369  0.00  0.00     0.177 HD
ENDBRANCH 275 278
ENDBRANCH 272 275
ENDBRANCH 269 272
ENDBRANCH   1 269
TORSDOF 80
