REMARK  8 active torsions:
REMARK  status: ('A' for Active; 'I' for Inactive)
REMARK    1  A    between atoms: C2A_15  and  CM2_1 
REMARK    2  A    between atoms: C4A_13  and  N4A_2 
REMARK    3  A    between atoms: C4_10  and  CM4_3 
REMARK    4  A    between atoms: C7_5  and  O1_4 
REMARK    5  A    between atoms: C6_6  and  C7_5 
REMARK    6  A    between atoms: C5_9  and  C6_6 
REMARK    7  A    between atoms: C7A_12  and  N3_11 
REMARK    8  A    between atoms: C5A_18  and  C7A_12 
ROOT
ATOM      1  C2  VIB d   1     -11.657  10.250   6.774  0.00  0.00     0.033 C 
ATOM      2  S1  VIB d   1     -12.241  11.511   5.753  0.00  0.00    -0.143 SA
ATOM      3  C5  VIB d   1     -13.633  10.606   5.355  0.00  0.00     0.013 C 
ATOM      4  C4  VIB d   1     -13.730   9.511   6.170  0.00  0.00     0.017 C 
ATOM      5  N3  VIB d   1     -12.497   9.155   6.734  0.00  0.00    -0.395 N 
ATOM      6  H   VIB d   1     -11.613  10.620   7.798  0.00  0.00     0.080 H 
ATOM      7  H   VIB d   1     -10.669   9.947   6.427  0.00  0.00     0.080 H 
ATOM      8  H   VIB d   1     -14.448  11.301   5.558  0.00  0.00     0.059 H 
ATOM      9  H   VIB d   1     -13.882   8.584   5.617  0.00  0.00     0.073 H 
ENDROOT
BRANCH   5  10
ATOM     10  C7A VIB d   1     -12.128   7.737   6.975  0.00  0.00     0.020 C 
ATOM     11  H   VIB d   1     -12.252   7.275   5.995  0.00  0.00     0.071 H 
ATOM     12  H   VIB d   1     -12.737   7.462   7.836  0.00  0.00     0.071 H 
BRANCH  10  13
ATOM     13  C5A VIB d   1     -10.718   7.310   7.390  0.00  0.00     0.022 A 
ATOM     14  C4A VIB d   1     -10.299   7.285   8.723  0.00  0.00     0.132 A 
ATOM     15  N3A VIB d   1      -9.162   6.666   9.113  0.00  0.00    -0.216 NA
ATOM     16  C2A VIB d   1      -8.388   6.112   8.154  0.00  0.00     0.124 A 
ATOM     17  N1A VIB d   1      -8.682   6.156   6.837  0.00  0.00    -0.245 NA
ATOM     18  C6A VIB d   1      -9.867   6.692   6.472  0.00  0.00     0.015 A 
ATOM     19  H   VIB d   1     -10.169   6.640   5.426  0.00  0.00     0.116 H 
BRANCH  14  20
ATOM     20  N4A VIB d   1     -11.036   7.878   9.697  0.00  0.00    -0.383 N 
ATOM     21  H   VIB d   1     -11.909   8.350   9.460  0.00  0.00     0.157 HD
ATOM     22  H   VIB d   1     -10.717   7.851  10.665  0.00  0.00     0.157 HD
ENDBRANCH  14  20
BRANCH  16  23
ATOM     23  CM2 VIB d   1      -7.150   5.345   8.587  0.00  0.00    -0.019 C 
ATOM     24  H   VIB d   1      -6.485   6.011   9.137  0.00  0.00     0.037 H 
ATOM     25  H   VIB d   1      -7.445   4.514   9.228  0.00  0.00     0.037 H 
ATOM     26  H   VIB d   1      -6.635   4.962   7.706  0.00  0.00     0.037 H 
ENDBRANCH  16  23
ENDBRANCH  10  13
ENDBRANCH   5  10
BRANCH   4  27
ATOM     27  CM4 VIB d   1     -15.034   9.452   6.915  0.00  0.00    -0.056 C 
ATOM     28  H   VIB d   1     -15.136  10.341   7.538  0.00  0.00     0.030 H 
ATOM     29  H   VIB d   1     -15.857   9.410   6.202  0.00  0.00     0.030 H 
ATOM     30  H   VIB d   1     -15.052   8.562   7.544  0.00  0.00     0.030 H 
ENDBRANCH   4  27
BRANCH   3  31
ATOM     31  C6  VIB d   1     -14.256  10.583   3.969  0.00  0.00    -0.032 C 
ATOM     32  H   VIB d   1     -13.632  11.178   3.302  0.00  0.00     0.037 H 
ATOM     33  H   VIB d   1     -14.323   9.546   3.640  0.00  0.00     0.037 H 
BRANCH  31  34
ATOM     34  C7  VIB d   1     -15.671  11.183   3.971  0.00  0.00     0.018 C 
ATOM     35  H   VIB d   1     -16.178  10.938   3.038  0.00  0.00     0.074 H 
ATOM     36  H   VIB d   1     -16.246  10.771   4.800  0.00  0.00     0.074 H 
BRANCH  34  37
ATOM     37  O1  VIB d   1     -15.568  12.601   4.109  0.00  0.00    -0.401 OA
ATOM     38  H   VIB d   1     -16.448  12.986   4.111  0.00  0.00     0.209 HD
ENDBRANCH  34  37
ENDBRANCH  31  34
ENDBRANCH   3  31
TORSDOF 8
