REMARK  12 active torsions:
REMARK  status: ('A' for Active; 'I' for Inactive)
REMARK    1  A    between atoms: C1_1  and  O11_7 
REMARK    2  A    between atoms: C2_2  and  O12_12 
REMARK    3  A    between atoms: C3_3  and  O13_17 
REMARK    4  A    between atoms: C4_4  and  O14_22 
REMARK    5  A    between atoms: C5_5  and  O15_27 
REMARK    6  A    between atoms: C6_6  and  O16_32 
REMARK    7  A    between atoms: O11_7  and  P1_8 
REMARK    8  A    between atoms: O12_12  and  P2_13 
REMARK    9  A    between atoms: O13_17  and  P3_18 
REMARK   10  A    between atoms: O14_22  and  P4_23 
REMARK   11  A    between atoms: O15_27  and  P5_28 
REMARK   12  A    between atoms: O16_32  and  P6_33 
ROOT
ATOM      1  C1  IHP d   1      13.637   2.131 -10.454  0.00  0.00     0.107 C 
ATOM      2  C2  IHP d   1      15.016   1.692 -10.969  0.00  0.00     0.107 C 
ATOM      3  C3  IHP d   1      14.963   0.206 -11.404  0.00  0.00     0.107 C 
ATOM      4  C4  IHP d   1      13.936   0.056 -12.533  0.00  0.00     0.107 C 
ATOM      5  C5  IHP d   1      12.549   0.503 -12.050  0.00  0.00     0.107 C 
ATOM      6  C6  IHP d   1      12.595   1.960 -11.571  0.00  0.00     0.107 C 
ATOM      7  H   IHP d   1      13.384   1.512  -9.593  0.00  0.00     0.092 H 
ATOM      8  H   IHP d   1      15.734   1.821 -10.159  0.00  0.00     0.092 H 
ATOM      9  H   IHP d   1      14.683  -0.409 -10.549  0.00  0.00     0.092 H 
ATOM     10  H   IHP d   1      14.252   0.677 -13.371  0.00  0.00     0.092 H 
ATOM     11  H   IHP d   1      12.250  -0.140 -11.223  0.00  0.00     0.092 H 
ATOM     12  H   IHP d   1      12.892   2.601 -12.401  0.00  0.00     0.092 H 
ENDROOT
BRANCH   1  13
ATOM     13  O11 IHP d   1      13.652   3.508 -10.054  0.00  0.00    -0.272 OA
BRANCH  13  14
ATOM     14  P1  IHP d   1      13.249   3.925  -8.541  0.00  0.00     0.422 P 
ATOM     15  O21 IHP d   1      14.051   3.243  -7.496  0.00  0.00    -0.617 OA
ATOM     16  O31 IHP d   1      11.689   3.583  -8.387  0.00  0.00    -0.617 OA
ATOM     17  O41 IHP d   1      13.378   5.519  -8.447  0.00  0.00    -0.617 OA
ENDBRANCH  13  14
ENDBRANCH   1  13
BRANCH   2  18
ATOM     18  O12 IHP d   1      15.432   2.486 -12.073  0.00  0.00    -0.272 OA
BRANCH  18  19
ATOM     19  P2  IHP d   1      16.783   3.355 -11.991  0.00  0.00     0.422 P 
ATOM     20  O22 IHP d   1      16.973   3.862 -10.608  0.00  0.00    -0.617 OA
ATOM     21  O32 IHP d   1      17.978   2.375 -12.429  0.00  0.00    -0.617 OA
ATOM     22  O42 IHP d   1      16.619   4.535 -13.057  0.00  0.00    -0.617 OA
ENDBRANCH  18  19
ENDBRANCH   2  18
BRANCH   6  23
ATOM     23  O16 IHP d   1      11.299   2.353 -11.122  0.00  0.00    -0.272 OA
BRANCH  23  24
ATOM     24  P6  IHP d   1      10.514   3.566 -11.828  0.00  0.00     0.422 P 
ATOM     25  O26 IHP d   1       9.182   3.802 -11.208  0.00  0.00    -0.617 OA
ATOM     26  O36 IHP d   1      10.394   3.098 -13.362  0.00  0.00    -0.617 OA
ATOM     27  O46 IHP d   1      11.437   4.874 -11.746  0.00  0.00    -0.617 OA
ENDBRANCH  23  24
ENDBRANCH   6  23
BRANCH   3  28
ATOM     28  O13 IHP d   1      16.240  -0.210 -11.885  0.00  0.00    -0.272 OA
BRANCH  28  29
ATOM     29  P3  IHP d   1      17.002  -1.453 -11.199  0.00  0.00     0.422 P 
ATOM     30  O23 IHP d   1      16.117  -2.641 -11.232  0.00  0.00    -0.617 OA
ATOM     31  O33 IHP d   1      17.327  -0.985  -9.695  0.00  0.00    -0.617 OA
ATOM     32  O43 IHP d   1      18.371  -1.716 -11.995  0.00  0.00    -0.617 OA
ENDBRANCH  28  29
ENDBRANCH   3  28
BRANCH   5  33
ATOM     33  O15 IHP d   1      11.605   0.392 -13.109  0.00  0.00    -0.272 OA
BRANCH  33  34
ATOM     34  P5  IHP d   1      10.304  -0.544 -12.961  0.00  0.00     0.422 P 
ATOM     35  O25 IHP d   1      10.719  -1.935 -12.675  0.00  0.00    -0.617 OA
ATOM     36  O35 IHP d   1       9.431   0.069 -11.751  0.00  0.00    -0.617 OA
ATOM     37  O45 IHP d   1       9.470  -0.439 -14.324  0.00  0.00    -0.617 OA
ENDBRANCH  33  34
ENDBRANCH   5  33
BRANCH   4  38
ATOM     38  O14 IHP d   1      13.857  -1.311 -12.940  0.00  0.00    -0.272 OA
BRANCH  38  39
ATOM     39  P4  IHP d   1      14.191  -1.724 -14.462  0.00  0.00     0.422 P 
ATOM     40  O24 IHP d   1      15.544  -1.244 -14.826  0.00  0.00    -0.617 OA
ATOM     41  O34 IHP d   1      13.040  -1.013 -15.331  0.00  0.00    -0.617 OA
ATOM     42  O44 IHP d   1      14.055  -3.319 -14.601  0.00  0.00    -0.617 OA
ENDBRANCH  38  39
ENDBRANCH   4  38
TORSDOF 12
