REMARK  20 active torsions:
REMARK  status: ('A' for Active; 'I' for Inactive)
REMARK    1  A    between atoms: O4_26  and  C1_1 
REMARK    2  A    between atoms: C2_2  and  N2_9 
REMARK    3  A    between atoms: C3_3  and  O3_10 
REMARK    4  A    between atoms: C4_4  and  O4_11 
REMARK    5  A    between atoms: C5_5  and  C6_6 
REMARK    6  A    between atoms: C6_6  and  O6_13 
REMARK    7  A    between atoms: C7_7  and  C8_8 
REMARK       I    between atoms: N2_9  and  C7_7 
REMARK    8  A    between atoms: C1_15  and  O1_24 
REMARK    9  A    between atoms: N2_23  and  C2_16 
REMARK   10  A    between atoms: C3_17  and  O3_25 
REMARK   11  A    between atoms: C4_18  and  O4_26 
REMARK   12  A    between atoms: C5_19  and  C6_20 
REMARK   13  A    between atoms: C6_20  and  O6_28 
REMARK   14  A    between atoms: C7_21  and  C8_22 
REMARK       I    between atoms: C7_21  and  N2_23 
REMARK   15  A    between atoms: O1_24  and  CM_30 
REMARK   16  A    between atoms: O3_25  and  C1_31 
REMARK   17  A    between atoms: C2_32  and  O2_37 
REMARK   18  A    between atoms: C3_33  and  O3_38 
REMARK   19  A    between atoms: C4_34  and  O4_39 
REMARK   20  A    between atoms: C5_35  and  C6_36 
ROOT
ATOM      1  H   NAG d   1      60.957  -7.986  18.489  0.00  0.00     0.132 H 
ATOM      2  H   NAG d   1      59.841 -10.616  17.456  0.00  0.00     0.084 H 
ATOM      3  H   NAG d   1      58.648  -9.005  19.686  0.00  0.00     0.091 H 
ATOM      4  H   NAG d   1      60.238 -11.595  19.993  0.00  0.00     0.091 H 
ATOM      5  H   NAG d   1      60.917  -8.788  20.877  0.00  0.00     0.090 H 
ATOM      6  C1  MAG d   1      61.096  -9.014  18.154  0.00  0.00     0.152 C 
ATOM      7  C2  MAG d   1      59.701  -9.663  17.966  0.00  0.00     0.087 C 
ATOM      8  C3  MAG d   1      59.003  -9.965  19.311  0.00  0.00     0.093 C 
ATOM      9  C4  MAG d   1      59.953 -10.600  20.335  0.00  0.00     0.096 C 
ATOM     10  C5  MAG d   1      61.222  -9.764  20.498  0.00  0.00     0.089 C 
ATOM     11  O5  MAG d   1      61.874  -9.724  19.176  0.00  0.00    -0.349 OA
ENDROOT
BRANCH   9  12
ATOM     12  O4  MAG d   1      59.251 -10.654  21.630  0.00  0.00    -0.348 OA
BRANCH  12  13
ATOM     13  C1  NAG d   1      59.334 -11.957  22.300  0.00  0.00     0.154 C 
ATOM     14  C2  NAG d   1      58.686 -11.870  23.692  0.00  0.00     0.087 C 
ATOM     15  C3  NAG d   1      58.765 -13.237  24.393  0.00  0.00     0.086 C 
ATOM     16  H   NAG d   1      57.642 -11.579  23.574  0.00  0.00     0.084 H 
ATOM     17  C4  NAG d   1      58.151 -14.344  23.521  0.00  0.00     0.089 C 
ATOM     18  H   NAG d   1      59.818 -13.464  24.558  0.00  0.00     0.090 H 
ATOM     19  C5  NAG d   1      58.730 -14.341  22.097  0.00  0.00     0.089 C 
ATOM     20  H   NAG d   1      57.078 -14.169  23.446  0.00  0.00     0.091 H 
ATOM     21  O5  NAG d   1      58.622 -12.976  21.527  0.00  0.00    -0.349 OA
ATOM     22  H   NAG d   1      59.767 -14.667  22.174  0.00  0.00     0.090 H 
ATOM     23  H   NAG d   1      60.386 -12.228  22.387  0.00  0.00     0.132 H 
BRANCH  14  24
ATOM     24  N2  NAG d   1      59.384 -10.873  24.508  0.00  0.00    -0.349 N 
ATOM     25  C7  NAG d   1      58.893  -9.676  24.805  0.00  0.00     0.214 C 
ATOM     26  O7  NAG d   1      57.779  -9.303  24.443  0.00  0.00    -0.274 OA
ATOM     27  H   NAG d   1      60.306 -11.114  24.871  0.00  0.00     0.163 HD
BRANCH  25  28
ATOM     28  C8  NAG d   1      59.823  -8.793  25.644  0.00  0.00    -0.003 C 
ATOM     29  H   NAG d   1      60.043  -7.877  25.097  0.00  0.00     0.040 H 
ATOM     30  H   NAG d   1      59.335  -8.546  26.587  0.00  0.00     0.040 H 
ATOM     31  H   NAG d   1      60.750  -9.330  25.843  0.00  0.00     0.040 H 
ENDBRANCH  25  28
ENDBRANCH  14  24
BRANCH  15  32
ATOM     32  O3  NAG d   1      58.067 -13.190  25.668  0.00  0.00    -0.391 OA
ATOM     33  H   NAG d   1      58.448 -12.499  26.215  0.00  0.00     0.210 HD
ENDBRANCH  15  32
BRANCH  17  34
ATOM     34  O4  NAG d   1      58.442 -15.617  24.139  0.00  0.00    -0.390 OA
ATOM     35  H   NAG d   1      58.084 -15.628  25.030  0.00  0.00     0.210 HD
ENDBRANCH  17  34
BRANCH  19  36
ATOM     36  C6  NAG d   1      57.987 -15.296  21.162  0.00  0.00     0.043 C 
ATOM     37  H   NAG d   1      56.912 -15.145  21.257  0.00  0.00     0.078 H 
ATOM     38  H   NAG d   1      58.219 -16.328  21.425  0.00  0.00     0.078 H 
BRANCH  36  39
ATOM     39  O6  NAG d   1      58.402 -15.031  19.804  0.00  0.00    -0.398 OA
ATOM     40  H   NAG d   1      58.191 -14.122  19.578  0.00  0.00     0.209 HD
ENDBRANCH  36  39
ENDBRANCH  19  36
ENDBRANCH  12  13
ENDBRANCH   9  12
BRANCH   8  41
ATOM     41  O3  MAG d   1      57.891 -10.923  19.112  0.00  0.00    -0.348 OA
BRANCH  41  42
ATOM     42  C1  FUC d   1      56.567 -10.368  18.782  0.00  0.00     0.159 C 
ATOM     43  C2  FUC d   1      55.609 -11.518  18.375  0.00  0.00     0.110 C 
ATOM     44  C3  FUC d   1      55.279 -12.393  19.596  0.00  0.00     0.092 C 
ATOM     45  H   NAG d   1      54.697 -11.068  17.983  0.00  0.00     0.094 H 
ATOM     46  C4  FUC d   1      54.696 -11.553  20.732  0.00  0.00     0.087 C 
ATOM     47  H   NAG d   1      56.211 -12.856  19.922  0.00  0.00     0.091 H 
ATOM     48  C5  FUC d   1      55.690 -10.438  21.113  0.00  0.00     0.065 C 
ATOM     49  H   NAG d   1      54.539 -12.160  21.624  0.00  0.00     0.091 H 
ATOM     50  O5  FUC d   1      56.014  -9.606  19.927  0.00  0.00    -0.351 OA
ATOM     51  H   NAG d   1      56.574 -10.963  21.476  0.00  0.00     0.086 H 
ATOM     52  H   NAG d   1      56.672  -9.678  17.944  0.00  0.00     0.133 H 
BRANCH  43  53
ATOM     53  O2  FUC d   1      56.214 -12.360  17.344  0.00  0.00    -0.388 OA
ATOM     54  H   NAG d   1      57.017 -12.757  17.688  0.00  0.00     0.210 HD
ENDBRANCH  43  53
BRANCH  44  55
ATOM     55  O3  FUC d   1      54.311 -13.413  19.246  0.00  0.00    -0.390 OA
ATOM     56  H   NAG d   1      53.495 -12.994  18.963  0.00  0.00     0.210 HD
ENDBRANCH  44  55
BRANCH  46  57
ATOM     57  O4  FUC d   1      53.408 -11.032  20.316  0.00  0.00    -0.390 OA
ATOM     58  H   NAG d   1      53.525 -10.466  19.550  0.00  0.00     0.210 HD
ENDBRANCH  46  57
BRANCH  48  59
ATOM     59  C6  FUC d   1      55.239  -9.535  22.256  0.00  0.00    -0.050 C 
ATOM     60  H   NAG d   1      54.306  -9.042  21.982  0.00  0.00     0.031 H 
ATOM     61  H   NAG d   1      55.084 -10.136  23.152  0.00  0.00     0.031 H 
ATOM     62  H   NAG d   1      56.005  -8.784  22.448  0.00  0.00     0.031 H 
ENDBRANCH  48  59
ENDBRANCH  41  42
ENDBRANCH   8  41
BRANCH  10  63
ATOM     63  C6  MAG d   1      62.232 -10.297  21.519  0.00  0.00     0.043 C 
ATOM     64  H   NAG d   1      62.580 -11.284  21.213  0.00  0.00     0.078 H 
ATOM     65  H   NAG d   1      61.759 -10.379  22.498  0.00  0.00     0.078 H 
BRANCH  63  66
ATOM     66  O6  MAG d   1      63.347  -9.386  21.590  0.00  0.00    -0.398 OA
ATOM     67  H   NAG d   1      63.761  -9.321  20.726  0.00  0.00     0.209 HD
ENDBRANCH  63  66
ENDBRANCH  10  63
BRANCH   7  68
ATOM     68  N2  MAG d   1      58.862  -8.759  17.168  0.00  0.00    -0.349 N 
ATOM     69  C7  MAG d   1      58.555  -8.927  15.885  0.00  0.00     0.214 C 
ATOM     70  O7  MAG d   1      58.861  -9.947  15.269  0.00  0.00    -0.274 OA
ATOM     71  H   NAG d   1      58.484  -7.935  17.636  0.00  0.00     0.163 HD
BRANCH  69  72
ATOM     72  C8  MAG d   1      57.793  -7.755  15.219  0.00  0.00    -0.003 C 
ATOM     73  H   NAG d   1      58.381  -7.367  14.387  0.00  0.00     0.040 H 
ATOM     74  H   NAG d   1      56.831  -8.111  14.850  0.00  0.00     0.040 H 
ATOM     75  H   NAG d   1      57.632  -6.965  15.952  0.00  0.00     0.040 H 
ENDBRANCH  69  72
ENDBRANCH   7  68
BRANCH   6  76
ATOM     76  O1  MAG d   1      61.819  -9.019  16.875  0.00  0.00    -0.364 OA
BRANCH  76  77
ATOM     77  CM  MAG d   1      63.145  -8.388  16.930  0.00  0.00     0.007 C 
ATOM     78  H   NAG d   1      63.038  -7.347  17.234  0.00  0.00     0.066 H 
ATOM     79  H   NAG d   1      63.768  -8.916  17.652  0.00  0.00     0.066 H 
ATOM     80  H   NAG d   1      63.609  -8.435  15.945  0.00  0.00     0.066 H 
ENDBRANCH  76  77
ENDBRANCH   6  76
TORSDOF 20
