REMARK  1 active torsions:
REMARK  status: ('A' for Active; 'I' for Inactive)
REMARK    1  A    between atoms: C14_16  and  S15_17 
ROOT
ATOM      1  C1  AQN d   1       2.018   1.593   7.932  0.00  0.00    -0.045 A 
ATOM      2  C2  AQN d   1       0.901   1.912   8.710  0.00  0.00     0.031 A 
ATOM      3  C3  AQN d   1      -0.441   2.161   8.059  0.00  0.00     0.194 A 
ATOM      4  O3  AQN d   1      -0.539   2.155   6.843  0.00  0.00    -0.287 OA
ATOM      5  C4  AQN d   1      -1.661   2.425   8.913  0.00  0.00     0.029 A 
ATOM      6  C5  AQN d   1      -2.909   2.628   8.319  0.00  0.00    -0.068 A 
ATOM      7  C6  AQN d   1      -4.038   2.845   9.114  0.00  0.00    -0.082 A 
ATOM      8  C7  AQN d   1      -3.917   2.868  10.506  0.00  0.00    -0.082 A 
ATOM      9  C8  AQN d   1      -2.669   2.679  11.100  0.00  0.00    -0.068 A 
ATOM     10  C9  AQN d   1      -1.542   2.463  10.305  0.00  0.00     0.029 A 
ATOM     11  C10 AQN d   1      -0.189   2.272  10.951  0.00  0.00     0.194 A 
ATOM     12  O10 AQN d   1      -0.082   2.330  12.166  0.00  0.00    -0.287 OA
ATOM     13  C11 AQN d   1       1.032   2.011  10.097  0.00  0.00     0.029 A 
ATOM     14  C12 AQN d   1       2.290   1.865  10.687  0.00  0.00    -0.067 A 
ATOM     15  C13 AQN d   1       3.418   1.645   9.893  0.00  0.00    -0.058 A 
ATOM     16  C14 AQN d   1       3.287   1.518   8.510  0.00  0.00     0.081 A 
ATOM     17  H   AQN d   1       1.897   1.401   6.866  0.00  0.00     0.087 H 
ATOM     18  H   AQN d   1      -3.003   2.617   7.233  0.00  0.00     0.085 H 
ATOM     19  H   AQN d   1      -5.012   2.996   8.649  0.00  0.00     0.083 H 
ATOM     20  H   AQN d   1      -4.797   3.034  11.127  0.00  0.00     0.083 H 
ATOM     21  H   AQN d   1      -2.574   2.700  12.186  0.00  0.00     0.085 H 
ATOM     22  H   AQN d   1       2.392   1.923  11.771  0.00  0.00     0.085 H 
ATOM     23  H   AQN d   1       4.403   1.572  10.355  0.00  0.00     0.086 H 
ENDROOT
BRANCH  16  24
ATOM     24  S15 AQN d   1       4.733   1.315   7.494  0.00  0.00     0.137 S 
ATOM     25  OS1 AQN d   1       5.756   0.626   8.256  0.00  0.00    -0.591 OA
ATOM     26  OS2 AQN d   1       4.312   0.780   6.222  0.00  0.00    -0.591 OA
ATOM     27  OS3 AQN d   1       5.174   2.735   7.284  0.00  0.00    -0.591 OA
ENDBRANCH  16  24
TORSDOF 1
