REMARK  16 active torsions:
REMARK  status: ('A' for Active; 'I' for Inactive)
REMARK    1  A    between atoms: C1_1  and  C2_4 
REMARK    2  A    between atoms: C2_4  and  C3_5 
REMARK    3  A    between atoms: C3_5  and  C4_6 
REMARK    4  A    between atoms: C4_6  and  C5_7 
REMARK    5  A    between atoms: C5_7  and  C6_8 
REMARK    6  A    between atoms: C6_8  and  C7_9 
REMARK    7  A    between atoms: C7_9  and  C8_10 
REMARK    8  A    between atoms: C8_10  and  C9_11 
REMARK    9  A    between atoms: C10_12  and  C11_13 
REMARK   10  A    between atoms: C11_13  and  C12_14 
REMARK   11  A    between atoms: C12_14  and  C13_15 
REMARK   12  A    between atoms: C13_15  and  C14_16 
REMARK   13  A    between atoms: C14_16  and  C15_17 
REMARK   14  A    between atoms: C15_17  and  C16_18 
REMARK   15  A    between atoms: C16_18  and  C17_19 
REMARK   16  A    between atoms: C17_19  and  C18_20 
ROOT
ATOM      1  C9  OLA d   1      -0.355   8.482   7.518  0.00  0.00    -0.107 C 
ATOM      2  C10 OLA d   1      -0.367   7.783   6.377  0.00  0.00    -0.107 C 
ATOM      3  H15 OLA d   1      -0.937   9.402   7.526  0.00  0.00     0.076 H 
ATOM      4  H16 OLA d   1      -0.954   8.200   5.560  0.00  0.00     0.076 H 
ENDROOT
BRANCH   2   5
ATOM      5  C11 OLA d   1       0.346   6.473   6.094  0.00  0.00    -0.050 C 
ATOM      6  H17 OLA d   1       0.071   5.745   6.872  0.00  0.00     0.038 H 
ATOM      7  H18 OLA d   1       1.432   6.648   6.123  0.00  0.00     0.038 H 
BRANCH   5   8
ATOM      8  C12 OLA d   1      -0.025   5.890   4.718  0.00  0.00    -0.062 C 
ATOM      9  H19 OLA d   1       0.279   6.611   3.945  0.00  0.00     0.033 H 
ATOM     10  H20 OLA d   1      -1.116   5.754   4.684  0.00  0.00     0.033 H 
BRANCH   8  11
ATOM     11  C13 OLA d   1       0.639   4.537   4.403  0.00  0.00    -0.065 C 
ATOM     12  H21 OLA d   1       0.241   3.770   5.084  0.00  0.00     0.033 H 
ATOM     13  H22 OLA d   1       1.726   4.625   4.544  0.00  0.00     0.033 H 
BRANCH  11  14
ATOM     14  C14 OLA d   1       0.348   4.124   2.949  0.00  0.00    -0.065 C 
ATOM     15  H23 OLA d   1       0.760   4.895   2.282  0.00  0.00     0.033 H 
ATOM     16  H24 OLA d   1      -0.743   4.069   2.817  0.00  0.00     0.033 H 
BRANCH  14  17
ATOM     17  C15 OLA d   1       0.951   2.768   2.549  0.00  0.00    -0.065 C 
ATOM     18  H25 OLA d   1       0.516   1.982   3.183  0.00  0.00     0.033 H 
ATOM     19  H26 OLA d   1       2.040   2.801   2.701  0.00  0.00     0.033 H 
BRANCH  17  20
ATOM     20  C16 OLA d   1       0.660   2.439   1.070  0.00  0.00    -0.065 C 
ATOM     21  H27 OLA d   1       0.974   3.296   0.456  0.00  0.00     0.033 H 
ATOM     22  H28 OLA d   1      -0.423   2.283   0.957  0.00  0.00     0.033 H 
BRANCH  20  23
ATOM     23  C17 OLA d   1       1.386   1.184   0.555  0.00  0.00    -0.069 C 
ATOM     24  H29 OLA d   1       2.411   1.189   0.954  0.00  0.00     0.032 H 
ATOM     25  H30 OLA d   1       1.420   1.230  -0.543  0.00  0.00     0.032 H 
BRANCH  23  26
ATOM     26  C18 OLA d   1       0.715  -0.135   0.963  0.00  0.00    -0.077 C 
ATOM     27  H31 OLA d   1       1.291  -0.980   0.558  0.00  0.00     0.027 H 
ATOM     28  H32 OLA d   1      -0.309  -0.165   0.563  0.00  0.00     0.027 H 
ATOM     29  H33 OLA d   1       0.682  -0.206   2.060  0.00  0.00     0.027 H 
ENDBRANCH  23  26
ENDBRANCH  20  23
ENDBRANCH  17  20
ENDBRANCH  14  17
ENDBRANCH  11  14
ENDBRANCH   8  11
ENDBRANCH   5   8
ENDBRANCH   2   5
BRANCH   1  30
ATOM     30  C8  OLA d   1       0.375   8.140   8.799  0.00  0.00    -0.050 C 
ATOM     31  H13 OLA d   1      -0.254   8.426   9.655  0.00  0.00     0.038 H 
ATOM     32  H14 OLA d   1       0.560   7.056   8.826  0.00  0.00     0.038 H 
BRANCH  30  33
ATOM     33  C7  OLA d   1       1.722   8.879   8.899  0.00  0.00    -0.062 C 
ATOM     34  H11 OLA d   1       2.366   8.562   8.065  0.00  0.00     0.033 H 
ATOM     35  H12 OLA d   1       1.541   9.962   8.832  0.00  0.00     0.033 H 
BRANCH  33  36
ATOM     36  C6  OLA d   1       2.438   8.574  10.226  0.00  0.00    -0.065 C 
ATOM     37  H9  OLA d   1       1.777   8.861  11.057  0.00  0.00     0.033 H 
ATOM     38  H10 OLA d   1       2.642   7.494  10.276  0.00  0.00     0.033 H 
BRANCH  36  39
ATOM     39  C5  OLA d   1       3.770   9.335  10.370  0.00  0.00    -0.065 C 
ATOM     40  H7  OLA d   1       4.405   9.087   9.507  0.00  0.00     0.033 H 
ATOM     41  H8  OLA d   1       3.554  10.414  10.368  0.00  0.00     0.033 H 
BRANCH  39  42
ATOM     42  C4  OLA d   1       4.550   9.000  11.656  0.00  0.00    -0.065 C 
ATOM     43  H5  OLA d   1       4.609   7.906  11.750  0.00  0.00     0.033 H 
ATOM     44  H6  OLA d   1       5.564   9.415  11.563  0.00  0.00     0.033 H 
BRANCH  42  45
ATOM     45  C3  OLA d   1       3.912   9.562  12.939  0.00  0.00    -0.056 C 
ATOM     46  H3  OLA d   1       3.842  10.655  12.836  0.00  0.00     0.033 H 
ATOM     47  H4  OLA d   1       2.902   9.137  13.034  0.00  0.00     0.033 H 
BRANCH  45  48
ATOM     48  C2  OLA d   1       4.689   9.250  14.238  0.00  0.00     0.016 C 
ATOM     49  H1  OLA d   1       3.995   9.372  15.083  0.00  0.00     0.049 H 
ATOM     50  H2  OLA d   1       5.024   8.204  14.187  0.00  0.00     0.049 H 
BRANCH  48  51
ATOM     51  C1  OLA d   1       5.911  10.118  14.509  0.00  0.00     0.172 C 
ATOM     52  O1  OLA d   1       5.782  11.103  15.270  0.00  0.00    -0.648 OA
ATOM     53  O2  OLA d   1       6.965   9.899  13.873  0.00  0.00    -0.648 OA
ENDBRANCH  48  51
ENDBRANCH  45  48
ENDBRANCH  42  45
ENDBRANCH  39  42
ENDBRANCH  36  39
ENDBRANCH  33  36
ENDBRANCH  30  33
ENDBRANCH   1  30
TORSDOF 16
