REMARK  10 active torsions:
REMARK  status: ('A' for Active; 'I' for Inactive)
REMARK    1  A    between atoms: C1_1  and  O1_2 
REMARK    2  A    between atoms: O1_2  and  P1_13 
REMARK    3  A    between atoms: C2_3  and  O2_4 
REMARK    4  A    between atoms: C3_5  and  O3_6 
REMARK    5  A    between atoms: O3_6  and  P3_17 
REMARK    6  A    between atoms: C4_7  and  O4_8 
REMARK    7  A    between atoms: O4_8  and  P4_21 
REMARK    8  A    between atoms: C5_9  and  O5_10 
REMARK    9  A    between atoms: O5_10  and  P5_25 
REMARK   10  A    between atoms: C6_11  and  O6_12 
ROOT
ATOM      1  C1  4IP d   1     -14.957   4.583  -0.192  0.00  0.00     0.106 C 
ATOM      2  C2  4IP d   1     -13.533   5.000  -0.575  0.00  0.00     0.091 C 
ATOM      3  C3  4IP d   1     -12.604   3.784  -0.585  0.00  0.00     0.106 C 
ATOM      4  C4  4IP d   1     -13.125   2.728  -1.561  0.00  0.00     0.107 C 
ATOM      5  C5  4IP d   1     -14.538   2.296  -1.160  0.00  0.00     0.106 C 
ATOM      6  C6  4IP d   1     -15.478   3.506  -1.150  0.00  0.00     0.091 C 
ATOM      7  H   4IP d   1     -14.949   4.179   0.820  0.00  0.00     0.092 H 
ATOM      8  H   4IP d   1     -13.170   5.720   0.159  0.00  0.00     0.091 H 
ATOM      9  H   4IP d   1     -12.570   3.359   0.418  0.00  0.00     0.092 H 
ATOM     10  H   4IP d   1     -12.462   1.863  -1.536  0.00  0.00     0.092 H 
ATOM     11  H   4IP d   1     -14.503   1.865  -0.160  0.00  0.00     0.092 H 
ATOM     12  H   4IP d   1     -15.526   3.922  -2.156  0.00  0.00     0.091 H 
ENDROOT
BRANCH   1  13
ATOM     13  O1  4IP d   1     -15.812   5.731  -0.267  0.00  0.00    -0.272 OA
BRANCH  13  14
ATOM     14  P1  4IP d   1     -17.209   5.762   0.537  0.00  0.00     0.422 P 
ATOM     15  O1P 4IP d   1     -18.317   5.114  -0.199  0.00  0.00    -0.617 OA
ATOM     16  O2P 4IP d   1     -17.501   7.313   0.852  0.00  0.00    -0.617 OA
ATOM     17  O3P 4IP d   1     -16.917   5.072   1.961  0.00  0.00    -0.617 OA
ENDBRANCH  13  14
ENDBRANCH   1  13
BRANCH   2  18
ATOM     18  O2  4IP d   1     -13.545   5.589  -1.879  0.00  0.00    -0.390 OA
ATOM     19  H   4IP d   1     -13.874   4.949  -2.515  0.00  0.00     0.210 HD
ENDBRANCH   2  18
BRANCH   6  20
ATOM     20  O6  4IP d   1     -16.779   3.089  -0.726  0.00  0.00    -0.390 OA
ATOM     21  H   4IP d   1     -17.115   2.425  -1.333  0.00  0.00     0.210 HD
ENDBRANCH   6  20
BRANCH   3  22
ATOM     22  O3  4IP d   1     -11.290   4.189  -0.989  0.00  0.00    -0.272 OA
BRANCH  22  23
ATOM     23  P3  4IP d   1     -10.048   3.179  -0.806  0.00  0.00     0.422 P 
ATOM     24  O4P 4IP d   1      -9.881   2.259  -1.954  0.00  0.00    -0.617 OA
ATOM     25  O5P 4IP d   1     -10.311   2.404   0.581  0.00  0.00    -0.617 OA
ATOM     26  O6P 4IP d   1      -8.756   4.106  -0.553  0.00  0.00    -0.617 OA
ENDBRANCH  22  23
ENDBRANCH   3  22
BRANCH   5  27
ATOM     27  O5  4IP d   1     -15.026   1.318  -2.083  0.00  0.00    -0.272 OA
BRANCH  27  28
ATOM     28  P5  4IP d   1     -16.468   0.640  -1.850  0.00  0.00     0.422 P 
ATOM     29  OPF 4IP d   1     -17.569   1.403  -2.478  0.00  0.00    -0.617 OA
ATOM     30  OPG 4IP d   1     -16.639   0.499  -0.255  0.00  0.00    -0.617 OA
ATOM     31  OPH 4IP d   1     -16.347  -0.863  -2.414  0.00  0.00    -0.617 OA
ENDBRANCH  27  28
ENDBRANCH   5  27
BRANCH   4  32
ATOM     32  O4  4IP d   1     -13.160   3.276  -2.882  0.00  0.00    -0.272 OA
BRANCH  32  33
ATOM     33  P4  4IP d   1     -13.165   2.298  -4.162  0.00  0.00     0.422 P 
ATOM     34  O7P 4IP d   1     -12.585   2.929  -5.368  0.00  0.00    -0.617 OA
ATOM     35  O8P 4IP d   1     -14.697   1.847  -4.370  0.00  0.00    -0.617 OA
ATOM     36  O9P 4IP d   1     -12.373   0.972  -3.709  0.00  0.00    -0.617 OA
ENDBRANCH  32  33
ENDBRANCH   4  32
TORSDOF 10
