REMARK WARNING: 32 MAX_TORS EXCEEDED!!!
REMARK  92 active torsions:
REMARK  status: ('A' for Active; 'I' for Inactive)
REMARK    1  A    between atoms: N_1  and  CA_2 
REMARK    2  A    between atoms: CA_2  and  C_3 
REMARK    3  A    between atoms: CA_2  and  CB_5 
REMARK       I    between atoms: C_3  and  N_9 
REMARK    4  A    between atoms: CB_5  and  CG_6 
REMARK    5  A    between atoms: CG_6  and  CD1_7 
REMARK    6  A    between atoms: CG_6  and  CD2_8 
REMARK    7  A    between atoms: N_9  and  CA_10 
REMARK    8  A    between atoms: CA_10  and  C_11 
REMARK    9  A    between atoms: CA_10  and  CB_13 
REMARK       I    between atoms: C_11  and  N_18 
REMARK   10  A    between atoms: CB_13  and  CG_14 
REMARK   11  A    between atoms: CG_14  and  CD_15 
REMARK   12  A    between atoms: CD_15  and  CE_16 
REMARK   13  A    between atoms: CE_16  and  NZ_17 
REMARK   14  A    between atoms: N_18  and  CA_19 
REMARK   15  A    between atoms: CA_19  and  C_20 
REMARK   16  A    between atoms: CA_19  and  CB_22 
REMARK       I    between atoms: C_20  and  N_25 
REMARK   17  A    between atoms: CB_22  and  CG1_23 
REMARK   18  A    between atoms: CB_22  and  CG2_24 
REMARK   19  A    between atoms: N_25  and  CA_26 
REMARK   20  A    between atoms: CA_26  and  C_27 
REMARK   21  A    between atoms: CA_26  and  CB_29 
REMARK       I    between atoms: C_27  and  N_33 
REMARK   22  A    between atoms: CB_29  and  CG_30 
REMARK   23  A    between atoms: CG_30  and  CD1_31 
REMARK   24  A    between atoms: CG_30  and  CD2_32 
REMARK   25  A    between atoms: N_33  and  CA_34 
REMARK   26  A    between atoms: CA_34  and  C_35 
REMARK   27  A    between atoms: CA_34  and  CB_37 
REMARK       I    between atoms: C_35  and  N_40 
REMARK   28  A    between atoms: CB_37  and  CG1_38 
REMARK   29  A    between atoms: CB_37  and  CG2_39 
REMARK   30  A    between atoms: N_40  and  CA_41 
REMARK   31  A    between atoms: CA_41  and  C_42 
REMARK   32  A    between atoms: CA_41  and  CB_44 
REMARK       I    between atoms: C_42  and  N_49 
REMARK   33  A    between atoms: CB_44  and  CG_45 
REMARK   34  A    between atoms: CG_45  and  CD_46 
REMARK   35  A    between atoms: CD_46  and  CE_47 
REMARK   36  A    between atoms: CE_47  and  NZ_48 
REMARK   37  A    between atoms: N_49  and  CA_50 
REMARK   38  A    between atoms: CA_50  and  C_51 
REMARK   39  A    between atoms: CA_50  and  CB_53 
REMARK       I    between atoms: C_51  and  N_54 
REMARK   40  A    between atoms: N_54  and  CA_55 
REMARK   41  A    between atoms: CA_55  and  C_56 
REMARK   42  A    between atoms: CA_55  and  CB_58 
REMARK       I    between atoms: C_56  and  N_61 
REMARK   43  A    between atoms: CB_58  and  CG1_59 
REMARK   44  A    between atoms: CB_58  and  CG2_60 
REMARK   45  A    between atoms: N_61  and  CA_62 
REMARK   46  A    between atoms: CA_62  and  C_63 
REMARK   47  A    between atoms: CA_62  and  CB_65 
REMARK       I    between atoms: C_63  and  N_69 
REMARK   48  A    between atoms: CB_65  and  CG_66 
REMARK   49  A    between atoms: CG_66  and  CD1_67 
REMARK   50  A    between atoms: CG_66  and  CD2_68 
REMARK   51  A    between atoms: N_69  and  CA_70 
REMARK   52  A    between atoms: CA_70  and  C_71 
REMARK   53  A    between atoms: CA_70  and  CB_73 
REMARK       I    between atoms: C_71  and  N_80 
REMARK   54  A    between atoms: CB_73  and  CG_74 
REMARK   55  A    between atoms: N_80  and  CA_81 
REMARK   56  A    between atoms: CA_81  and  C_82 
REMARK   57  A    between atoms: CA_81  and  CB_84 
REMARK       I    between atoms: C_82  and  N_85 
REMARK   58  A    between atoms: N_85  and  CA_86 
REMARK   59  A    between atoms: CA_86  and  C_87 
REMARK   60  A    between atoms: CA_86  and  CB_89 
REMARK       I    between atoms: C_87  and  N_91 
REMARK   61  A    between atoms: CB_89  and  SG_90 
REMARK   62  A    between atoms: N_91  and  CA_92 
REMARK   63  A    between atoms: CA_92  and  C_93 
REMARK   64  A    between atoms: CA_92  and  CB_95 
REMARK       I    between atoms: C_93  and  N_99 
REMARK   65  A    between atoms: CB_95  and  CG_96 
REMARK   66  A    between atoms: CG_96  and  SD_97 
REMARK   67  A    between atoms: SD_97  and  CE_98 
REMARK   68  A    between atoms: N_99  and  CA_100 
REMARK   69  A    between atoms: CA_100  and  C_101 
REMARK   70  A    between atoms: CA_100  and  CB_103 
REMARK       I    between atoms: C_101  and  N_107 
REMARK   71  A    between atoms: CB_103  and  CG_104 
REMARK   72  A    between atoms: CG_104  and  CD1_105 
REMARK   73  A    between atoms: CG_104  and  CD2_106 
REMARK   74  A    between atoms: N_107  and  CA_108 
REMARK   75  A    between atoms: CA_108  and  C_109 
REMARK   76  A    between atoms: CA_108  and  CB_111 
REMARK       I    between atoms: C_109  and  N_115 
REMARK   77  A    between atoms: CB_111  and  CG_112 
REMARK   78  A    between atoms: CG_112  and  SD_113 
REMARK   79  A    between atoms: SD_113  and  CE_114 
REMARK   80  A    between atoms: N_115  and  CA_116 
REMARK   81  A    between atoms: CA_116  and  C_117 
REMARK   82  A    between atoms: CA_116  and  CB_119 
REMARK       I    between atoms: C_117  and  N_126 
REMARK   83  A    between atoms: CB_119  and  CG_120 
REMARK   84  A    between atoms: CG_120  and  CD_121 
REMARK   85  A    between atoms: CD_121  and  NE_122 
REMARK       I    between atoms: NE_122  and  CZ_123 
REMARK       I    between atoms: CZ_123  and  NH1_124 
REMARK   86  A    between atoms: N_126  and  CA_127 
REMARK   87  A    between atoms: CA_127  and  C_128 
REMARK   88  A    between atoms: CA_127  and  CB_130 
REMARK   89  A    between atoms: CB_130  and  CG_131 
REMARK   90  A    between atoms: CG_131  and  CD_132 
REMARK   91  A    between atoms: CD_132  and  CE_133 
REMARK   92  A    between atoms: CE_133  and  NZ_134 
ROOT
ATOM      1  CA  LEU d   1      -2.666  -3.230   0.605  0.00  0.00     0.089 C 
ATOM      2  H   LEU d   1      -2.684  -3.913   1.455  0.00  0.00     0.087 H 
ENDROOT
BRANCH   1   3
ATOM      3  N   LEU d   1      -1.507  -2.337   0.795  0.00  0.00    -0.346 N 
ATOM      4  C   VAL d   1      -0.267  -2.796   1.024  0.00  0.00     0.241 C 
ATOM      5  O   VAL d   1       0.009  -3.997   1.089  0.00  0.00    -0.271 OA
ATOM      6  H   LEU d   1      -1.654  -1.329   0.750  0.00  0.00     0.163 HD
BRANCH   4   7
ATOM      7  CA  VAL d   1       0.838  -1.737   1.205  0.00  0.00     0.092 C 
ATOM      8  H   VAL d   1       1.790  -2.163   0.890  0.00  0.00     0.088 H 
BRANCH   7   9
ATOM      9  N   VAL d   1       0.605  -0.560   0.344  0.00  0.00    -0.346 N 
ATOM     10  C   ALA d   1       0.843  -0.570  -0.976  0.00  0.00     0.240 C 
ATOM     11  O   ALA d   1       1.265  -1.560  -1.581  0.00  0.00    -0.271 OA
ATOM     12  H   VAL d   1       0.249   0.295   0.770  0.00  0.00     0.163 HD
BRANCH  10  13
ATOM     13  CA  ALA d   1       0.561   0.735  -1.731  0.00  0.00     0.086 C 
ATOM     14  H   ALA d   1       0.275   0.458  -2.746  0.00  0.00     0.086 H 
BRANCH  13  15
ATOM     15  N   ALA d   1      -0.562   1.496  -1.158  0.00  0.00    -0.346 N 
ATOM     16  C   LYS d   1      -1.842   1.107  -1.271  0.00  0.00     0.241 C 
ATOM     17  O   LYS d   1      -2.187   0.074  -1.850  0.00  0.00    -0.271 OA
ATOM     18  H   ALA d   1      -0.358   2.358  -0.652  0.00  0.00     0.163 HD
BRANCH  16  19
ATOM     19  CA  LYS d   1      -2.891   2.023  -0.625  0.00  0.00     0.089 C 
ATOM     20  H   LYS d   1      -3.700   1.395  -0.252  0.00  0.00     0.087 H 
BRANCH  19  21
ATOM     21  N   LYS d   1      -2.348   2.760   0.528  0.00  0.00    -0.346 N 
ATOM     22  C   VAL d   1      -2.150   2.192   1.727  0.00  0.00     0.241 C 
ATOM     23  O   VAL d   1      -2.404   1.008   1.969  0.00  0.00    -0.271 OA
ATOM     24  H   LYS d   1      -2.112   3.745   0.410  0.00  0.00     0.163 HD
BRANCH  22  25
ATOM     25  CA  VAL d   1      -1.576   3.108   2.825  0.00  0.00     0.092 C 
ATOM     26  H   VAL d   1      -0.978   2.511   3.514  0.00  0.00     0.088 H 
BRANCH  25  27
ATOM     27  N   VAL d   1      -0.681   4.125   2.242  0.00  0.00    -0.346 N 
ATOM     28  C   LEU d   1       0.593   3.864   1.904  0.00  0.00     0.241 C 
ATOM     29  O   LEU d   1       1.116   2.756   2.049  0.00  0.00    -0.271 OA
ATOM     30  H   VAL d   1      -1.044   5.066   2.089  0.00  0.00     0.163 HD
BRANCH  28  31
ATOM     31  CA  LEU d   1       1.398   5.031   1.297  0.00  0.00     0.089 C 
ATOM     32  H   LEU d   1       1.834   4.668   0.366  0.00  0.00     0.087 H 
BRANCH  31  33
ATOM     33  N   LEU d   1       0.551   6.191   0.970  0.00  0.00    -0.346 N 
ATOM     34  C   VAL d   1      -0.379   6.175   0.007  0.00  0.00     0.241 C 
ATOM     35  O   VAL d   1      -0.612   5.193  -0.704  0.00  0.00    -0.271 OA
ATOM     36  H   LEU d   1       0.680   7.050   1.504  0.00  0.00     0.163 HD
BRANCH  34  37
ATOM     37  CA  VAL d   1      -1.161   7.475  -0.171  0.00  0.00     0.092 C 
ATOM     38  H   VAL d   1      -2.016   7.307  -0.826  0.00  0.00     0.088 H 
BRANCH  37  39
ATOM     39  N   VAL d   1      -1.721   7.939   1.106  0.00  0.00    -0.346 N 
ATOM     40  C   LYS d   1      -2.918   7.545   1.563  0.00  0.00     0.241 C 
ATOM     41  O   LYS d   1      -3.660   6.767   0.956  0.00  0.00    -0.271 OA
ATOM     42  H   VAL d   1      -1.174   8.590   1.670  0.00  0.00     0.163 HD
BRANCH  40  43
ATOM     43  CA  LYS d   1      -3.334   8.124   2.919  0.00  0.00     0.089 C 
ATOM     44  H   LYS d   1      -4.088   7.478   3.369  0.00  0.00     0.087 H 
BRANCH  43  45
ATOM     45  N   LYS d   1      -2.183   8.155   3.847  0.00  0.00    -0.346 N 
ATOM     46  C   LEU d   1      -2.311   8.351   5.169  0.00  0.00     0.249 C 
ATOM     47  O   LEU d   1      -3.396   8.540   5.728  0.00  0.00    -0.271 OA
ATOM     48  H   LYS d   1      -1.247   8.021   3.464  0.00  0.00     0.163 HD
BRANCH  46  49
ATOM     49  CA  LEU d   1      -1.011   8.345   5.972  0.00  0.00     0.176 C 
ATOM     50  H   LEU d   1      -0.178   8.256   5.275  0.00  0.00     0.099 H 
BRANCH  49  51
ATOM     51  N   LEU d   1      -0.844   9.613   6.729  0.00  0.00    -0.066 N 
ATOM     52  H   LEU d   1      -0.855  10.399   6.079  0.00  0.00     0.275 HD
ATOM     53  H   LEU d   1      -1.608   9.712   7.397  0.00  0.00     0.275 HD
ATOM     54  H   LEU d   1       0.045   9.595   7.228  0.00  0.00     0.275 HD
ENDBRANCH  49  51
BRANCH  49  55
ATOM     55  CB  LEU d   1      -0.997   7.149   6.934  0.00  0.00    -0.028 C 
ATOM     56  H   LEU d   1      -1.366   6.295   6.366  0.00  0.00     0.037 H 
ATOM     57  H   LEU d   1      -1.594   7.443   7.797  0.00  0.00     0.037 H 
BRANCH  55  58
ATOM     58  CG  LEU d   1       0.380   6.741   7.481  0.00  0.00    -0.059 C 
ATOM     59  H   LEU d   1       0.969   7.646   7.633  0.00  0.00     0.038 H 
BRANCH  58  60
ATOM     60  CD1 LEU d   1       0.225   6.023   8.811  0.00  0.00    -0.073 C 
ATOM     61  H   LEU d   1      -0.344   5.105   8.663  0.00  0.00     0.028 H 
ATOM     62  H   LEU d   1       1.210   5.781   9.209  0.00  0.00     0.028 H 
ATOM     63  H   LEU d   1      -0.303   6.670   9.512  0.00  0.00     0.028 H 
ENDBRANCH  58  60
BRANCH  58  64
ATOM     64  CD2 LEU d   1       1.117   5.851   6.486  0.00  0.00    -0.073 C 
ATOM     65  H   LEU d   1       2.104   5.609   6.879  0.00  0.00     0.028 H 
ATOM     66  H   LEU d   1       0.550   4.933   6.333  0.00  0.00     0.028 H 
ATOM     67  H   LEU d   1       1.221   6.378   5.537  0.00  0.00     0.028 H 
ENDBRANCH  58  64
ENDBRANCH  55  58
ENDBRANCH  49  55
ENDBRANCH  46  49
ENDBRANCH  43  45
BRANCH  43  68
ATOM     68  CB  LYS d   1      -3.977   9.525   2.730  0.00  0.00    -0.038 C 
ATOM     69  H   LYS d   1      -4.474   9.769   3.669  0.00  0.00     0.036 H 
ATOM     70  H   LYS d   1      -4.631   9.453   1.861  0.00  0.00     0.036 H 
BRANCH  68  71
ATOM     71  CG  LYS d   1      -2.996  10.663   2.446  0.00  0.00    -0.061 C 
ATOM     72  H   LYS d   1      -2.450  10.428   1.532  0.00  0.00     0.033 H 
ATOM     73  H   LYS d   1      -2.324  10.761   3.299  0.00  0.00     0.033 H 
BRANCH  71  74
ATOM     74  CD  LYS d   1      -3.719  11.985   2.249  0.00  0.00    -0.043 C 
ATOM     75  H   LYS d   1      -4.266  12.219   3.162  0.00  0.00     0.035 H 
ATOM     76  H   LYS d   1      -4.390  11.888   1.395  0.00  0.00     0.035 H 
BRANCH  74  77
ATOM     77  CE  LYS d   1      -2.744  13.117   1.969  0.00  0.00     0.080 C 
ATOM     78  H   LYS d   1      -2.199  12.880   1.055  0.00  0.00     0.075 H 
ATOM     79  H   LYS d   1      -2.078  13.214   2.826  0.00  0.00     0.075 H 
BRANCH  77  80
ATOM     80  NZ  LYS d   1      -3.444  14.417   1.772  0.00  0.00    -0.079 N 
ATOM     81  H   LYS d   1      -2.756  15.147   1.587  0.00  0.00     0.274 HD
ATOM     82  H   LYS d   1      -4.082  14.341   0.980  0.00  0.00     0.274 HD
ATOM     83  H   LYS d   1      -3.971  14.649   2.614  0.00  0.00     0.274 HD
ENDBRANCH  77  80
ENDBRANCH  74  77
ENDBRANCH  71  74
ENDBRANCH  68  71
ENDBRANCH  43  68
ENDBRANCH  40  43
ENDBRANCH  37  39
BRANCH  37  84
ATOM     84  CB  VAL d   1      -0.231   8.530  -0.835  0.00  0.00    -0.033 C 
ATOM     85  H   VAL d   1       0.551   7.982  -1.361  0.00  0.00     0.042 H 
BRANCH  84  86
ATOM     86  CG1 VAL d   1      -1.009   9.371  -1.834  0.00  0.00    -0.071 C 
ATOM     87  H   VAL d   1      -1.421   8.724  -2.608  0.00  0.00     0.028 H 
ATOM     88  H   VAL d   1      -1.820   9.886  -1.319  0.00  0.00     0.028 H 
ATOM     89  H   VAL d   1      -0.342  10.103  -2.288  0.00  0.00     0.028 H 
ENDBRANCH  84  86
BRANCH  84  90
ATOM     90  CG2 VAL d   1       0.459   9.427   0.195  0.00  0.00    -0.071 C 
ATOM     91  H   VAL d   1      -0.295   9.959   0.775  0.00  0.00     0.028 H 
ATOM     92  H   VAL d   1       1.065   8.813   0.861  0.00  0.00     0.028 H 
ATOM     93  H   VAL d   1       1.097  10.146  -0.320  0.00  0.00     0.028 H 
ENDBRANCH  84  90
ENDBRANCH  37  84
ENDBRANCH  34  37
ENDBRANCH  31  33
BRANCH  31  94
ATOM     94  CB  LEU d   1       2.502   5.466   2.271  0.00  0.00    -0.035 C 
ATOM     95  H   LEU d   1       2.137   5.236   3.272  0.00  0.00     0.037 H 
ATOM     96  H   LEU d   1       2.696   6.519   2.065  0.00  0.00     0.037 H 
BRANCH  94  97
ATOM     97  CG  LEU d   1       3.848   4.742   2.125  0.00  0.00    -0.059 C 
ATOM     98  H   LEU d   1       3.951   4.415   1.090  0.00  0.00     0.038 H 
BRANCH  97  99
ATOM     99  CD1 LEU d   1       4.989   5.688   2.462  0.00  0.00    -0.073 C 
ATOM    100  H   LEU d   1       4.965   6.540   1.783  0.00  0.00     0.028 H 
ATOM    101  H   LEU d   1       4.879   6.037   3.489  0.00  0.00     0.028 H 
ATOM    102  H   LEU d   1       5.938   5.163   2.355  0.00  0.00     0.028 H 
ENDBRANCH  97  99
BRANCH  97 103
ATOM    103  CD2 LEU d   1       3.903   3.513   3.022  0.00  0.00    -0.073 C 
ATOM    104  H   LEU d   1       3.779   3.817   4.061  0.00  0.00     0.028 H 
ATOM    105  H   LEU d   1       3.103   2.826   2.745  0.00  0.00     0.028 H 
ATOM    106  H   LEU d   1       4.867   3.018   2.900  0.00  0.00     0.028 H 
ENDBRANCH  97 103
ENDBRANCH  94  97
ENDBRANCH  31  94
ENDBRANCH  28  31
ENDBRANCH  25  27
BRANCH  25 107
ATOM    107  CB  VAL d   1      -2.745   3.761   3.633  0.00  0.00    -0.033 C 
ATOM    108  H   VAL d   1      -3.375   4.279   2.910  0.00  0.00     0.042 H 
BRANCH 107 109
ATOM    109  CG1 VAL d   1      -3.596   2.712   4.350  0.00  0.00    -0.071 C 
ATOM    110  H   VAL d   1      -4.026   2.031   3.616  0.00  0.00     0.028 H 
ATOM    111  H   VAL d   1      -2.970   2.152   5.045  0.00  0.00     0.028 H 
ATOM    112  H   VAL d   1      -4.396   3.208   4.899  0.00  0.00     0.028 H 
ENDBRANCH 107 109
BRANCH 107 113
ATOM    113  CG2 VAL d   1      -2.217   4.770   4.647  0.00  0.00    -0.071 C 
ATOM    114  H   VAL d   1      -1.549   4.266   5.346  0.00  0.00     0.028 H 
ATOM    115  H   VAL d   1      -1.672   5.556   4.125  0.00  0.00     0.028 H 
ATOM    116  H   VAL d   1      -3.054   5.207   5.193  0.00  0.00     0.028 H 
ENDBRANCH 107 113
ENDBRANCH  25 107
ENDBRANCH  22  25
ENDBRANCH  19  21
BRANCH  19 117
ATOM    117  CB  LYS d   1      -3.435   3.001  -1.675  0.00  0.00    -0.038 C 
ATOM    118  H   LYS d   1      -3.704   2.415  -2.554  0.00  0.00     0.036 H 
ATOM    119  H   LYS d   1      -2.658   3.744  -1.858  0.00  0.00     0.036 H 
BRANCH 117 120
ATOM    120  CG  LYS d   1      -4.684   3.753  -1.233  0.00  0.00    -0.061 C 
ATOM    121  H   LYS d   1      -4.427   4.376  -0.377  0.00  0.00     0.033 H 
ATOM    122  H   LYS d   1      -5.454   3.024  -0.980  0.00  0.00     0.033 H 
BRANCH 120 123
ATOM    123  CD  LYS d   1      -5.216   4.652  -2.341  0.00  0.00    -0.043 C 
ATOM    124  H   LYS d   1      -5.473   4.027  -3.196  0.00  0.00     0.035 H 
ATOM    125  H   LYS d   1      -4.445   5.381  -2.590  0.00  0.00     0.035 H 
BRANCH 123 126
ATOM    126  CE  LYS d   1      -6.466   5.406  -1.906  0.00  0.00     0.080 C 
ATOM    127  H   LYS d   1      -6.666   6.185  -2.642  0.00  0.00     0.075 H 
ATOM    128  H   LYS d   1      -6.286   5.816  -0.912  0.00  0.00     0.075 H 
BRANCH 126 129
ATOM    129  NZ  LYS d   1      -7.662   4.518  -1.833  0.00  0.00    -0.079 N 
ATOM    130  H   LYS d   1      -8.472   5.064  -1.539  0.00  0.00     0.274 HD
ATOM    131  H   LYS d   1      -7.839   4.112  -2.752  0.00  0.00     0.274 HD
ATOM    132  H   LYS d   1      -7.490   3.772  -1.158  0.00  0.00     0.274 HD
ENDBRANCH 126 129
ENDBRANCH 123 126
ENDBRANCH 120 123
ENDBRANCH 117 120
ENDBRANCH  19 117
ENDBRANCH  16  19
ENDBRANCH  13  15
BRANCH  13 133
ATOM    133  CB  ALA d   1       1.811   1.601  -1.759  0.00  0.00    -0.049 C 
ATOM    134  H   ALA d   1       1.626   2.485  -2.369  0.00  0.00     0.030 H 
ATOM    135  H   ALA d   1       2.063   1.906  -0.743  0.00  0.00     0.030 H 
ATOM    136  H   ALA d   1       2.637   1.031  -2.184  0.00  0.00     0.030 H 
ENDBRANCH  13 133
ENDBRANCH  10  13
ENDBRANCH   7   9
BRANCH   7 137
ATOM    137  CB  VAL d   1       0.953  -1.348   2.714  0.00  0.00    -0.033 C 
ATOM    138  H   VAL d   1      -0.057  -1.126   3.060  0.00  0.00     0.042 H 
BRANCH 137 139
ATOM    139  CG1 VAL d   1       1.515  -2.500   3.547  0.00  0.00    -0.071 C 
ATOM    140  H   VAL d   1       0.856  -3.364   3.462  0.00  0.00     0.028 H 
ATOM    141  H   VAL d   1       2.508  -2.761   3.180  0.00  0.00     0.028 H 
ATOM    142  H   VAL d   1       1.581  -2.193   4.591  0.00  0.00     0.028 H 
ENDBRANCH 137 139
BRANCH 137 143
ATOM    143  CG2 VAL d   1       1.821  -0.107   2.905  0.00  0.00    -0.071 C 
ATOM    144  H   VAL d   1       2.822  -0.303   2.521  0.00  0.00     0.028 H 
ATOM    145  H   VAL d   1       1.380   0.730   2.364  0.00  0.00     0.028 H 
ATOM    146  H   VAL d   1       1.879   0.135   3.966  0.00  0.00     0.028 H 
ENDBRANCH 137 143
ENDBRANCH   7 137
ENDBRANCH   4   7
ENDBRANCH   1   3
BRANCH   1 147
ATOM    147  C   LEU d   1      -2.550  -4.078  -0.670  0.00  0.00     0.241 C 
ATOM    148  O   LEU d   1      -3.036  -5.213  -0.708  0.00  0.00    -0.271 OA
ATOM    149  N   PHE d   1      -1.904  -3.518  -1.705  0.00  0.00    -0.346 N 
ATOM    150  H   PHE d   1      -1.531  -2.575  -1.597  0.00  0.00     0.163 HD
BRANCH 149 151
ATOM    151  CA  PHE d   1      -1.713  -4.211  -2.990  0.00  0.00     0.093 C 
ATOM    152  H   PHE d   1      -2.664  -4.678  -3.244  0.00  0.00     0.088 H 
BRANCH 151 153
ATOM    153  C   PHE d   1      -0.662  -5.323  -2.902  0.00  0.00     0.241 C 
ATOM    154  O   PHE d   1      -0.840  -6.397  -3.483  0.00  0.00    -0.271 OA
ATOM    155  N   ALA d   1       0.428  -5.052  -2.169  0.00  0.00    -0.346 N 
ATOM    156  H   ALA d   1       0.500  -4.141  -1.717  0.00  0.00     0.163 HD
BRANCH 155 157
ATOM    157  CA  ALA d   1       1.526  -6.018  -1.991  0.00  0.00     0.086 C 
ATOM    158  H   ALA d   1       1.753  -6.434  -2.973  0.00  0.00     0.086 H 
BRANCH 157 159
ATOM    159  C   ALA d   1       1.131  -7.189  -1.082  0.00  0.00     0.240 C 
ATOM    160  O   ALA d   1       1.668  -8.292  -1.217  0.00  0.00    -0.271 OA
ATOM    161  N   CYS d   1       0.188  -6.935  -0.160  0.00  0.00    -0.345 N 
ATOM    162  H   CYS d   1      -0.208  -5.996  -0.112  0.00  0.00     0.163 HD
BRANCH 161 163
ATOM    163  CA  CYS d   1      -0.297  -7.955   0.783  0.00  0.00     0.097 C 
ATOM    164  H   CYS d   1       0.570  -8.523   1.121  0.00  0.00     0.088 H 
BRANCH 163 165
ATOM    165  C   CYS d   1      -1.268  -8.942   0.120  0.00  0.00     0.241 C 
ATOM    166  O   CYS d   1      -1.408 -10.080   0.577  0.00  0.00    -0.271 OA
ATOM    167  N   MET d   1      -1.931  -8.493  -0.957  0.00  0.00    -0.346 N 
ATOM    168  H   MET d   1      -1.762  -7.539  -1.275  0.00  0.00     0.163 HD
BRANCH 167 169
ATOM    169  CA  MET d   1      -2.891  -9.326  -1.695  0.00  0.00     0.090 C 
ATOM    170  H   MET d   1      -3.337 -10.018  -0.980  0.00  0.00     0.087 H 
BRANCH 169 171
ATOM    171  C   MET d   1      -2.201 -10.146  -2.792  0.00  0.00     0.241 C 
ATOM    172  O   MET d   1      -2.687 -11.217  -3.167  0.00  0.00    -0.271 OA
ATOM    173  N   LEU d   1      -1.070  -9.632  -3.295  0.00  0.00    -0.346 N 
ATOM    174  H   LEU d   1      -0.732  -8.741  -2.932  0.00  0.00     0.163 HD
BRANCH 173 175
ATOM    175  CA  LEU d   1      -0.300 -10.304  -4.349  0.00  0.00     0.089 C 
ATOM    176  H   LEU d   1      -1.002 -10.895  -4.938  0.00  0.00     0.087 H 
BRANCH 175 177
ATOM    177  C   LEU d   1       0.752 -11.256  -3.766  0.00  0.00     0.241 C 
ATOM    178  O   LEU d   1       1.273 -12.118  -4.480  0.00  0.00    -0.271 OA
ATOM    179  N   MET d   1       1.055 -11.094  -2.469  0.00  0.00    -0.346 N 
ATOM    180  H   MET d   1       0.581 -10.361  -1.942  0.00  0.00     0.163 HD
BRANCH 179 181
ATOM    181  CA  MET d   1       2.043 -11.932  -1.781  0.00  0.00     0.090 C 
ATOM    182  H   MET d   1       2.755 -12.290  -2.524  0.00  0.00     0.087 H 
BRANCH 181 183
ATOM    183  C   MET d   1       1.387 -13.155  -1.134  0.00  0.00     0.241 C 
ATOM    184  O   MET d   1       2.000 -14.224  -1.058  0.00  0.00    -0.271 OA
ATOM    185  N   ARG d   1       0.140 -12.988  -0.677  0.00  0.00    -0.346 N 
ATOM    186  H   ARG d   1      -0.301 -12.073  -0.774  0.00  0.00     0.163 HD
BRANCH 185 187
ATOM    187  CA  ARG d   1      -0.616 -14.074  -0.041  0.00  0.00     0.089 C 
ATOM    188  H   ARG d   1       0.082 -14.720   0.492  0.00  0.00     0.087 H 
BRANCH 187 189
ATOM    189  C   ARG d   1      -1.339 -14.938  -1.095  0.00  0.00     0.241 C 
ATOM    190  O   ARG d   1      -2.157 -15.801  -0.751  0.00  0.00    -0.271 OA
ATOM    191  N   LYS d   1      -1.011 -14.706  -2.372  0.00  0.00    -0.345 N 
ATOM    192  H   LYS d   1      -0.316 -13.988  -2.578  0.00  0.00     0.163 HD
BRANCH 191 193
ATOM    193  CA  LYS d   1      -1.611 -15.443  -3.481  0.00  0.00     0.096 C 
ATOM    194  H   LYS d   1      -2.529 -15.915  -3.130  0.00  0.00     0.089 H 
BRANCH 193 195
ATOM    195  C   LYS d   1      -0.665 -16.545  -3.969  0.00  0.00     0.196 C 
ATOM    196  O   LYS d   1      -1.051 -17.730  -3.888  0.00  0.00    -0.646 OA
ATOM    197  OXT LYS d   1       0.455 -16.214  -4.418  0.00  0.00    -0.646 OA
ENDBRANCH 193 195
BRANCH 193 198
ATOM    198  CB  LYS d   1      -1.964 -14.480  -4.630  0.00  0.00    -0.037 C 
ATOM    199  H   LYS d   1      -1.092 -14.427  -5.281  0.00  0.00     0.036 H 
ATOM    200  H   LYS d   1      -2.247 -13.530  -4.175  0.00  0.00     0.036 H 
BRANCH 198 201
ATOM    201  CG  LYS d   1      -3.142 -14.931  -5.495  0.00  0.00    -0.061 C 
ATOM    202  H   LYS d   1      -3.127 -16.019  -5.551  0.00  0.00     0.033 H 
ATOM    203  H   LYS d   1      -3.040 -14.471  -6.478  0.00  0.00     0.033 H 
BRANCH 201 204
ATOM    204  CD  LYS d   1      -4.480 -14.502  -4.904  0.00  0.00    -0.043 C 
ATOM    205  H   LYS d   1      -4.498 -13.414  -4.845  0.00  0.00     0.035 H 
ATOM    206  H   LYS d   1      -4.585 -14.957  -3.919  0.00  0.00     0.035 H 
BRANCH 204 207
ATOM    207  CE  LYS d   1      -5.643 -14.957  -5.771  0.00  0.00     0.080 C 
ATOM    208  H   LYS d   1      -5.620 -16.045  -5.830  0.00  0.00     0.075 H 
ATOM    209  H   LYS d   1      -5.539 -14.495  -6.753  0.00  0.00     0.075 H 
BRANCH 207 210
ATOM    210  NZ  LYS d   1      -6.955 -14.548  -5.199  0.00  0.00    -0.079 N 
ATOM    211  H   LYS d   1      -7.706 -14.871  -5.809  0.00  0.00     0.274 HD
ATOM    212  H   LYS d   1      -7.065 -14.962  -4.273  0.00  0.00     0.274 HD
ATOM    213  H   LYS d   1      -6.990 -13.531  -5.125  0.00  0.00     0.274 HD
ENDBRANCH 207 210
ENDBRANCH 204 207
ENDBRANCH 201 204
ENDBRANCH 198 201
ENDBRANCH 193 198
ENDBRANCH 191 193
ENDBRANCH 187 189
BRANCH 187 214
ATOM    214  CB  ARG d   1      -1.621 -13.486   0.962  0.00  0.00    -0.036 C 
ATOM    215  H   ARG d   1      -2.538 -13.270   0.414  0.00  0.00     0.036 H 
ATOM    216  H   ARG d   1      -1.157 -12.607   1.409  0.00  0.00     0.036 H 
BRANCH 214 217
ATOM    217  CG  ARG d   1      -1.984 -14.434   2.097  0.00  0.00    -0.048 C 
ATOM    218  H   ARG d   1      -1.078 -14.663   2.658  0.00  0.00     0.035 H 
ATOM    219  H   ARG d   1      -2.427 -15.332   1.667  0.00  0.00     0.035 H 
BRANCH 217 220
ATOM    220  CD  ARG d   1      -2.992 -13.808   3.047  0.00  0.00     0.009 C 
ATOM    221  H   ARG d   1      -3.897 -13.582   2.483  0.00  0.00     0.064 H 
ATOM    222  H   ARG d   1      -2.545 -12.912   3.477  0.00  0.00     0.064 H 
BRANCH 220 223
ATOM    223  NE  ARG d   1      -3.349 -14.715   4.144  0.00  0.00    -0.227 N 
ATOM    224  CZ  ARG d   1      -4.235 -14.433   5.111  0.00  0.00     0.665 C 
ATOM    225  NH1 ARG d   1      -4.875 -13.265   5.140  0.00  0.00    -0.235 N 
ATOM    226  NH2 ARG d   1      -4.480 -15.331   6.056  0.00  0.00    -0.235 N 
ATOM    227  H   ARG d   1      -4.695 -12.567   4.419  0.00  0.00     0.174 HD
ATOM    228  H   ARG d   1      -5.545 -13.069   5.883  0.00  0.00     0.174 HD
ATOM    229  H   ARG d   1      -3.996 -16.229   6.044  0.00  0.00     0.174 HD
ATOM    230  H   ARG d   1      -5.152 -15.124   6.795  0.00  0.00     0.174 HD
ATOM    231  H   ARG d   1      -2.890 -15.626   4.173  0.00  0.00     0.177 HD
ENDBRANCH 220 223
ENDBRANCH 217 220
ENDBRANCH 214 217
ENDBRANCH 187 214
ENDBRANCH 185 187
ENDBRANCH 181 183
BRANCH 181 232
ATOM    232  CB  MET d   1       2.789 -11.108  -0.724  0.00  0.00    -0.030 C 
ATOM    233  H   MET d   1       2.290 -11.278   0.230  0.00  0.00     0.037 H 
ATOM    234  H   MET d   1       2.773 -10.069  -1.053  0.00  0.00     0.037 H 
BRANCH 232 235
ATOM    235  CG  MET d   1       4.251 -11.504  -0.547  0.00  0.00    -0.021 C 
ATOM    236  H   MET d   1       4.692 -10.825   0.182  0.00  0.00     0.049 H 
ATOM    237  H   MET d   1       4.729 -11.451  -1.525  0.00  0.00     0.049 H 
BRANCH 235 238
ATOM    238  SD  MET d   1       4.460 -13.187   0.075  0.00  0.00    -0.173 SA
BRANCH 238 239
ATOM    239  CE  MET d   1       4.151 -12.959   1.826  0.00  0.00    -0.035 C 
ATOM    240  H   MET d   1       4.876 -12.255   2.233  0.00  0.00     0.041 H 
ATOM    241  H   MET d   1       3.144 -12.568   1.968  0.00  0.00     0.041 H 
ATOM    242  H   MET d   1       4.246 -13.917   2.338  0.00  0.00     0.041 H 
ENDBRANCH 238 239
ENDBRANCH 235 238
ENDBRANCH 232 235
ENDBRANCH 181 232
ENDBRANCH 179 181
ENDBRANCH 175 177
BRANCH 175 243
ATOM    243  CB  LEU d   1       0.385  -9.268  -5.253  0.00  0.00    -0.035 C 
ATOM    244  H   LEU d   1       1.007  -9.829  -5.950  0.00  0.00     0.037 H 
ATOM    245  H   LEU d   1       0.917  -8.584  -4.592  0.00  0.00     0.037 H 
BRANCH 243 246
ATOM    246  CG  LEU d   1      -0.556  -8.405  -6.106  0.00  0.00    -0.059 C 
ATOM    247  H   LEU d   1      -1.490  -8.280  -5.559  0.00  0.00     0.038 H 
BRANCH 246 248
ATOM    248  CD1 LEU d   1       0.057  -7.036  -6.352  0.00  0.00    -0.073 C 
ATOM    249  H   LEU d   1       0.227  -6.539  -5.397  0.00  0.00     0.028 H 
ATOM    250  H   LEU d   1       1.005  -7.153  -6.877  0.00  0.00     0.028 H 
ATOM    251  H   LEU d   1      -0.624  -6.438  -6.958  0.00  0.00     0.028 H 
ENDBRANCH 246 248
BRANCH 246 252
ATOM    252  CD2 LEU d   1      -0.863  -9.088  -7.434  0.00  0.00    -0.073 C 
ATOM    253  H   LEU d   1       0.065  -9.245  -7.984  0.00  0.00     0.028 H 
ATOM    254  H   LEU d   1      -1.342 -10.049  -7.245  0.00  0.00     0.028 H 
ATOM    255  H   LEU d   1      -1.531  -8.457  -8.020  0.00  0.00     0.028 H 
ENDBRANCH 246 252
ENDBRANCH 243 246
ENDBRANCH 175 243
ENDBRANCH 173 175
ENDBRANCH 169 171
BRANCH 169 256
ATOM    256  CB  MET d   1      -3.990  -8.457  -2.317  0.00  0.00    -0.030 C 
ATOM    257  H   MET d   1      -4.539  -9.083  -3.021  0.00  0.00     0.037 H 
ATOM    258  H   MET d   1      -3.502  -7.598  -2.778  0.00  0.00     0.037 H 
BRANCH 256 259
ATOM    259  CG  MET d   1      -4.997  -7.919  -1.308  0.00  0.00    -0.021 C 
ATOM    260  H   MET d   1      -4.471  -7.226  -0.651  0.00  0.00     0.049 H 
ATOM    261  H   MET d   1      -5.422  -8.770  -0.776  0.00  0.00     0.049 H 
BRANCH 259 262
ATOM    262  SD  MET d   1      -6.358  -7.018  -2.083  0.00  0.00    -0.173 SA
BRANCH 262 263
ATOM    263  CE  MET d   1      -5.594  -5.430  -2.413  0.00  0.00    -0.035 C 
ATOM    264  H   MET d   1      -5.262  -4.986  -1.475  0.00  0.00     0.041 H 
ATOM    265  H   MET d   1      -4.738  -5.570  -3.073  0.00  0.00     0.041 H 
ATOM    266  H   MET d   1      -6.319  -4.772  -2.891  0.00  0.00     0.041 H 
ENDBRANCH 262 263
ENDBRANCH 259 262
ENDBRANCH 256 259
ENDBRANCH 169 256
ENDBRANCH 167 169
ENDBRANCH 163 165
BRANCH 163 267
ATOM    267  CB  CYS d   1      -0.976  -7.284   1.977  0.00  0.00     0.001 C 
ATOM    268  H   CYS d   1      -1.329  -8.078   2.636  0.00  0.00     0.052 H 
ATOM    269  H   CYS d   1      -1.769  -6.649   1.583  0.00  0.00     0.052 H 
BRANCH 267 270
ATOM    270  SG  CYS d   1       0.122  -6.228   2.951  0.00  0.00    -0.180 SA
ATOM    271  H   CYS d   1       0.604  -5.259   2.178  0.00  0.00     0.101 HD
ENDBRANCH 267 270
ENDBRANCH 163 267
ENDBRANCH 161 163
ENDBRANCH 157 159
BRANCH 157 272
ATOM    272  CB  ALA d   1       2.758  -5.316  -1.438  0.00  0.00    -0.049 C 
ATOM    273  H   ALA d   1       3.075  -4.539  -2.134  0.00  0.00     0.030 H 
ATOM    274  H   ALA d   1       2.517  -4.867  -0.474  0.00  0.00     0.030 H 
ATOM    275  H   ALA d   1       3.562  -6.041  -1.311  0.00  0.00     0.030 H 
ENDBRANCH 157 272
ENDBRANCH 155 157
ENDBRANCH 151 153
BRANCH 151 276
ATOM    276  CB  PHE d   1      -1.323  -3.211  -4.083  0.00  0.00    -0.014 C 
ATOM    277  H   PHE d   1      -0.761  -3.757  -4.840  0.00  0.00     0.043 H 
ATOM    278  H   PHE d   1      -0.753  -2.413  -3.607  0.00  0.00     0.043 H 
BRANCH 276 279
ATOM    279  CG  PHE d   1      -2.501  -2.577  -4.767  0.00  0.00    -0.056 A 
ATOM    280  CD1 PHE d   1      -3.071  -3.169  -5.883  0.00  0.00    -0.077 A 
ATOM    281  CE1 PHE d   1      -4.152  -2.588  -6.517  0.00  0.00    -0.082 A 
ATOM    282  H   PHE d   1      -2.661  -4.104  -6.265  0.00  0.00     0.084 H 
ATOM    283  CZ  PHE d   1      -4.677  -1.405  -6.037  0.00  0.00    -0.083 A 
ATOM    284  H   PHE d   1      -4.590  -3.063  -7.395  0.00  0.00     0.083 H 
ATOM    285  CE2 PHE d   1      -4.120  -0.804  -4.926  0.00  0.00    -0.082 A 
ATOM    286  H   PHE d   1      -5.531  -0.946  -6.535  0.00  0.00     0.083 H 
ATOM    287  CD2 PHE d   1      -3.038  -1.389  -4.296  0.00  0.00    -0.077 A 
ATOM    288  H   PHE d   1      -4.533   0.131  -4.546  0.00  0.00     0.083 H 
ATOM    289  H   PHE d   1      -2.602  -0.911  -3.419  0.00  0.00     0.084 H 
ENDBRANCH 276 279
ENDBRANCH 151 276
ENDBRANCH 149 151
ENDBRANCH   1 147
BRANCH   1 290
ATOM    290  CB  LEU d   1      -3.964  -2.413   0.563  0.00  0.00    -0.035 C 
ATOM    291  H   LEU d   1      -4.653  -2.959  -0.081  0.00  0.00     0.037 H 
ATOM    292  H   LEU d   1      -3.691  -1.415   0.220  0.00  0.00     0.037 H 
BRANCH 290 293
ATOM    293  CG  LEU d   1      -4.676  -2.232   1.910  0.00  0.00    -0.059 C 
ATOM    294  H   LEU d   1      -3.924  -2.244   2.699  0.00  0.00     0.038 H 
BRANCH 293 295
ATOM    295  CD1 LEU d   1      -5.405  -0.898   1.949  0.00  0.00    -0.073 C 
ATOM    296  H   LEU d   1      -4.687  -0.089   1.815  0.00  0.00     0.028 H 
ATOM    297  H   LEU d   1      -6.144  -0.866   1.149  0.00  0.00     0.028 H 
ATOM    298  H   LEU d   1      -5.904  -0.786   2.911  0.00  0.00     0.028 H 
ENDBRANCH 293 295
BRANCH 293 299
ATOM    299  CD2 LEU d   1      -5.656  -3.374   2.158  0.00  0.00    -0.073 C 
ATOM    300  H   LEU d   1      -6.402  -3.390   1.363  0.00  0.00     0.028 H 
ATOM    301  H   LEU d   1      -5.114  -4.320   2.169  0.00  0.00     0.028 H 
ATOM    302  H   LEU d   1      -6.150  -3.225   3.118  0.00  0.00     0.028 H 
ENDBRANCH 293 299
ENDBRANCH 290 293
ENDBRANCH   1 290
TORSDOF 92
