REMARK WARNING: 32 MAX_TORS EXCEEDED!!!
REMARK  85 active torsions:
REMARK  status: ('A' for Active; 'I' for Inactive)
REMARK    1  A    between atoms: N_1  and  CA_2 
REMARK    2  A    between atoms: CA_2  and  C_3 
REMARK    3  A    between atoms: CA_2  and  CB_5 
REMARK       I    between atoms: C_3  and  N_10 
REMARK    4  A    between atoms: CB_5  and  CG_6 
REMARK    5  A    between atoms: CG_6  and  CD_7 
REMARK    6  A    between atoms: CD_7  and  CE_8 
REMARK    7  A    between atoms: CE_8  and  NZ_9 
REMARK    8  A    between atoms: N_10  and  CA_11 
REMARK    9  A    between atoms: CA_11  and  C_12 
REMARK   10  A    between atoms: CA_11  and  CB_14 
REMARK       I    between atoms: C_12  and  N_19 
REMARK   11  A    between atoms: CB_14  and  CG_15 
REMARK   12  A    between atoms: CG_15  and  CD_16 
REMARK   13  A    between atoms: CD_16  and  CE_17 
REMARK   14  A    between atoms: CE_17  and  NZ_18 
REMARK   15  A    between atoms: N_19  and  CA_20 
REMARK   16  A    between atoms: CA_20  and  C_21 
REMARK   17  A    between atoms: CA_20  and  CB_23 
REMARK       I    between atoms: C_21  and  N_26 
REMARK   18  A    between atoms: CB_23  and  OG1_24 
REMARK   19  A    between atoms: CB_23  and  CG2_25 
REMARK   20  A    between atoms: N_26  and  CA_27 
REMARK   21  A    between atoms: CA_27  and  C_28 
REMARK   22  A    between atoms: CA_27  and  CB_30 
REMARK       I    between atoms: C_28  and  N_37 
REMARK   23  A    between atoms: CB_30  and  CG_31 
REMARK   24  A    between atoms: N_37  and  CA_38 
REMARK   25  A    between atoms: CA_38  and  C_39 
REMARK   26  A    between atoms: CA_38  and  CB_41 
REMARK       I    between atoms: C_39  and  N_46 
REMARK   27  A    between atoms: CB_41  and  CG_42 
REMARK   28  A    between atoms: CG_42  and  CD_43 
REMARK   29  A    between atoms: CD_43  and  CE_44 
REMARK   30  A    between atoms: CE_44  and  NZ_45 
REMARK   31  A    between atoms: N_46  and  CA_47 
REMARK   32  A    between atoms: CA_47  and  C_48 
REMARK   33  A    between atoms: CA_47  and  CB_50 
REMARK       I    between atoms: C_48  and  N_55 
REMARK   34  A    between atoms: CB_50  and  CG_51 
REMARK   35  A    between atoms: CG_51  and  CD_52 
REMARK   36  A    between atoms: N_55  and  CA_56 
REMARK   37  A    between atoms: CA_56  and  C_57 
REMARK   38  A    between atoms: CA_56  and  CB_59 
REMARK       I    between atoms: C_57  and  N_62 
REMARK   39  A    between atoms: CB_59  and  CG1_60 
REMARK   40  A    between atoms: CB_59  and  CG2_61 
REMARK   41  A    between atoms: N_62  and  CA_63 
REMARK   42  A    between atoms: CA_63  and  C_64 
REMARK   43  A    between atoms: CA_63  and  CB_66 
REMARK       I    between atoms: C_64  and  N_67 
REMARK   44  A    between atoms: N_67  and  CA_68 
REMARK   45  A    between atoms: CA_68  and  C_69 
REMARK   46  A    between atoms: CA_68  and  CB_71 
REMARK       I    between atoms: C_69  and  N_75 
REMARK   47  A    between atoms: CB_71  and  CG_72 
REMARK       I    between atoms: CG_72  and  ND2_74 
REMARK   48  A    between atoms: N_75  and  CA_76 
REMARK   49  A    between atoms: CA_76  and  C_77 
REMARK   50  A    between atoms: CA_76  and  CB_79 
REMARK       I    between atoms: C_77  and  N_80 
REMARK   51  A    between atoms: N_80  and  CA_81 
REMARK   52  A    between atoms: CA_81  and  C_82 
REMARK   53  A    between atoms: CA_81  and  CB_84 
REMARK       I    between atoms: C_82  and  N_87 
REMARK   54  A    between atoms: CB_84  and  CG1_85 
REMARK   55  A    between atoms: CB_84  and  CG2_86 
REMARK   56  A    between atoms: N_87  and  CA_88 
REMARK   57  A    between atoms: CA_88  and  C_89 
REMARK   58  A    between atoms: CA_88  and  CB_91 
REMARK       I    between atoms: C_89  and  N_96 
REMARK   59  A    between atoms: CB_91  and  CG_92 
REMARK   60  A    between atoms: CG_92  and  CD_93 
REMARK   61  A    between atoms: CD_93  and  CE_94 
REMARK   62  A    between atoms: CE_94  and  NZ_95 
REMARK   63  A    between atoms: N_96  and  CA_97 
REMARK   64  A    between atoms: CA_97  and  C_98 
REMARK   65  A    between atoms: CA_97  and  CB_100 
REMARK       I    between atoms: C_98  and  N_104 
REMARK   66  A    between atoms: CB_100  and  CG1_101 
REMARK   67  A    between atoms: CB_100  and  CG2_102 
REMARK   68  A    between atoms: CG1_101  and  CD1_103 
REMARK   69  A    between atoms: N_104  and  CA_105 
REMARK   70  A    between atoms: CA_105  and  C_106 
REMARK   71  A    between atoms: CA_105  and  CB_108 
REMARK       I    between atoms: C_106  and  N_110 
REMARK   72  A    between atoms: CB_108  and  OG_109 
REMARK   73  A    between atoms: N_110  and  CA_111 
REMARK   74  A    between atoms: CA_111  and  C_112 
REMARK   75  A    between atoms: CA_111  and  CB_114 
REMARK       I    between atoms: C_112  and  N_115 
REMARK   76  A    between atoms: N_115  and  CA_116 
REMARK   77  A    between atoms: CA_116  and  C_117 
REMARK   78  A    between atoms: CA_116  and  CB_119 
REMARK       I    between atoms: C_117  and  N_121 
REMARK   79  A    between atoms: CB_119  and  OG_120 
REMARK   80  A    between atoms: N_121  and  CA_122 
REMARK   81  A    between atoms: CA_122  and  C_123 
REMARK   82  A    between atoms: CA_122  and  CB_125 
REMARK   83  A    between atoms: CB_125  and  CG_126 
REMARK   84  A    between atoms: CG_126  and  CD1_127 
REMARK   85  A    between atoms: CG_126  and  CD2_128 
ROOT
ATOM      1  CA  ALA d   1       0.768  -4.883   0.646  0.00  0.00     0.086 C 
ATOM      2  H   ALA d   1       1.478  -4.541   1.399  0.00  0.00     0.086 H 
ENDROOT
BRANCH   1   3
ATOM      3  N   ALA d   1      -0.545  -4.313   0.972  0.00  0.00    -0.346 N 
ATOM      4  C   VAL d   1      -0.718  -3.042   1.382  0.00  0.00     0.241 C 
ATOM      5  O   VAL d   1       0.207  -2.244   1.556  0.00  0.00    -0.271 OA
ATOM      6  H   ALA d   1      -1.368  -4.910   0.883  0.00  0.00     0.163 HD
BRANCH   4   7
ATOM      7  CA  VAL d   1      -2.187  -2.625   1.633  0.00  0.00     0.092 C 
ATOM      8  H   VAL d   1      -2.267  -1.554   1.447  0.00  0.00     0.088 H 
BRANCH   7   9
ATOM      9  N   VAL d   1      -3.072  -3.341   0.706  0.00  0.00    -0.346 N 
ATOM     10  C   GLU d   1      -3.008  -3.175  -0.625  0.00  0.00     0.241 C 
ATOM     11  O   GLU d   1      -2.228  -2.395  -1.178  0.00  0.00    -0.271 OA
ATOM     12  H   VAL d   1      -3.761  -3.989   1.087  0.00  0.00     0.163 HD
BRANCH  10  13
ATOM     13  CA  GLU d   1      -3.979  -4.020  -1.455  0.00  0.00     0.090 C 
ATOM     14  H   GLU d   1      -3.580  -4.114  -2.465  0.00  0.00     0.087 H 
BRANCH  13  15
ATOM     15  N   GLU d   1      -4.111  -5.366  -0.886  0.00  0.00    -0.346 N 
ATOM     16  C   LYS d   1      -3.169  -6.313  -1.036  0.00  0.00     0.241 C 
ATOM     17  O   LYS d   1      -2.124  -6.143  -1.669  0.00  0.00    -0.271 OA
ATOM     18  H   GLU d   1      -4.952  -5.592  -0.355  0.00  0.00     0.163 HD
BRANCH  16  19
ATOM     19  CA  LYS d   1      -3.457  -7.652  -0.356  0.00  0.00     0.089 C 
ATOM     20  H   LYS d   1      -2.510  -8.130  -0.107  0.00  0.00     0.087 H 
BRANCH  19  21
ATOM     21  N   LYS d   1      -4.208  -7.446   0.886  0.00  0.00    -0.346 N 
ATOM     22  C   PHE d   1      -3.626  -7.090   2.041  0.00  0.00     0.241 C 
ATOM     23  O   PHE d   1      -2.410  -6.922   2.171  0.00  0.00    -0.271 OA
ATOM     24  H   LYS d   1      -5.219  -7.579   0.871  0.00  0.00     0.163 HD
BRANCH  22  25
ATOM     25  CA  PHE d   1      -4.575  -6.902   3.226  0.00  0.00     0.093 C 
ATOM     26  H   PHE d   1      -4.365  -5.938   3.689  0.00  0.00     0.088 H 
BRANCH  25  27
ATOM     27  N   PHE d   1      -5.958  -6.920   2.767  0.00  0.00    -0.346 N 
ATOM     28  C   THR d   1      -6.787  -5.890   2.908  0.00  0.00     0.243 C 
ATOM     29  O   THR d   1      -6.469  -4.820   3.433  0.00  0.00    -0.271 OA
ATOM     30  H   PHE d   1      -6.308  -7.765   2.315  0.00  0.00     0.163 HD
BRANCH  28  31
ATOM     31  CA  THR d   1      -8.208  -6.110   2.368  0.00  0.00     0.113 C 
ATOM     32  H   THR d   1      -8.741  -5.161   2.422  0.00  0.00     0.091 H 
BRANCH  31  33
ATOM     33  N   THR d   1      -8.177  -6.543   0.961  0.00  0.00    -0.344 N 
ATOM     34  C   LYS d   1      -9.191  -6.312   0.110  0.00  0.00     0.241 C 
ATOM     35  O   LYS d   1     -10.209  -5.690   0.424  0.00  0.00    -0.271 OA
ATOM     36  H   THR d   1      -7.353  -7.038   0.619  0.00  0.00     0.163 HD
BRANCH  34  37
ATOM     37  CA  LYS d   1      -9.033  -6.865  -1.309  0.00  0.00     0.089 C 
ATOM     38  H   LYS d   1      -9.701  -6.314  -1.971  0.00  0.00     0.087 H 
BRANCH  37  39
ATOM     39  N   LYS d   1      -7.671  -6.669  -1.832  0.00  0.00    -0.346 N 
ATOM     40  C   LYS d   1      -7.422  -6.524  -3.146  0.00  0.00     0.248 C 
ATOM     41  O   LYS d   1      -8.308  -6.558  -4.009  0.00  0.00    -0.271 OA
ATOM     42  H   LYS d   1      -6.890  -6.642  -1.176  0.00  0.00     0.163 HD
BRANCH  40  43
ATOM     43  CA  LYS d   1      -5.953  -6.333  -3.540  0.00  0.00     0.176 C 
ATOM     44  H   LYS d   1      -5.394  -6.086  -2.638  0.00  0.00     0.099 H 
BRANCH  43  45
ATOM     45  N   LYS d   1      -5.383  -7.588  -4.103  0.00  0.00    -0.067 N 
ATOM     46  H   LYS d   1      -5.497  -8.345  -3.428  0.00  0.00     0.275 HD
ATOM     47  H   LYS d   1      -5.871  -7.824  -4.967  0.00  0.00     0.275 HD
ATOM     48  H   LYS d   1      -4.391  -7.452  -4.298  0.00  0.00     0.275 HD
ENDBRANCH  43  45
BRANCH  43  49
ATOM     49  CB  LYS d   1      -5.797  -5.160  -4.539  0.00  0.00    -0.030 C 
ATOM     50  H   LYS d   1      -4.736  -4.914  -4.569  0.00  0.00     0.036 H 
ATOM     51  H   LYS d   1      -6.450  -4.362  -4.187  0.00  0.00     0.036 H 
BRANCH  49  52
ATOM     52  CG  LYS d   1      -6.216  -5.467  -5.979  0.00  0.00    -0.061 C 
ATOM     53  H   LYS d   1      -7.276  -5.720  -5.984  0.00  0.00     0.033 H 
ATOM     54  H   LYS d   1      -5.608  -6.293  -6.348  0.00  0.00     0.033 H 
BRANCH  52  55
ATOM     55  CD  LYS d   1      -6.002  -4.267  -6.887  0.00  0.00    -0.043 C 
ATOM     56  H   LYS d   1      -4.942  -4.012  -6.878  0.00  0.00     0.035 H 
ATOM     57  H   LYS d   1      -6.614  -3.443  -6.520  0.00  0.00     0.035 H 
BRANCH  55  58
ATOM     58  CE  LYS d   1      -6.412  -4.571  -8.319  0.00  0.00     0.080 C 
ATOM     59  H   LYS d   1      -7.474  -4.816  -8.326  0.00  0.00     0.075 H 
ATOM     60  H   LYS d   1      -5.802  -5.399  -8.681  0.00  0.00     0.075 H 
BRANCH  58  61
ATOM     61  NZ  LYS d   1      -6.196  -3.403  -9.217  0.00  0.00    -0.079 N 
ATOM     62  H   LYS d   1      -6.482  -3.647 -10.165  0.00  0.00     0.274 HD
ATOM     63  H   LYS d   1      -6.751  -2.614  -8.886  0.00  0.00     0.274 HD
ATOM     64  H   LYS d   1      -5.208  -3.151  -9.213  0.00  0.00     0.274 HD
ENDBRANCH  58  61
ENDBRANCH  55  58
ENDBRANCH  52  55
ENDBRANCH  49  52
ENDBRANCH  43  49
ENDBRANCH  40  43
ENDBRANCH  37  39
BRANCH  37  65
ATOM     65  CB  LYS d   1      -9.414  -8.356  -1.312  0.00  0.00    -0.038 C 
ATOM     66  H   LYS d   1     -10.281  -8.470  -0.661  0.00  0.00     0.036 H 
ATOM     67  H   LYS d   1      -8.537  -8.915  -0.984  0.00  0.00     0.036 H 
BRANCH  65  68
ATOM     68  CG  LYS d   1      -9.804  -8.891  -2.681  0.00  0.00    -0.061 C 
ATOM     69  H   LYS d   1      -8.944  -8.803  -3.344  0.00  0.00     0.033 H 
ATOM     70  H   LYS d   1     -10.652  -8.313  -3.049  0.00  0.00     0.033 H 
BRANCH  68  71
ATOM     71  CD  LYS d   1     -10.211 -10.354  -2.611  0.00  0.00    -0.043 C 
ATOM     72  H   LYS d   1     -11.060 -10.444  -1.933  0.00  0.00     0.035 H 
ATOM     73  H   LYS d   1      -9.357 -10.934  -2.260  0.00  0.00     0.035 H 
BRANCH  71  74
ATOM     74  CE  LYS d   1     -10.625 -10.883  -3.975  0.00  0.00     0.080 C 
ATOM     75  H   LYS d   1      -9.769 -10.806  -4.646  0.00  0.00     0.075 H 
ATOM     76  H   LYS d   1     -11.471 -10.294  -4.328  0.00  0.00     0.075 H 
BRANCH  74  77
ATOM     77  NZ  LYS d   1     -11.043 -12.311  -3.912  0.00  0.00    -0.079 N 
ATOM     78  H   LYS d   1     -11.312 -12.627  -4.844  0.00  0.00     0.274 HD
ATOM     79  H   LYS d   1     -10.266 -12.877  -3.571  0.00  0.00     0.274 HD
ATOM     80  H   LYS d   1     -11.836 -12.404  -3.278  0.00  0.00     0.274 HD
ENDBRANCH  74  77
ENDBRANCH  71  74
ENDBRANCH  68  71
ENDBRANCH  65  68
ENDBRANCH  37  65
ENDBRANCH  34  37
ENDBRANCH  31  33
BRANCH  31  81
ATOM     81  CB  THR d   1      -8.959  -7.167   3.237  0.00  0.00     0.060 C 
ATOM     82  H   THR d   1      -8.367  -8.082   3.209  0.00  0.00     0.086 H 
BRANCH  81  83
ATOM     83  OG1 THR d   1     -10.268  -7.381   2.696  0.00  0.00    -0.393 OA
ATOM     84  H   THR d   1     -10.192  -7.701   1.794  0.00  0.00     0.210 HD
ENDBRANCH  81  83
BRANCH  81  85
ATOM     85  CG2 THR d   1      -9.087  -6.753   4.703  0.00  0.00    -0.050 C 
ATOM     86  H   THR d   1      -8.093  -6.619   5.130  0.00  0.00     0.031 H 
ATOM     87  H   THR d   1      -9.641  -5.816   4.768  0.00  0.00     0.031 H 
ATOM     88  H   THR d   1      -9.618  -7.529   5.253  0.00  0.00     0.031 H 
ENDBRANCH  81  85
ENDBRANCH  31  81
ENDBRANCH  28  31
ENDBRANCH  25  27
BRANCH  25  89
ATOM     89  CB  PHE d   1      -4.356  -8.007   4.267  0.00  0.00    -0.014 C 
ATOM     90  H   PHE d   1      -4.071  -8.908   3.723  0.00  0.00     0.043 H 
ATOM     91  H   PHE d   1      -5.282  -8.100   4.835  0.00  0.00     0.043 H 
BRANCH  89  92
ATOM     92  CG  PHE d   1      -3.258  -7.720   5.254  0.00  0.00    -0.056 A 
ATOM     93  CD1 PHE d   1      -3.532  -7.060   6.440  0.00  0.00    -0.077 A 
ATOM     94  CE1 PHE d   1      -2.528  -6.802   7.353  0.00  0.00    -0.082 A 
ATOM     95  H   PHE d   1      -4.551  -6.740   6.656  0.00  0.00     0.084 H 
ATOM     96  CZ  PHE d   1      -1.234  -7.202   7.086  0.00  0.00    -0.083 A 
ATOM     97  H   PHE d   1      -2.757  -6.283   8.284  0.00  0.00     0.083 H 
ATOM     98  CE2 PHE d   1      -0.946  -7.861   5.906  0.00  0.00    -0.082 A 
ATOM     99  H   PHE d   1      -0.441  -6.998   7.805  0.00  0.00     0.083 H 
ATOM    100  CD2 PHE d   1      -1.955  -8.118   4.997  0.00  0.00    -0.077 A 
ATOM    101  H   PHE d   1       0.075  -8.178   5.692  0.00  0.00     0.083 H 
ATOM    102  H   PHE d   1      -1.724  -8.639   4.068  0.00  0.00     0.084 H 
ENDBRANCH  89  92
ENDBRANCH  25  89
ENDBRANCH  22  25
ENDBRANCH  19  21
BRANCH  19 103
ATOM    103  CB  LYS d   1      -4.237  -8.565  -1.309  0.00  0.00    -0.038 C 
ATOM    104  H   LYS d   1      -3.690  -8.591  -2.252  0.00  0.00     0.036 H 
ATOM    105  H   LYS d   1      -5.245  -8.160  -1.391  0.00  0.00     0.036 H 
BRANCH 103 106
ATOM    106  CG  LYS d   1      -4.367 -10.002  -0.824  0.00  0.00    -0.061 C 
ATOM    107  H   LYS d   1      -4.941 -10.003   0.103  0.00  0.00     0.033 H 
ATOM    108  H   LYS d   1      -3.366 -10.408  -0.675  0.00  0.00     0.033 H 
BRANCH 106 109
ATOM    109  CD  LYS d   1      -5.093 -10.871  -1.841  0.00  0.00    -0.043 C 
ATOM    110  H   LYS d   1      -4.518 -10.868  -2.767  0.00  0.00     0.035 H 
ATOM    111  H   LYS d   1      -6.095 -10.466  -1.985  0.00  0.00     0.035 H 
BRANCH 109 112
ATOM    112  CE  LYS d   1      -5.224 -12.311  -1.364  0.00  0.00     0.080 C 
ATOM    113  H   LYS d   1      -4.258 -12.627  -0.972  0.00  0.00     0.075 H 
ATOM    114  H   LYS d   1      -5.545 -12.920  -2.209  0.00  0.00     0.075 H 
BRANCH 112 115
ATOM    115  NZ  LYS d   1      -6.235 -12.455  -0.278  0.00  0.00    -0.079 N 
ATOM    116  H   LYS d   1      -6.288 -13.433   0.008  0.00  0.00     0.274 HD
ATOM    117  H   LYS d   1      -5.960 -11.880   0.519  0.00  0.00     0.274 HD
ATOM    118  H   LYS d   1      -7.146 -12.150  -0.621  0.00  0.00     0.274 HD
ENDBRANCH 112 115
ENDBRANCH 109 112
ENDBRANCH 106 109
ENDBRANCH 103 106
ENDBRANCH  19 103
ENDBRANCH  16  19
ENDBRANCH  13  15
BRANCH  13 119
ATOM    119  CB  GLU d   1      -5.350  -3.333  -1.527  0.00  0.00    -0.029 C 
ATOM    120  H   GLU d   1      -5.501  -2.818  -0.578  0.00  0.00     0.037 H 
ATOM    121  H   GLU d   1      -6.087  -4.108  -1.738  0.00  0.00     0.037 H 
BRANCH 119 122
ATOM    122  CG  GLU d   1      -5.470  -2.286  -2.631  0.00  0.00     0.018 C 
ATOM    123  H   GLU d   1      -6.532  -2.104  -2.798  0.00  0.00     0.049 H 
ATOM    124  H   GLU d   1      -4.956  -2.674  -3.510  0.00  0.00     0.049 H 
BRANCH 122 125
ATOM    125  CD  GLU d   1      -4.826  -0.956  -2.271  0.00  0.00     0.172 C 
ATOM    126  OE1 GLU d   1      -5.389  -0.232  -1.424  0.00  0.00    -0.648 OA
ATOM    127  OE2 GLU d   1      -3.757  -0.642  -2.837  0.00  0.00    -0.648 OA
ENDBRANCH 122 125
ENDBRANCH 119 122
ENDBRANCH  13 119
ENDBRANCH  10  13
ENDBRANCH   7   9
BRANCH   7 128
ATOM    128  CB  VAL d   1      -2.626  -2.847   3.125  0.00  0.00    -0.033 C 
ATOM    129  H   VAL d   1      -3.712  -2.761   3.144  0.00  0.00     0.042 H 
BRANCH 128 130
ATOM    130  CG1 VAL d   1      -2.280  -4.244   3.640  0.00  0.00    -0.071 C 
ATOM    131  H   VAL d   1      -2.785  -4.991   3.028  0.00  0.00     0.028 H 
ATOM    132  H   VAL d   1      -1.202  -4.394   3.583  0.00  0.00     0.028 H 
ATOM    133  H   VAL d   1      -2.607  -4.339   4.676  0.00  0.00     0.028 H 
ENDBRANCH 128 130
BRANCH 128 134
ATOM    134  CG2 VAL d   1      -2.033  -1.776   4.036  0.00  0.00    -0.071 C 
ATOM    135  H   VAL d   1      -0.945  -1.816   3.982  0.00  0.00     0.028 H 
ATOM    136  H   VAL d   1      -2.378  -0.794   3.712  0.00  0.00     0.028 H 
ATOM    137  H   VAL d   1      -2.354  -1.955   5.062  0.00  0.00     0.028 H 
ENDBRANCH 128 134
ENDBRANCH   7 128
ENDBRANCH   4   7
ENDBRANCH   1   3
BRANCH   1 138
ATOM    138  C   ALA d   1       1.261  -4.401  -0.722  0.00  0.00     0.240 C 
ATOM    139  O   ALA d   1       2.449  -4.114  -0.896  0.00  0.00    -0.271 OA
ATOM    140  N   ASN d   1       0.327  -4.317  -1.687  0.00  0.00    -0.346 N 
ATOM    141  H   ASN d   1      -0.631  -4.585  -1.463  0.00  0.00     0.163 HD
BRANCH 140 142
ATOM    142  CA  ASN d   1       0.628  -3.856  -3.052  0.00  0.00     0.097 C 
ATOM    143  H   ASN d   1       1.532  -4.369  -3.381  0.00  0.00     0.088 H 
BRANCH 142 144
ATOM    144  C   ASN d   1       0.897  -2.347  -3.085  0.00  0.00     0.241 C 
ATOM    145  O   ASN d   1       1.666  -1.867  -3.923  0.00  0.00    -0.271 OA
ATOM    146  N   ALA d   1       0.251  -1.609  -2.162  0.00  0.00    -0.346 N 
ATOM    147  H   ALA d   1      -0.390  -2.079  -1.522  0.00  0.00     0.163 HD
BRANCH 146 148
ATOM    148  CA  ALA d   1       0.429  -0.154  -2.036  0.00  0.00     0.086 C 
ATOM    149  H   ALA d   1       0.192   0.308  -2.994  0.00  0.00     0.086 H 
BRANCH 148 150
ATOM    150  C   ALA d   1       1.882   0.181  -1.684  0.00  0.00     0.240 C 
ATOM    151  O   ALA d   1       2.410   1.220  -2.085  0.00  0.00    -0.271 OA
ATOM    152  N   VAL d   1       2.506  -0.730  -0.919  0.00  0.00    -0.346 N 
ATOM    153  H   VAL d   1       1.976  -1.544  -0.608  0.00  0.00     0.163 HD
BRANCH 152 154
ATOM    154  CA  VAL d   1       3.914  -0.614  -0.507  0.00  0.00     0.092 C 
ATOM    155  H   VAL d   1       4.074   0.393  -0.122  0.00  0.00     0.088 H 
BRANCH 154 156
ATOM    156  C   VAL d   1       4.831  -0.863  -1.720  0.00  0.00     0.241 C 
ATOM    157  O   VAL d   1       5.941  -0.330  -1.797  0.00  0.00    -0.271 OA
ATOM    158  N   LYS d   1       4.334  -1.687  -2.656  0.00  0.00    -0.346 N 
ATOM    159  H   LYS d   1       3.409  -2.088  -2.506  0.00  0.00     0.163 HD
BRANCH 158 160
ATOM    160  CA  LYS d   1       5.056  -2.040  -3.887  0.00  0.00     0.089 C 
ATOM    161  H   LYS d   1       6.099  -2.203  -3.617  0.00  0.00     0.087 H 
BRANCH 160 162
ATOM    162  C   LYS d   1       5.005  -0.911  -4.926  0.00  0.00     0.241 C 
ATOM    163  O   LYS d   1       5.911  -0.784  -5.755  0.00  0.00    -0.271 OA
ATOM    164  N   ILE d   1       3.939  -0.101  -4.866  0.00  0.00    -0.346 N 
ATOM    165  H   ILE d   1       3.238  -0.267  -4.144  0.00  0.00     0.163 HD
BRANCH 164 166
ATOM    166  CA  ILE d   1       3.740   1.015  -5.797  0.00  0.00     0.092 C 
ATOM    167  H   ILE d   1       4.209   0.750  -6.745  0.00  0.00     0.088 H 
BRANCH 166 168
ATOM    168  C   ILE d   1       4.432   2.303  -5.303  0.00  0.00     0.241 C 
ATOM    169  O   ILE d   1       4.835   3.146  -6.110  0.00  0.00    -0.271 OA
ATOM    170  N   SER d   1       4.558   2.432  -3.975  0.00  0.00    -0.344 N 
ATOM    171  H   SER d   1       4.200   1.689  -3.375  0.00  0.00     0.163 HD
BRANCH 170 172
ATOM    172  CA  SER d   1       5.191   3.602  -3.348  0.00  0.00     0.109 C 
ATOM    173  H   SER d   1       4.851   4.485  -3.889  0.00  0.00     0.090 H 
BRANCH 172 174
ATOM    174  C   SER d   1       6.724   3.559  -3.450  0.00  0.00     0.243 C 
ATOM    175  O   SER d   1       7.394   4.562  -3.185  0.00  0.00    -0.271 OA
ATOM    176  N   ALA d   1       7.263   2.397  -3.839  0.00  0.00    -0.346 N 
ATOM    177  H   ALA d   1       6.644   1.612  -4.045  0.00  0.00     0.163 HD
BRANCH 176 178
ATOM    178  CA  ALA d   1       8.708   2.212  -3.980  0.00  0.00     0.086 C 
ATOM    179  H   ALA d   1       9.194   3.084  -3.542  0.00  0.00     0.086 H 
BRANCH 178 180
ATOM    180  C   ALA d   1       9.137   2.135  -5.449  0.00  0.00     0.240 C 
ATOM    181  O   ALA d   1      10.323   2.286  -5.758  0.00  0.00    -0.271 OA
ATOM    182  N   SER d   1       8.168   1.902  -6.345  0.00  0.00    -0.344 N 
ATOM    183  H   SER d   1       7.209   1.794  -6.014  0.00  0.00     0.163 HD
BRANCH 182 184
ATOM    184  CA  SER d   1       8.435   1.797  -7.783  0.00  0.00     0.109 C 
ATOM    185  H   SER d   1       9.470   1.481  -7.912  0.00  0.00     0.090 H 
BRANCH 184 186
ATOM    186  C   SER d   1       8.280   3.153  -8.496  0.00  0.00     0.243 C 
ATOM    187  O   SER d   1       8.226   3.214  -9.731  0.00  0.00    -0.271 OA
ATOM    188  N   LEU d   1       8.234   4.237  -7.708  0.00  0.00    -0.345 N 
ATOM    189  H   LEU d   1       8.303   4.114  -6.698  0.00  0.00     0.163 HD
BRANCH 188 190
ATOM    190  CA  LEU d   1       8.088   5.592  -8.247  0.00  0.00     0.096 C 
ATOM    191  H   LEU d   1       7.567   5.516  -9.201  0.00  0.00     0.089 H 
BRANCH 190 192
ATOM    192  C   LEU d   1       9.455   6.236  -8.491  0.00  0.00     0.196 C 
ATOM    193  O   LEU d   1      10.228   6.380  -7.518  0.00  0.00    -0.646 OA
ATOM    194  OXT LEU d   1       9.740   6.589  -9.654  0.00  0.00    -0.646 OA
ENDBRANCH 190 192
BRANCH 190 195
ATOM    195  CB  LEU d   1       7.255   6.468  -7.295  0.00  0.00    -0.034 C 
ATOM    196  H   LEU d   1       7.190   7.451  -7.761  0.00  0.00     0.037 H 
ATOM    197  H   LEU d   1       7.756   6.432  -6.327  0.00  0.00     0.037 H 
BRANCH 195 198
ATOM    198  CG  LEU d   1       5.809   6.007  -7.052  0.00  0.00    -0.059 C 
ATOM    199  H   LEU d   1       5.791   4.917  -7.073  0.00  0.00     0.038 H 
BRANCH 198 200
ATOM    200  CD1 LEU d   1       5.325   6.482  -5.690  0.00  0.00    -0.073 C 
ATOM    201  H   LEU d   1       5.967   6.067  -4.913  0.00  0.00     0.028 H 
ATOM    202  H   LEU d   1       5.363   7.571  -5.652  0.00  0.00     0.028 H 
ATOM    203  H   LEU d   1       4.300   6.147  -5.533  0.00  0.00     0.028 H 
ENDBRANCH 198 200
BRANCH 198 204
ATOM    204  CD2 LEU d   1       4.884   6.523  -8.148  0.00  0.00    -0.073 C 
ATOM    205  H   LEU d   1       4.909   7.613  -8.159  0.00  0.00     0.028 H 
ATOM    206  H   LEU d   1       5.218   6.141  -9.113  0.00  0.00     0.028 H 
ATOM    207  H   LEU d   1       3.867   6.183  -7.953  0.00  0.00     0.028 H 
ENDBRANCH 198 204
ENDBRANCH 195 198
ENDBRANCH 190 195
ENDBRANCH 188 190
ENDBRANCH 184 186
BRANCH 184 208
ATOM    208  CB  SER d   1       7.497   0.756  -8.405  0.00  0.00     0.044 C 
ATOM    209  H   SER d   1       7.715   0.681  -9.470  0.00  0.00     0.077 H 
ATOM    210  H   SER d   1       6.467   1.070  -8.238  0.00  0.00     0.077 H 
BRANCH 208 211
ATOM    211  OG  SER d   1       7.686  -0.516  -7.813  0.00  0.00    -0.398 OA
ATOM    212  H   SER d   1       7.504  -0.460  -6.872  0.00  0.00     0.209 HD
ENDBRANCH 208 211
ENDBRANCH 184 208
ENDBRANCH 182 184
ENDBRANCH 178 180
BRANCH 178 213
ATOM    213  CB  ALA d   1       9.150   0.960  -3.239  0.00  0.00    -0.049 C 
ATOM    214  H   ALA d   1       8.903   1.059  -2.182  0.00  0.00     0.030 H 
ATOM    215  H   ALA d   1       8.636   0.093  -3.654  0.00  0.00     0.030 H 
ATOM    216  H   ALA d   1      10.227   0.834  -3.352  0.00  0.00     0.030 H 
ENDBRANCH 178 213
ENDBRANCH 176 178
ENDBRANCH 172 174
BRANCH 172 217
ATOM    217  CB  SER d   1       4.773   3.694  -1.879  0.00  0.00     0.044 C 
ATOM    218  H   SER d   1       5.243   4.572  -1.437  0.00  0.00     0.077 H 
ATOM    219  H   SER d   1       5.086   2.783  -1.370  0.00  0.00     0.077 H 
BRANCH 217 220
ATOM    220  OG  SER d   1       3.367   3.822  -1.755  0.00  0.00    -0.398 OA
ATOM    221  H   SER d   1       2.941   3.057  -2.148  0.00  0.00     0.209 HD
ENDBRANCH 217 220
ENDBRANCH 172 217
ENDBRANCH 170 172
ENDBRANCH 166 168
BRANCH 166 222
ATOM    222  CB  ILE d   1       2.211   1.246  -6.053  0.00  0.00    -0.030 C 
ATOM    223  H   ILE d   1       1.757   0.256  -6.105  0.00  0.00     0.043 H 
BRANCH 222 224
ATOM    224  CG1 ILE d   1       1.970   1.971  -7.389  0.00  0.00    -0.063 C 
ATOM    225  H   ILE d   1       2.797   2.666  -7.535  0.00  0.00     0.033 H 
ATOM    226  H   ILE d   1       0.994   2.453  -7.325  0.00  0.00     0.033 H 
BRANCH 224 227
ATOM    227  CD1 ILE d   1       1.939   1.048  -8.593  0.00  0.00    -0.076 C 
ATOM    228  H   ILE d   1       2.893   0.528  -8.675  0.00  0.00     0.027 H 
ATOM    229  H   ILE d   1       1.137   0.320  -8.471  0.00  0.00     0.027 H 
ATOM    230  H   ILE d   1       1.765   1.635  -9.495  0.00  0.00     0.027 H 
ENDBRANCH 224 227
ENDBRANCH 222 224
BRANCH 222 231
ATOM    231  CG2 ILE d   1       1.532   2.002  -4.909  0.00  0.00    -0.071 C 
ATOM    232  H   ILE d   1       1.636   1.431  -3.986  0.00  0.00     0.028 H 
ATOM    233  H   ILE d   1       2.004   2.977  -4.789  0.00  0.00     0.028 H 
ATOM    234  H   ILE d   1       0.475   2.134  -5.139  0.00  0.00     0.028 H 
ENDBRANCH 222 231
ENDBRANCH 166 222
ENDBRANCH 164 166
ENDBRANCH 160 162
BRANCH 160 235
ATOM    235  CB  LYS d   1       4.463  -3.321  -4.496  0.00  0.00    -0.038 C 
ATOM    236  H   LYS d   1       4.988  -3.505  -5.433  0.00  0.00     0.036 H 
ATOM    237  H   LYS d   1       3.392  -3.157  -4.611  0.00  0.00     0.036 H 
BRANCH 235 238
ATOM    238  CG  LYS d   1       4.640  -4.571  -3.623  0.00  0.00    -0.061 C 
ATOM    239  H   LYS d   1       3.801  -5.237  -3.825  0.00  0.00     0.033 H 
ATOM    240  H   LYS d   1       4.687  -4.245  -2.584  0.00  0.00     0.033 H 
BRANCH 238 241
ATOM    241  CD  LYS d   1       5.930  -5.340  -3.929  0.00  0.00    -0.043 C 
ATOM    242  H   LYS d   1       6.055  -5.364  -5.012  0.00  0.00     0.035 H 
ATOM    243  H   LYS d   1       5.838  -6.334  -3.491  0.00  0.00     0.035 H 
BRANCH 241 244
ATOM    244  CE  LYS d   1       7.173  -4.678  -3.329  0.00  0.00     0.080 C 
ATOM    245  H   LYS d   1       7.928  -5.448  -3.174  0.00  0.00     0.075 H 
ATOM    246  H   LYS d   1       6.885  -4.195  -2.395  0.00  0.00     0.075 H 
BRANCH 244 247
ATOM    247  NZ  LYS d   1       7.744  -3.641  -4.233  0.00  0.00    -0.079 N 
ATOM    248  H   LYS d   1       8.568  -3.227  -3.796  0.00  0.00     0.274 HD
ATOM    249  H   LYS d   1       8.008  -4.072  -5.119  0.00  0.00     0.274 HD
ATOM    250  H   LYS d   1       7.046  -2.916  -4.401  0.00  0.00     0.274 HD
ENDBRANCH 244 247
ENDBRANCH 241 244
ENDBRANCH 238 241
ENDBRANCH 235 238
ENDBRANCH 160 235
ENDBRANCH 158 160
ENDBRANCH 154 156
BRANCH 154 251
ATOM    251  CB  VAL d   1       4.258  -1.633   0.630  0.00  0.00    -0.033 C 
ATOM    252  H   VAL d   1       4.263  -2.621   0.169  0.00  0.00     0.042 H 
BRANCH 251 253
ATOM    253  CG1 VAL d   1       5.638  -1.377   1.230  0.00  0.00    -0.071 C 
ATOM    254  H   VAL d   1       6.394  -1.468   0.450  0.00  0.00     0.028 H 
ATOM    255  H   VAL d   1       5.669  -0.372   1.652  0.00  0.00     0.028 H 
ATOM    256  H   VAL d   1       5.833  -2.108   2.014  0.00  0.00     0.028 H 
ENDBRANCH 251 253
BRANCH 251 257
ATOM    257  CG2 VAL d   1       3.207  -1.603   1.737  0.00  0.00    -0.071 C 
ATOM    258  H   VAL d   1       3.163  -0.603   2.168  0.00  0.00     0.028 H 
ATOM    259  H   VAL d   1       2.234  -1.863   1.320  0.00  0.00     0.028 H 
ATOM    260  H   VAL d   1       3.476  -2.322   2.511  0.00  0.00     0.028 H 
ENDBRANCH 251 257
ENDBRANCH 154 251
ENDBRANCH 152 154
ENDBRANCH 148 150
BRANCH 148 261
ATOM    261  CB  ALA d   1      -0.515   0.404  -0.980  0.00  0.00    -0.049 C 
ATOM    262  H   ALA d   1      -1.545   0.194  -1.268  0.00  0.00     0.030 H 
ATOM    263  H   ALA d   1      -0.302  -0.066  -0.020  0.00  0.00     0.030 H 
ATOM    264  H   ALA d   1      -0.371   1.481  -0.899  0.00  0.00     0.030 H 
ENDBRANCH 148 261
ENDBRANCH 146 148
ENDBRANCH 142 144
BRANCH 142 265
ATOM    265  CB  ASN d   1      -0.516  -4.209  -4.005  0.00  0.00     0.036 C 
ATOM    266  H   ASN d   1      -0.472  -3.526  -4.853  0.00  0.00     0.051 H 
ATOM    267  H   ASN d   1      -1.453  -4.125  -3.454  0.00  0.00     0.051 H 
BRANCH 265 268
ATOM    268  CG  ASN d   1      -0.408  -5.625  -4.536  0.00  0.00     0.217 C 
ATOM    269  OD1 ASN d   1      -0.957  -6.563  -3.959  0.00  0.00    -0.274 OA
ATOM    270  ND2 ASN d   1       0.308  -5.787  -5.642  0.00  0.00    -0.370 N 
ATOM    271  H   ASN d   1       0.420  -6.717  -6.045  0.00  0.00     0.159 HD
ATOM    272  H   ASN d   1       0.746  -4.981  -6.088  0.00  0.00     0.159 HD
ENDBRANCH 265 268
ENDBRANCH 142 265
ENDBRANCH 140 142
ENDBRANCH   1 138
BRANCH   1 273
ATOM    273  CB  ALA d   1       0.704  -6.404   0.676  0.00  0.00    -0.049 C 
ATOM    274  H   ALA d   1       0.409  -6.734   1.672  0.00  0.00     0.030 H 
ATOM    275  H   ALA d   1      -0.027  -6.750  -0.055  0.00  0.00     0.030 H 
ATOM    276  H   ALA d   1       1.685  -6.812   0.432  0.00  0.00     0.030 H 
ENDBRANCH   1 273
TORSDOF 85
