REMARK WARNING: 32 MAX_TORS EXCEEDED!!!
REMARK  89 active torsions:
REMARK  status: ('A' for Active; 'I' for Inactive)
REMARK    1  A    between atoms: N_1  and  CA_2 
REMARK    2  A    between atoms: CA_2  and  C_3 
REMARK    3  A    between atoms: CA_2  and  CB_5 
REMARK       I    between atoms: C_3  and  N_12 
REMARK    4  A    between atoms: CB_5  and  CG_6 
REMARK    5  A    between atoms: CG_6  and  CD_7 
REMARK    6  A    between atoms: CD_7  and  NE_8 
REMARK       I    between atoms: NE_8  and  CZ_9 
REMARK       I    between atoms: CZ_9  and  NH1_10 
REMARK       I    between atoms: CZ_9  and  NH2_11 
REMARK    7  A    between atoms: N_12  and  CA_13 
REMARK    8  A    between atoms: CA_13  and  C_14 
REMARK    9  A    between atoms: CA_13  and  CB_16 
REMARK       I    between atoms: C_14  and  N_17 
REMARK   10  A    between atoms: N_17  and  CA_18 
REMARK   11  A    between atoms: CA_18  and  C_19 
REMARK   12  A    between atoms: CA_18  and  CB_21 
REMARK       I    between atoms: C_19  and  N_22 
REMARK   13  A    between atoms: N_22  and  CA_23 
REMARK   14  A    between atoms: CA_23  and  C_24 
REMARK   15  A    between atoms: CA_23  and  CB_26 
REMARK       I    between atoms: C_24  and  N_30 
REMARK   16  A    between atoms: CB_26  and  CG_27 
REMARK       I    between atoms: CG_27  and  ND2_29 
REMARK   17  A    between atoms: N_30  and  CA_31 
REMARK   18  A    between atoms: CA_31  and  C_32 
REMARK   19  A    between atoms: CA_31  and  CB_34 
REMARK       I    between atoms: C_32  and  N_38 
REMARK   20  A    between atoms: CB_34  and  CG_35 
REMARK   21  A    between atoms: CG_35  and  CD1_36 
REMARK   22  A    between atoms: CG_35  and  CD2_37 
REMARK   23  A    between atoms: N_38  and  CA_39 
REMARK   24  A    between atoms: CA_39  and  C_40 
REMARK   25  A    between atoms: CA_39  and  CB_42 
REMARK       I    between atoms: C_40  and  N_52 
REMARK   26  A    between atoms: CB_42  and  CG_43 
REMARK   27  A    between atoms: CA_53  and  C_54 
REMARK       I    between atoms: C_54  and  N_59 
REMARK   28  A    between atoms: N_59  and  CA_60 
REMARK   29  A    between atoms: CA_60  and  C_61 
REMARK   30  A    between atoms: CA_60  and  CB_63 
REMARK       I    between atoms: C_61  and  N_65 
REMARK   31  A    between atoms: CB_63  and  OG_64 
REMARK   32  A    between atoms: CA_66  and  C_67 
REMARK       I    between atoms: C_67  and  N_72 
REMARK   33  A    between atoms: N_72  and  CA_73 
REMARK   34  A    between atoms: CA_73  and  C_74 
REMARK   35  A    between atoms: CA_73  and  CB_76 
REMARK       I    between atoms: C_74  and  N_80 
REMARK   36  A    between atoms: CB_76  and  CG_77 
REMARK   37  A    between atoms: CG_77  and  CD1_78 
REMARK   38  A    between atoms: CG_77  and  CD2_79 
REMARK   39  A    between atoms: N_80  and  CA_81 
REMARK   40  A    between atoms: CA_81  and  C_82 
REMARK   41  A    between atoms: CA_81  and  CB_84 
REMARK       I    between atoms: C_82  and  N_88 
REMARK   42  A    between atoms: CB_84  and  CG_85 
REMARK   43  A    between atoms: CG_85  and  SD_86 
REMARK   44  A    between atoms: SD_86  and  CE_87 
REMARK   45  A    between atoms: N_88  and  CA_89 
REMARK   46  A    between atoms: CA_89  and  C_90 
REMARK   47  A    between atoms: CA_89  and  CB_92 
REMARK       I    between atoms: C_90  and  N_96 
REMARK   48  A    between atoms: CB_92  and  CG1_93 
REMARK   49  A    between atoms: CB_92  and  CG2_94 
REMARK   50  A    between atoms: CG1_93  and  CD1_95 
REMARK   51  A    between atoms: N_96  and  CA_97 
REMARK   52  A    between atoms: CA_97  and  C_98 
REMARK   53  A    between atoms: CA_97  and  CB_100 
REMARK       I    between atoms: C_98  and  N_105 
REMARK   54  A    between atoms: CB_100  and  CG_101 
REMARK   55  A    between atoms: CG_101  and  CD_102 
REMARK   56  A    between atoms: CD_102  and  CE_103 
REMARK   57  A    between atoms: CE_103  and  NZ_104 
REMARK   58  A    between atoms: N_105  and  CA_106 
REMARK   59  A    between atoms: CA_106  and  C_107 
REMARK   60  A    between atoms: CA_106  and  CB_109 
REMARK       I    between atoms: C_107  and  N_116 
REMARK   61  A    between atoms: CB_109  and  CG_110 
REMARK   62  A    between atoms: CG_110  and  CD_111 
REMARK   63  A    between atoms: CD_111  and  NE_112 
REMARK       I    between atoms: NE_112  and  CZ_113 
REMARK       I    between atoms: CZ_113  and  NH1_114 
REMARK       I    between atoms: CZ_113  and  NH2_115 
REMARK   64  A    between atoms: N_116  and  CA_117 
REMARK   65  A    between atoms: CA_117  and  C_118 
REMARK   66  A    between atoms: CA_117  and  CB_120 
REMARK       I    between atoms: C_118  and  N_122 
REMARK   67  A    between atoms: CB_120  and  OG_121 
REMARK   68  A    between atoms: N_122  and  CA_123 
REMARK   69  A    between atoms: CA_123  and  C_124 
REMARK   70  A    between atoms: CA_123  and  CB_126 
REMARK       I    between atoms: C_124  and  N_131 
REMARK   71  A    between atoms: CB_126  and  CG_127 
REMARK   72  A    between atoms: CG_127  and  CD_128 
REMARK   73  A    between atoms: CD_128  and  CE_129 
REMARK   74  A    between atoms: CE_129  and  NZ_130 
REMARK   75  A    between atoms: N_131  and  CA_132 
REMARK   76  A    between atoms: CA_132  and  C_133 
REMARK   77  A    between atoms: CA_132  and  CB_135 
REMARK       I    between atoms: C_133  and  N_140 
REMARK   78  A    between atoms: CB_135  and  CG_136 
REMARK   79  A    between atoms: CG_136  and  CD_137 
REMARK   80  A    between atoms: CD_137  and  CE_138 
REMARK   81  A    between atoms: CE_138  and  NZ_139 
REMARK   82  A    between atoms: N_140  and  CA_141 
REMARK   83  A    between atoms: CA_141  and  C_142 
REMARK   84  A    between atoms: CA_141  and  CB_144 
REMARK       I    between atoms: C_142  and  N_148 
REMARK   85  A    between atoms: CB_144  and  CG_145 
REMARK       I    between atoms: CG_145  and  ND2_147 
REMARK   86  A    between atoms: N_148  and  CA_149 
REMARK   87  A    between atoms: CA_149  and  C_150 
REMARK   88  A    between atoms: CA_149  and  CB_152 
REMARK   89  A    between atoms: CB_152  and  OG_153 
ROOT
ATOM      1  C   LEU d   1       3.016   1.667   6.485  0.00  0.00     0.241 C 
ATOM      2  O   LEU d   1       3.224   0.536   6.921  0.00  0.00    -0.271 OA
ATOM      3  N   MET d   1       3.294   2.774   7.167  0.00  0.00    -0.346 N 
ATOM      4  H   MET d   1       3.117   3.679   6.731  0.00  0.00     0.163 HD
ENDROOT
BRANCH   3   5
ATOM      5  CA  MET d   1       3.843   2.738   8.516  0.00  0.00     0.090 C 
ATOM      6  H   MET d   1       4.719   2.091   8.563  0.00  0.00     0.087 H 
BRANCH   5   7
ATOM      7  C   MET d   1       2.779   2.181   9.456  0.00  0.00     0.241 C 
ATOM      8  O   MET d   1       3.077   1.483  10.430  0.00  0.00    -0.271 OA
ATOM      9  N   ILE d   1       1.529   2.484   9.134  0.00  0.00    -0.346 N 
ATOM     10  H   ILE d   1       1.356   3.087   8.329  0.00  0.00     0.163 HD
BRANCH   9  11
ATOM     11  CA  ILE d   1       0.397   1.980   9.897  0.00  0.00     0.092 C 
ATOM     12  H   ILE d   1       0.566   2.176  10.956  0.00  0.00     0.088 H 
BRANCH  11  13
ATOM     13  C   ILE d   1       0.277   0.480   9.644  0.00  0.00     0.241 C 
ATOM     14  O   ILE d   1      -0.025  -0.302  10.549  0.00  0.00    -0.271 OA
ATOM     15  N   LYS d   1       0.554   0.092   8.403  0.00  0.00    -0.346 N 
ATOM     16  H   LYS d   1       0.793   0.799   7.708  0.00  0.00     0.163 HD
BRANCH  15  17
ATOM     17  CA  LYS d   1       0.528  -1.307   8.002  0.00  0.00     0.089 C 
ATOM     18  H   LYS d   1      -0.456  -1.719   8.228  0.00  0.00     0.087 H 
BRANCH  17  19
ATOM     19  C   LYS d   1       1.596  -2.071   8.774  0.00  0.00     0.241 C 
ATOM     20  O   LYS d   1       1.364  -3.186   9.234  0.00  0.00    -0.271 OA
ATOM     21  N   ARG d   1       2.772  -1.461   8.904  0.00  0.00    -0.346 N 
ATOM     22  H   ARG d   1       2.904  -0.544   8.478  0.00  0.00     0.163 HD
BRANCH  21  23
ATOM     23  CA  ARG d   1       3.877  -2.066   9.638  0.00  0.00     0.089 C 
ATOM     24  H   ARG d   1       4.118  -3.030   9.189  0.00  0.00     0.087 H 
BRANCH  23  25
ATOM     25  C   ARG d   1       3.464  -2.269  11.091  0.00  0.00     0.241 C 
ATOM     26  O   ARG d   1       3.768  -3.294  11.696  0.00  0.00    -0.271 OA
ATOM     27  N   SER d   1       2.760  -1.284  11.632  0.00  0.00    -0.344 N 
ATOM     28  H   SER d   1       2.547  -0.459  11.071  0.00  0.00     0.163 HD
BRANCH  27  29
ATOM     29  CA  SER d   1       2.283  -1.348  13.004  0.00  0.00     0.109 C 
ATOM     30  H   SER d   1       3.121  -1.548  13.671  0.00  0.00     0.090 H 
BRANCH  29  31
ATOM     31  C   SER d   1       1.275  -2.487  13.155  0.00  0.00     0.243 C 
ATOM     32  O   SER d   1       1.281  -3.206  14.155  0.00  0.00    -0.271 OA
ATOM     33  N   LYS d   1       0.429  -2.656  12.145  0.00  0.00    -0.346 N 
ATOM     34  H   LYS d   1       0.479  -2.027  11.344  0.00  0.00     0.163 HD
BRANCH  33  35
ATOM     35  CA  LYS d   1      -0.571  -3.719  12.152  0.00  0.00     0.089 C 
ATOM     36  H   LYS d   1      -1.104  -3.686  13.102  0.00  0.00     0.087 H 
BRANCH  35  37
ATOM     37  C   LYS d   1       0.113  -5.077  12.005  0.00  0.00     0.241 C 
ATOM     38  O   LYS d   1      -0.327  -6.073  12.576  0.00  0.00    -0.271 OA
ATOM     39  N   LYS d   1       1.193  -5.104  11.237  0.00  0.00    -0.346 N 
ATOM     40  H   LYS d   1       1.500  -4.243  10.785  0.00  0.00     0.163 HD
BRANCH  39  41
ATOM     41  CA  LYS d   1       1.956  -6.329  11.018  0.00  0.00     0.089 C 
ATOM     42  H   LYS d   1       1.289  -7.122  10.680  0.00  0.00     0.087 H 
BRANCH  41  43
ATOM     43  C   LYS d   1       2.610  -6.764  12.329  0.00  0.00     0.241 C 
ATOM     44  O   LYS d   1       2.854  -7.949  12.570  0.00  0.00    -0.271 OA
ATOM     45  N   ASN d   1       2.887  -5.778  13.170  0.00  0.00    -0.346 N 
ATOM     46  H   ASN d   1       2.672  -4.820  12.893  0.00  0.00     0.163 HD
BRANCH  45  47
ATOM     47  CA  ASN d   1       3.487  -6.013  14.474  0.00  0.00     0.097 C 
ATOM     48  H   ASN d   1       4.157  -6.871  14.415  0.00  0.00     0.088 H 
BRANCH  47  49
ATOM     49  C   ASN d   1       2.404  -6.333  15.495  0.00  0.00     0.241 C 
ATOM     50  O   ASN d   1       2.596  -7.160  16.382  0.00  0.00    -0.271 OA
ATOM     51  N   SER d   1       1.267  -5.674  15.359  0.00  0.00    -0.343 N 
ATOM     52  H   SER d   1       1.181  -4.992  14.605  0.00  0.00     0.163 HD
BRANCH  51  53
ATOM     53  CA  SER d   1       0.136  -5.886  16.244  0.00  0.00     0.116 C 
ATOM     54  H   SER d   1       0.492  -6.252  17.207  0.00  0.00     0.093 H 
BRANCH  53  55
ATOM     55  C   SER d   1      -0.805  -6.937  15.650  0.00  0.00     0.198 C 
ATOM     56  O   SER d   1      -0.517  -8.151  15.782  0.00  0.00    -0.646 OA
ATOM     57  OXT SER d   1      -1.828  -6.548  15.040  0.00  0.00    -0.646 OA
ENDBRANCH  53  55
BRANCH  53  58
ATOM     58  CB  SER d   1      -0.596  -4.567  16.463  0.00  0.00     0.045 C 
ATOM     59  H   SER d   1      -1.308  -4.696  17.278  0.00  0.00     0.077 H 
ATOM     60  H   SER d   1      -1.101  -4.292  15.537  0.00  0.00     0.077 H 
BRANCH  58  61
ATOM     61  OG  SER d   1       0.312  -3.525  16.813  0.00  0.00    -0.398 OA
ATOM     62  H   SER d   1       0.951  -3.408  16.106  0.00  0.00     0.209 HD
ENDBRANCH  58  61
ENDBRANCH  53  58
ENDBRANCH  51  53
ENDBRANCH  47  49
BRANCH  47  63
ATOM     63  CB  ASN d   1       4.320  -4.794  14.900  0.00  0.00     0.036 C 
ATOM     64  H   ASN d   1       3.712  -3.904  14.739  0.00  0.00     0.051 H 
ATOM     65  H   ASN d   1       5.237  -4.796  14.311  0.00  0.00     0.051 H 
BRANCH  63  66
ATOM     66  CG  ASN d   1       4.713  -4.827  16.368  0.00  0.00     0.217 C 
ATOM     67  OD1 ASN d   1       4.173  -4.076  17.178  0.00  0.00    -0.274 OA
ATOM     68  ND2 ASN d   1       5.645  -5.708  16.725  0.00  0.00    -0.370 N 
ATOM     69  H   ASN d   1       5.934  -5.777  17.701  0.00  0.00     0.159 HD
ATOM     70  H   ASN d   1       6.070  -6.314  16.023  0.00  0.00     0.159 HD
ENDBRANCH  63  66
ENDBRANCH  47  63
ENDBRANCH  45  47
ENDBRANCH  41  43
BRANCH  41  71
ATOM     71  CB  LYS d   1       3.018  -6.090   9.934  0.00  0.00    -0.038 C 
ATOM     72  H   LYS d   1       3.973  -5.951  10.441  0.00  0.00     0.036 H 
ATOM     73  H   LYS d   1       2.696  -5.227   9.351  0.00  0.00     0.036 H 
BRANCH  71  74
ATOM     74  CG  LYS d   1       3.186  -7.252   8.966  0.00  0.00    -0.061 C 
ATOM     75  H   LYS d   1       3.471  -6.851   7.993  0.00  0.00     0.033 H 
ATOM     76  H   LYS d   1       2.243  -7.797   8.915  0.00  0.00     0.033 H 
BRANCH  74  77
ATOM     77  CD  LYS d   1       4.271  -8.212   9.426  0.00  0.00    -0.043 C 
ATOM     78  H   LYS d   1       4.038  -8.537  10.440  0.00  0.00     0.035 H 
ATOM     79  H   LYS d   1       5.230  -7.696   9.384  0.00  0.00     0.035 H 
BRANCH  77  80
ATOM     80  CE  LYS d   1       4.344  -9.437   8.532  0.00  0.00     0.080 C 
ATOM     81  H   LYS d   1       3.382  -9.947   8.585  0.00  0.00     0.075 H 
ATOM     82  H   LYS d   1       5.170 -10.057   8.881  0.00  0.00     0.075 H 
BRANCH  80  83
ATOM     83  NZ  LYS d   1       4.601  -9.095   7.108  0.00  0.00    -0.079 N 
ATOM     84  H   LYS d   1       4.640  -9.952   6.556  0.00  0.00     0.274 HD
ATOM     85  H   LYS d   1       3.849  -8.499   6.761  0.00  0.00     0.274 HD
ATOM     86  H   LYS d   1       5.490  -8.600   7.034  0.00  0.00     0.274 HD
ENDBRANCH  80  83
ENDBRANCH  77  80
ENDBRANCH  74  77
ENDBRANCH  71  74
ENDBRANCH  41  71
ENDBRANCH  39  41
ENDBRANCH  35  37
BRANCH  35  87
ATOM     87  CB  LYS d   1      -1.589  -3.517  11.020  0.00  0.00    -0.038 C 
ATOM     88  H   LYS d   1      -1.028  -3.449  10.088  0.00  0.00     0.036 H 
ATOM     89  H   LYS d   1      -2.163  -2.621  11.256  0.00  0.00     0.036 H 
BRANCH  87  90
ATOM     90  CG  LYS d   1      -2.582  -4.666  10.870  0.00  0.00    -0.061 C 
ATOM     91  H   LYS d   1      -2.020  -5.587  10.711  0.00  0.00     0.033 H 
ATOM     92  H   LYS d   1      -3.239  -4.444  10.029  0.00  0.00     0.033 H 
BRANCH  90  93
ATOM     93  CD  LYS d   1      -3.438  -4.836  12.115  0.00  0.00    -0.043 C 
ATOM     94  H   LYS d   1      -4.282  -4.149  12.048  0.00  0.00     0.035 H 
ATOM     95  H   LYS d   1      -2.819  -4.630  12.988  0.00  0.00     0.035 H 
BRANCH  93  96
ATOM     96  CE  LYS d   1      -3.982  -6.253  12.236  0.00  0.00     0.080 C 
ATOM     97  H   LYS d   1      -4.338  -6.566  11.255  0.00  0.00     0.075 H 
ATOM     98  H   LYS d   1      -4.780  -6.249  12.979  0.00  0.00     0.075 H 
BRANCH  96  99
ATOM     99  NZ  LYS d   1      -2.934  -7.220  12.682  0.00  0.00    -0.079 N 
ATOM    100  H   LYS d   1      -3.341  -8.153  12.749  0.00  0.00     0.274 HD
ATOM    101  H   LYS d   1      -2.171  -7.228  12.005  0.00  0.00     0.274 HD
ATOM    102  H   LYS d   1      -2.578  -6.936  13.595  0.00  0.00     0.274 HD
ENDBRANCH  96  99
ENDBRANCH  93  96
ENDBRANCH  90  93
ENDBRANCH  87  90
ENDBRANCH  35  87
ENDBRANCH  33  35
ENDBRANCH  29  31
BRANCH  29 103
ATOM    103  CB  SER d   1       1.662  -0.003  13.401  0.00  0.00     0.044 C 
ATOM    104  H   SER d   1       1.314  -0.066  14.432  0.00  0.00     0.077 H 
ATOM    105  H   SER d   1       0.833   0.215  12.728  0.00  0.00     0.077 H 
BRANCH 103 106
ATOM    106  OG  SER d   1       2.622   1.041  13.302  0.00  0.00    -0.398 OA
ATOM    107  H   SER d   1       2.938   1.099  12.397  0.00  0.00     0.209 HD
ENDBRANCH 103 106
ENDBRANCH  29 103
ENDBRANCH  27  29
ENDBRANCH  23  25
BRANCH  23 108
ATOM    108  CB  ARG d   1       5.124  -1.176   9.564  0.00  0.00    -0.036 C 
ATOM    109  H   ARG d   1       5.203  -0.656  10.519  0.00  0.00     0.036 H 
ATOM    110  H   ARG d   1       4.998  -0.519   8.703  0.00  0.00     0.036 H 
BRANCH 108 111
ATOM    111  CG  ARG d   1       6.433  -1.939   9.358  0.00  0.00    -0.048 C 
ATOM    112  H   ARG d   1       7.243  -1.212   9.304  0.00  0.00     0.035 H 
ATOM    113  H   ARG d   1       6.342  -2.526   8.444  0.00  0.00     0.035 H 
BRANCH 111 114
ATOM    114  CD  ARG d   1       6.732  -2.897  10.508  0.00  0.00     0.009 C 
ATOM    115  H   ARG d   1       6.262  -3.854  10.281  0.00  0.00     0.064 H 
ATOM    116  H   ARG d   1       6.347  -2.453  11.426  0.00  0.00     0.064 H 
BRANCH 114 117
ATOM    117  NE  ARG d   1       8.169  -3.128  10.684  0.00  0.00    -0.227 N 
ATOM    118  CZ  ARG d   1       8.875  -4.036  10.010  0.00  0.00     0.665 C 
ATOM    119  NH1 ARG d   1       8.290  -4.800   9.095  0.00  0.00    -0.235 N 
ATOM    120  NH2 ARG d   1      10.174  -4.176  10.248  0.00  0.00    -0.235 N 
ATOM    121  H   ARG d   1       7.294  -4.694   8.904  0.00  0.00     0.174 HD
ATOM    122  H   ARG d   1       8.837  -5.492   8.584  0.00  0.00     0.174 HD
ATOM    123  H   ARG d   1      10.631  -3.589  10.946  0.00  0.00     0.174 HD
ATOM    124  H   ARG d   1      10.715  -4.870   9.733  0.00  0.00     0.174 HD
ATOM    125  H   ARG d   1       8.662  -2.555  11.369  0.00  0.00     0.177 HD
ENDBRANCH 114 117
ENDBRANCH 111 114
ENDBRANCH 108 111
ENDBRANCH  23 108
ENDBRANCH  21  23
ENDBRANCH  17  19
BRANCH  17 126
ATOM    126  CB  LYS d   1       0.770  -1.449   6.488  0.00  0.00    -0.038 C 
ATOM    127  H   LYS d   1       1.848  -1.440   6.329  0.00  0.00     0.036 H 
ATOM    128  H   LYS d   1       0.246  -0.629   5.997  0.00  0.00     0.036 H 
BRANCH 126 129
ATOM    129  CG  LYS d   1       0.233  -2.751   5.898  0.00  0.00    -0.061 C 
ATOM    130  H   LYS d   1      -0.493  -2.498   5.125  0.00  0.00     0.033 H 
ATOM    131  H   LYS d   1      -0.210  -3.332   6.707  0.00  0.00     0.033 H 
BRANCH 129 132
ATOM    132  CD  LYS d   1       1.336  -3.595   5.256  0.00  0.00    -0.043 C 
ATOM    133  H   LYS d   1       1.800  -3.001   4.469  0.00  0.00     0.035 H 
ATOM    134  H   LYS d   1       0.882  -4.509   4.873  0.00  0.00     0.035 H 
BRANCH 132 135
ATOM    135  CE  LYS d   1       2.414  -3.986   6.247  0.00  0.00     0.080 C 
ATOM    136  H   LYS d   1       2.344  -5.060   6.417  0.00  0.00     0.075 H 
ATOM    137  H   LYS d   1       2.258  -3.412   7.160  0.00  0.00     0.075 H 
BRANCH 135 138
ATOM    138  NZ  LYS d   1       3.784  -3.686   5.739  0.00  0.00    -0.079 N 
ATOM    139  H   LYS d   1       4.473  -3.965   6.437  0.00  0.00     0.274 HD
ATOM    140  H   LYS d   1       3.946  -4.203   4.875  0.00  0.00     0.274 HD
ATOM    141  H   LYS d   1       3.867  -2.686   5.559  0.00  0.00     0.274 HD
ENDBRANCH 135 138
ENDBRANCH 132 135
ENDBRANCH 129 132
ENDBRANCH 126 129
ENDBRANCH  17 126
ENDBRANCH  15  17
ENDBRANCH  11  13
BRANCH  11 142
ATOM    142  CB  ILE d   1      -0.925   2.699   9.503  0.00  0.00    -0.030 C 
ATOM    143  H   ILE d   1      -1.102   2.520   8.443  0.00  0.00     0.043 H 
BRANCH 142 144
ATOM    144  CG1 ILE d   1      -0.807   4.218   9.729  0.00  0.00    -0.063 C 
ATOM    145  H   ILE d   1      -1.784   4.653   9.518  0.00  0.00     0.033 H 
ATOM    146  H   ILE d   1      -0.011   4.581   9.079  0.00  0.00     0.033 H 
BRANCH 144 147
ATOM    147  CD1 ILE d   1      -0.439   4.604  11.150  0.00  0.00    -0.076 C 
ATOM    148  H   ILE d   1      -1.202   4.235  11.835  0.00  0.00     0.027 H 
ATOM    149  H   ILE d   1       0.525   4.164  11.407  0.00  0.00     0.027 H 
ATOM    150  H   ILE d   1      -0.376   5.690  11.226  0.00  0.00     0.027 H 
ENDBRANCH 144 147
ENDBRANCH 142 144
BRANCH 142 151
ATOM    151  CG2 ILE d   1      -2.106   2.135  10.290  0.00  0.00    -0.071 C 
ATOM    152  H   ILE d   1      -2.208   1.071  10.077  0.00  0.00     0.028 H 
ATOM    153  H   ILE d   1      -1.932   2.279  11.356  0.00  0.00     0.028 H 
ATOM    154  H   ILE d   1      -3.018   2.654   9.996  0.00  0.00     0.028 H 
ENDBRANCH 142 151
ENDBRANCH  11 142
ENDBRANCH   9  11
ENDBRANCH   5   7
BRANCH   5 155
ATOM    155  CB  MET d   1       4.292   4.150   8.927  0.00  0.00    -0.030 C 
ATOM    156  H   MET d   1       3.668   4.851   8.372  0.00  0.00     0.037 H 
ATOM    157  H   MET d   1       5.360   4.213   8.717  0.00  0.00     0.037 H 
BRANCH 155 158
ATOM    158  CG  MET d   1       4.117   4.481  10.400  0.00  0.00    -0.021 C 
ATOM    159  H   MET d   1       4.837   3.891  10.968  0.00  0.00     0.049 H 
ATOM    160  H   MET d   1       3.088   4.255  10.678  0.00  0.00     0.049 H 
BRANCH 158 161
ATOM    161  SD  MET d   1       4.422   6.226  10.748  0.00  0.00    -0.173 SA
BRANCH 161 162
ATOM    162  CE  MET d   1       3.871   6.339  12.449  0.00  0.00    -0.035 C 
ATOM    163  H   MET d   1       2.819   6.061  12.508  0.00  0.00     0.041 H 
ATOM    164  H   MET d   1       4.462   5.663  13.067  0.00  0.00     0.041 H 
ATOM    165  H   MET d   1       3.998   7.362  12.804  0.00  0.00     0.041 H 
ENDBRANCH 161 162
ENDBRANCH 158 161
ENDBRANCH 155 158
ENDBRANCH   5 155
ENDBRANCH   3   5
BRANCH   1 166
ATOM    166  CA  LEU d   1       2.401   1.881   5.106  0.00  0.00     0.089 C 
ATOM    167  H   LEU d   1       1.785   1.020   4.849  0.00  0.00     0.087 H 
BRANCH 166 168
ATOM    168  N   LEU d   1       1.552   3.065   5.124  0.00  0.00    -0.346 N 
ATOM    169  C   PRO d   1       0.446   3.109   5.860  0.00  0.00     0.241 C 
ATOM    170  O   PRO d   1       0.062   2.158   6.540  0.00  0.00    -0.271 OA
ATOM    171  H   LEU d   1       1.811   3.875   4.561  0.00  0.00     0.163 HD
BRANCH 169 172
ATOM    172  CA  PRO d   1      -0.346   4.413   5.820  0.00  0.00     0.091 C 
ATOM    173  N   PRO d   1       0.535   5.587   5.691  0.00  0.00    -0.337 N 
ATOM    174  C   SER d   1       1.542   5.833   6.571  0.00  0.00     0.245 C 
ATOM    175  CD  PRO d   1       0.118   6.443   4.578  0.00  0.00    -0.001 C 
ATOM    176  O   SER d   1       1.696   5.119   7.563  0.00  0.00    -0.271 OA
ATOM    177  CG  PRO d   1      -1.238   5.919   4.209  0.00  0.00    -0.048 C 
ATOM    178  H   PRO d   1       0.818   6.406   3.743  0.00  0.00     0.064 H 
ATOM    179  H   PRO d   1       0.094   7.497   4.853  0.00  0.00     0.064 H 
ATOM    180  CB  PRO d   1      -1.194   4.478   4.551  0.00  0.00    -0.036 C 
ATOM    181  H   PRO d   1      -2.033   6.439   4.744  0.00  0.00     0.035 H 
ATOM    182  H   PRO d   1      -1.461   6.079   3.154  0.00  0.00     0.035 H 
ATOM    183  H   PRO d   1      -2.190   4.063   4.703  0.00  0.00     0.036 H 
ATOM    184  H   PRO d   1      -0.770   3.879   3.745  0.00  0.00     0.036 H 
ATOM    185  H   PRO d   1      -0.927   4.429   6.742  0.00  0.00     0.087 H 
BRANCH 174 186
ATOM    186  CA  SER d   1       2.495   7.031   6.348  0.00  0.00     0.109 C 
ATOM    187  H   SER d   1       3.225   7.000   7.157  0.00  0.00     0.090 H 
BRANCH 186 188
ATOM    188  N   SER d   1       3.198   6.907   5.076  0.00  0.00    -0.344 N 
ATOM    189  C   PRO d   1       3.955   5.847   4.808  0.00  0.00     0.241 C 
ATOM    190  O   PRO d   1       4.117   4.922   5.603  0.00  0.00    -0.271 OA
ATOM    191  H   SER d   1       3.107   7.647   4.380  0.00  0.00     0.163 HD
BRANCH 189 192
ATOM    192  CA  PRO d   1       4.637   5.818   3.445  0.00  0.00     0.091 C 
ATOM    193  N   PRO d   1       3.830   6.448   2.387  0.00  0.00    -0.337 N 
ATOM    194  C   TRP d   1       2.535   6.129   2.145  0.00  0.00     0.243 C 
ATOM    195  CD  PRO d   1       4.666   7.323   1.568  0.00  0.00    -0.001 C 
ATOM    196  O   TRP d   1       1.993   5.183   2.710  0.00  0.00    -0.271 OA
ATOM    197  CG  PRO d   1       6.056   6.997   2.038  0.00  0.00    -0.048 C 
ATOM    198  H   PRO d   1       4.416   8.377   1.685  0.00  0.00     0.064 H 
ATOM    199  H   PRO d   1       4.531   7.158   0.499  0.00  0.00     0.064 H 
ATOM    200  CB  PRO d   1       5.890   6.696   3.453  0.00  0.00    -0.036 C 
ATOM    201  H   PRO d   1       6.493   6.164   1.488  0.00  0.00     0.035 H 
ATOM    202  H   PRO d   1       6.752   7.819   1.870  0.00  0.00     0.035 H 
ATOM    203  H   PRO d   1       6.758   6.207   3.896  0.00  0.00     0.036 H 
ATOM    204  H   PRO d   1       5.791   7.585   4.075  0.00  0.00     0.036 H 
ATOM    205  H   PRO d   1       4.820   4.760   3.258  0.00  0.00     0.087 H 
BRANCH 194 206
ATOM    206  CA  TRP d   1       1.774   6.953   1.093  0.00  0.00     0.093 C 
ATOM    207  H   TRP d   1       0.722   6.668   1.104  0.00  0.00     0.088 H 
BRANCH 206 208
ATOM    208  N   TRP d   1       1.923   8.364   1.439  0.00  0.00    -0.346 N 
ATOM    209  C   LEU d   1       1.099   8.975   2.277  0.00  0.00     0.241 C 
ATOM    210  O   LEU d   1       0.093   8.448   2.734  0.00  0.00    -0.271 OA
ATOM    211  H   TRP d   1       2.687   8.896   1.022  0.00  0.00     0.163 HD
BRANCH 209 212
ATOM    212  CA  LEU d   1       1.434  10.420   2.619  0.00  0.00     0.089 C 
ATOM    213  H   LEU d   1       1.440  10.515   3.705  0.00  0.00     0.087 H 
BRANCH 212 214
ATOM    214  N   LEU d   1       2.761  10.784   2.128  0.00  0.00    -0.346 N 
ATOM    215  C   ASN d   1       3.878  10.335   2.720  0.00  0.00     0.241 C 
ATOM    216  O   ASN d   1       3.844   9.598   3.703  0.00  0.00    -0.271 OA
ATOM    217  H   LEU d   1       2.840  11.395   1.315  0.00  0.00     0.163 HD
BRANCH 215 218
ATOM    218  CA  ASN d   1       5.198  10.803   2.102  0.00  0.00     0.097 C 
ATOM    219  H   ASN d   1       5.987  10.111   2.394  0.00  0.00     0.088 H 
BRANCH 218 220
ATOM    220  N   ASN d   1       5.071  10.818   0.646  0.00  0.00    -0.346 N 
ATOM    221  C   ALA d   1       5.587   9.873  -0.119  0.00  0.00     0.240 C 
ATOM    222  O   ALA d   1       6.404   9.074   0.290  0.00  0.00    -0.271 OA
ATOM    223  H   ASN d   1       4.566  11.586   0.205  0.00  0.00     0.163 HD
BRANCH 221 224
ATOM    224  CA  ALA d   1       5.286   9.945  -1.600  0.00  0.00     0.086 C 
ATOM    225  H   ALA d   1       4.954   8.958  -1.922  0.00  0.00     0.086 H 
BRANCH 224 226
ATOM    226  N   ALA d   1       4.203  10.872  -1.877  0.00  0.00    -0.346 N 
ATOM    227  C   ALA d   1       2.971  10.603  -1.499  0.00  0.00     0.240 C 
ATOM    228  O   ALA d   1       2.674   9.580  -0.890  0.00  0.00    -0.271 OA
ATOM    229  H   ALA d   1       4.399  11.743  -2.371  0.00  0.00     0.163 HD
BRANCH 227 230
ATOM    230  CA  ALA d   1       1.923  11.633  -1.830  0.00  0.00     0.086 C 
ATOM    231  H   ALA d   1       1.145  11.600  -1.067  0.00  0.00     0.086 H 
BRANCH 230 232
ATOM    232  N   ALA d   1       2.496  12.972  -1.826  0.00  0.00    -0.346 N 
ATOM    233  C   ARG d   1       3.066  13.493  -0.741  0.00  0.00     0.248 C 
ATOM    234  O   ARG d   1       3.137  12.891   0.328  0.00  0.00    -0.271 OA
ATOM    235  H   ALA d   1       2.460  13.528  -2.680  0.00  0.00     0.163 HD
BRANCH 233 236
ATOM    236  CA  ARG d   1       3.636  14.900  -0.879  0.00  0.00     0.176 C 
ATOM    237  H   ARG d   1       3.027  15.466  -1.584  0.00  0.00     0.099 H 
BRANCH 236 238
ATOM    238  N   ARG d   1       3.602  15.596   0.423  0.00  0.00    -0.067 N 
ATOM    239  H   ARG d   1       2.640  15.636   0.761  0.00  0.00     0.275 HD
ATOM    240  H   ARG d   1       4.178  15.088   1.094  0.00  0.00     0.275 HD
ATOM    241  H   ARG d   1       3.964  16.543   0.310  0.00  0.00     0.275 HD
ENDBRANCH 236 238
BRANCH 236 242
ATOM    242  CB  ARG d   1       5.068  14.824  -1.412  0.00  0.00    -0.029 C 
ATOM    243  H   ARG d   1       5.561  13.998  -0.899  0.00  0.00     0.036 H 
ATOM    244  H   ARG d   1       5.531  15.795  -1.235  0.00  0.00     0.036 H 
BRANCH 242 245
ATOM    245  CG  ARG d   1       5.158  14.545  -2.911  0.00  0.00    -0.047 C 
ATOM    246  H   ARG d   1       4.157  14.321  -3.280  0.00  0.00     0.035 H 
ATOM    247  H   ARG d   1       5.840  13.709  -3.064  0.00  0.00     0.035 H 
BRANCH 245 248
ATOM    248  CD  ARG d   1       5.694  15.749  -3.677  0.00  0.00     0.009 C 
ATOM    249  H   ARG d   1       6.296  15.386  -4.510  0.00  0.00     0.064 H 
ATOM    250  H   ARG d   1       6.281  16.359  -2.991  0.00  0.00     0.064 H 
BRANCH 248 251
ATOM    251  NE  ARG d   1       4.615  16.571  -4.214  0.00  0.00    -0.227 N 
ATOM    252  CZ  ARG d   1       4.509  16.918  -5.498  0.00  0.00     0.665 C 
ATOM    253  NH1 ARG d   1       5.462  16.596  -6.371  0.00  0.00    -0.235 N 
ATOM    254  NH2 ARG d   1       3.443  17.590  -5.908  0.00  0.00    -0.235 N 
ATOM    255  H   ARG d   1       6.284  16.078  -6.061  0.00  0.00     0.174 HD
ATOM    256  H   ARG d   1       5.370  16.867  -7.350  0.00  0.00     0.174 HD
ATOM    257  H   ARG d   1       2.710  17.839  -5.244  0.00  0.00     0.174 HD
ATOM    258  H   ARG d   1       3.355  17.859  -6.888  0.00  0.00     0.174 HD
ATOM    259  H   ARG d   1       3.898  16.901  -3.568  0.00  0.00     0.177 HD
ENDBRANCH 248 251
ENDBRANCH 245 248
ENDBRANCH 242 245
ENDBRANCH 236 242
ENDBRANCH 233 236
ENDBRANCH 230 232
BRANCH 230 260
ATOM    260  CB  ALA d   1       1.302  11.320  -3.176  0.00  0.00    -0.049 C 
ATOM    261  H   ALA d   1       0.513  12.042  -3.388  0.00  0.00     0.030 H 
ATOM    262  H   ALA d   1       2.067  11.379  -3.950  0.00  0.00     0.030 H 
ATOM    263  H   ALA d   1       0.880  10.315  -3.155  0.00  0.00     0.030 H 
ENDBRANCH 230 260
ENDBRANCH 227 230
ENDBRANCH 224 226
BRANCH 224 264
ATOM    264  CB  ALA d   1       6.528  10.290  -2.387  0.00  0.00    -0.049 C 
ATOM    265  H   ALA d   1       6.304  10.250  -3.453  0.00  0.00     0.030 H 
ATOM    266  H   ALA d   1       6.858  11.294  -2.121  0.00  0.00     0.030 H 
ATOM    267  H   ALA d   1       7.316   9.574  -2.153  0.00  0.00     0.030 H 
ENDBRANCH 224 264
ENDBRANCH 221 224
ENDBRANCH 218 220
BRANCH 218 268
ATOM    268  CB  ASN d   1       5.579  12.189   2.611  0.00  0.00     0.036 C 
ATOM    269  H   ASN d   1       5.792  12.104   3.677  0.00  0.00     0.051 H 
ATOM    270  H   ASN d   1       4.749  12.861   2.393  0.00  0.00     0.051 H 
BRANCH 268 271
ATOM    271  CG  ASN d   1       6.817  12.751   1.937  0.00  0.00     0.217 C 
ATOM    272  OD1 ASN d   1       6.865  12.878   0.712  0.00  0.00    -0.274 OA
ATOM    273  ND2 ASN d   1       7.810  13.121   2.726  0.00  0.00    -0.370 N 
ATOM    274  H   ASN d   1       8.655  13.528   2.325  0.00  0.00     0.159 HD
ATOM    275  H   ASN d   1       7.732  12.999   3.736  0.00  0.00     0.159 HD
ENDBRANCH 268 271
ENDBRANCH 218 268
ENDBRANCH 215 218
ENDBRANCH 212 214
BRANCH 212 276
ATOM    276  CB  LEU d   1       0.374  11.365   2.055  0.00  0.00    -0.035 C 
ATOM    277  H   LEU d   1      -0.419  10.739   1.645  0.00  0.00     0.037 H 
ATOM    278  H   LEU d   1       0.878  12.006   1.331  0.00  0.00     0.037 H 
BRANCH 276 279
ATOM    279  CG  LEU d   1      -0.285  12.295   3.086  0.00  0.00    -0.059 C 
ATOM    280  H   LEU d   1      -0.530  11.702   3.967  0.00  0.00     0.038 H 
BRANCH 279 281
ATOM    281  CD1 LEU d   1       0.669  13.399   3.501  0.00  0.00    -0.073 C 
ATOM    282  H   LEU d   1       1.562  12.958   3.944  0.00  0.00     0.028 H 
ATOM    283  H   LEU d   1       0.948  13.985   2.625  0.00  0.00     0.028 H 
ATOM    284  H   LEU d   1       0.180  14.044   4.231  0.00  0.00     0.028 H 
ENDBRANCH 279 281
BRANCH 279 285
ATOM    285  CD2 LEU d   1      -1.572  12.888   2.531  0.00  0.00    -0.073 C 
ATOM    286  H   LEU d   1      -1.348  13.461   1.631  0.00  0.00     0.028 H 
ATOM    287  H   LEU d   1      -2.266  12.083   2.288  0.00  0.00     0.028 H 
ATOM    288  H   LEU d   1      -2.021  13.543   3.278  0.00  0.00     0.028 H 
ENDBRANCH 279 285
ENDBRANCH 276 279
ENDBRANCH 212 276
ENDBRANCH 209 212
ENDBRANCH 206 208
BRANCH 206 289
ATOM    289  CB  TRP d   1       2.262   6.671  -0.341  0.00  0.00    -0.012 C 
ATOM    290  H   TRP d   1       2.689   5.668  -0.350  0.00  0.00     0.044 H 
ATOM    291  H   TRP d   1       2.977   7.451  -0.603  0.00  0.00     0.044 H 
BRANCH 289 292
ATOM    292  CG  TRP d   1       1.164   6.703  -1.367  0.00  0.00    -0.028 A 
ATOM    293  CD1 TRP d   1       0.158   7.626  -1.485  0.00  0.00    -0.015 A 
ATOM    294  NE1 TRP d   1      -0.632   7.331  -2.557  0.00  0.00    -0.365 N 
ATOM    295  H   TRP d   1       0.010   8.475  -0.817  0.00  0.00     0.112 H 
ATOM    296  CE2 TRP d   1      -0.148   6.215  -3.165  0.00  0.00     0.042 A 
ATOM    297  H   TRP d   1      -1.452   7.861  -2.854  0.00  0.00     0.165 HD
ATOM    298  CD2 TRP d   1       0.979   5.787  -2.442  0.00  0.00    -0.002 A 
ATOM    299  CZ2 TRP d   1      -0.603   5.552  -4.289  0.00  0.00    -0.056 A 
ATOM    300  CE3 TRP d   1       1.660   4.646  -2.866  0.00  0.00    -0.070 A 
ATOM    301  CZ3 TRP d   1       1.204   3.986  -3.985  0.00  0.00    -0.082 A 
ATOM    302  H   TRP d   1       2.534   4.285  -2.324  0.00  0.00     0.084 H 
ATOM    303  CH2 TRP d   1       0.084   4.444  -4.687  0.00  0.00    -0.081 A 
ATOM    304  H   TRP d   1       1.724   3.092  -4.330  0.00  0.00     0.083 H 
ATOM    305  H   TRP d   1      -0.247   3.902  -5.573  0.00  0.00     0.083 H 
ATOM    306  H   TRP d   1      -1.478   5.902  -4.837  0.00  0.00     0.086 H 
ENDBRANCH 289 292
ENDBRANCH 206 289
ENDBRANCH 194 206
ENDBRANCH 189 192
ENDBRANCH 186 188
BRANCH 186 307
ATOM    307  CB  SER d   1       1.784   8.392   6.452  0.00  0.00     0.044 C 
ATOM    308  H   SER d   1       1.223   8.558   5.532  0.00  0.00     0.077 H 
ATOM    309  H   SER d   1       2.538   9.163   6.608  0.00  0.00     0.077 H 
BRANCH 307 310
ATOM    310  OG  SER d   1       0.875   8.427   7.544  0.00  0.00    -0.398 OA
ATOM    311  H   SER d   1       0.451   9.288   7.579  0.00  0.00     0.209 HD
ENDBRANCH 307 310
ENDBRANCH 186 307
ENDBRANCH 174 186
ENDBRANCH 169 172
ENDBRANCH 166 168
BRANCH 166 312
ATOM    312  CB  LEU d   1       3.494   2.002   4.051  0.00  0.00    -0.035 C 
ATOM    313  H   LEU d   1       4.297   2.594   4.489  0.00  0.00     0.037 H 
ATOM    314  H   LEU d   1       3.037   2.447   3.167  0.00  0.00     0.037 H 
BRANCH 312 315
ATOM    315  CG  LEU d   1       4.106   0.666   3.617  0.00  0.00    -0.059 C 
ATOM    316  H   LEU d   1       4.226   0.035   4.498  0.00  0.00     0.038 H 
BRANCH 315 317
ATOM    317  CD1 LEU d   1       3.180  -0.051   2.641  0.00  0.00    -0.073 C 
ATOM    318  H   LEU d   1       2.221  -0.239   3.124  0.00  0.00     0.028 H 
ATOM    319  H   LEU d   1       3.029   0.573   1.760  0.00  0.00     0.028 H 
ATOM    320  H   LEU d   1       3.631  -0.998   2.344  0.00  0.00     0.028 H 
ENDBRANCH 315 317
BRANCH 315 321
ATOM    321  CD2 LEU d   1       5.476   0.886   3.001  0.00  0.00    -0.073 C 
ATOM    322  H   LEU d   1       5.381   1.533   2.129  0.00  0.00     0.028 H 
ATOM    323  H   LEU d   1       6.131   1.356   3.734  0.00  0.00     0.028 H 
ATOM    324  H   LEU d   1       5.895  -0.074   2.699  0.00  0.00     0.028 H 
ENDBRANCH 315 321
ENDBRANCH 312 315
ENDBRANCH 166 312
ENDBRANCH   1 166
TORSDOF 89
