REMARK WARNING: 32 MAX_TORS EXCEEDED!!!
REMARK  89 active torsions:
REMARK  status: ('A' for Active; 'I' for Inactive)
REMARK    1  A    between atoms: N_1  and  CA_2 
REMARK    2  A    between atoms: CA_2  and  C_3 
REMARK    3  A    between atoms: CA_2  and  CB_5 
REMARK       I    between atoms: C_3  and  N_12 
REMARK    4  A    between atoms: CB_5  and  CG_6 
REMARK    5  A    between atoms: CG_6  and  CD_7 
REMARK    6  A    between atoms: CD_7  and  NE_8 
REMARK       I    between atoms: NE_8  and  CZ_9 
REMARK       I    between atoms: CZ_9  and  NH1_10 
REMARK       I    between atoms: CZ_9  and  NH2_11 
REMARK    7  A    between atoms: N_12  and  CA_13 
REMARK    8  A    between atoms: CA_13  and  C_14 
REMARK    9  A    between atoms: CA_13  and  CB_16 
REMARK       I    between atoms: C_14  and  N_17 
REMARK   10  A    between atoms: N_17  and  CA_18 
REMARK   11  A    between atoms: CA_18  and  C_19 
REMARK   12  A    between atoms: CA_18  and  CB_21 
REMARK       I    between atoms: C_19  and  N_22 
REMARK   13  A    between atoms: N_22  and  CA_23 
REMARK   14  A    between atoms: CA_23  and  C_24 
REMARK   15  A    between atoms: CA_23  and  CB_26 
REMARK       I    between atoms: C_24  and  N_30 
REMARK   16  A    between atoms: CB_26  and  CG_27 
REMARK       I    between atoms: CG_27  and  ND2_29 
REMARK   17  A    between atoms: N_30  and  CA_31 
REMARK   18  A    between atoms: CA_31  and  C_32 
REMARK   19  A    between atoms: CA_31  and  CB_34 
REMARK       I    between atoms: C_32  and  N_38 
REMARK   20  A    between atoms: CB_34  and  CG_35 
REMARK   21  A    between atoms: CG_35  and  CD1_36 
REMARK   22  A    between atoms: CG_35  and  CD2_37 
REMARK   23  A    between atoms: N_38  and  CA_39 
REMARK   24  A    between atoms: CA_39  and  C_40 
REMARK   25  A    between atoms: CA_39  and  CB_42 
REMARK       I    between atoms: C_40  and  N_52 
REMARK   26  A    between atoms: CB_42  and  CG_43 
REMARK   27  A    between atoms: CA_53  and  C_54 
REMARK       I    between atoms: C_54  and  N_59 
REMARK   28  A    between atoms: N_59  and  CA_60 
REMARK   29  A    between atoms: CA_60  and  C_61 
REMARK   30  A    between atoms: CA_60  and  CB_63 
REMARK       I    between atoms: C_61  and  N_65 
REMARK   31  A    between atoms: CB_63  and  OG_64 
REMARK   32  A    between atoms: CA_66  and  C_67 
REMARK       I    between atoms: C_67  and  N_72 
REMARK   33  A    between atoms: N_72  and  CA_73 
REMARK   34  A    between atoms: CA_73  and  C_74 
REMARK   35  A    between atoms: CA_73  and  CB_76 
REMARK       I    between atoms: C_74  and  N_80 
REMARK   36  A    between atoms: CB_76  and  CG_77 
REMARK   37  A    between atoms: CG_77  and  CD1_78 
REMARK   38  A    between atoms: CG_77  and  CD2_79 
REMARK   39  A    between atoms: N_80  and  CA_81 
REMARK   40  A    between atoms: CA_81  and  C_82 
REMARK   41  A    between atoms: CA_81  and  CB_84 
REMARK       I    between atoms: C_82  and  N_88 
REMARK   42  A    between atoms: CB_84  and  CG_85 
REMARK   43  A    between atoms: CG_85  and  SD_86 
REMARK   44  A    between atoms: SD_86  and  CE_87 
REMARK   45  A    between atoms: N_88  and  CA_89 
REMARK   46  A    between atoms: CA_89  and  C_90 
REMARK   47  A    between atoms: CA_89  and  CB_92 
REMARK       I    between atoms: C_90  and  N_96 
REMARK   48  A    between atoms: CB_92  and  CG1_93 
REMARK   49  A    between atoms: CB_92  and  CG2_94 
REMARK   50  A    between atoms: CG1_93  and  CD1_95 
REMARK   51  A    between atoms: N_96  and  CA_97 
REMARK   52  A    between atoms: CA_97  and  C_98 
REMARK   53  A    between atoms: CA_97  and  CB_100 
REMARK       I    between atoms: C_98  and  N_105 
REMARK   54  A    between atoms: CB_100  and  CG_101 
REMARK   55  A    between atoms: CG_101  and  CD_102 
REMARK   56  A    between atoms: CD_102  and  CE_103 
REMARK   57  A    between atoms: CE_103  and  NZ_104 
REMARK   58  A    between atoms: N_105  and  CA_106 
REMARK   59  A    between atoms: CA_106  and  C_107 
REMARK   60  A    between atoms: CA_106  and  CB_109 
REMARK       I    between atoms: C_107  and  N_116 
REMARK   61  A    between atoms: CB_109  and  CG_110 
REMARK   62  A    between atoms: CG_110  and  CD_111 
REMARK   63  A    between atoms: CD_111  and  NE_112 
REMARK       I    between atoms: NE_112  and  CZ_113 
REMARK       I    between atoms: CZ_113  and  NH1_114 
REMARK   64  A    between atoms: N_116  and  CA_117 
REMARK   65  A    between atoms: CA_117  and  C_118 
REMARK   66  A    between atoms: CA_117  and  CB_120 
REMARK       I    between atoms: C_118  and  N_122 
REMARK   67  A    between atoms: CB_120  and  OG_121 
REMARK   68  A    between atoms: N_122  and  CA_123 
REMARK   69  A    between atoms: CA_123  and  C_124 
REMARK   70  A    between atoms: CA_123  and  CB_126 
REMARK       I    between atoms: C_124  and  N_131 
REMARK   71  A    between atoms: CB_126  and  CG_127 
REMARK   72  A    between atoms: CG_127  and  CD_128 
REMARK   73  A    between atoms: CD_128  and  CE_129 
REMARK   74  A    between atoms: CE_129  and  NZ_130 
REMARK   75  A    between atoms: N_131  and  CA_132 
REMARK   76  A    between atoms: CA_132  and  C_133 
REMARK   77  A    between atoms: CA_132  and  CB_135 
REMARK       I    between atoms: C_133  and  N_140 
REMARK   78  A    between atoms: CB_135  and  CG_136 
REMARK   79  A    between atoms: CG_136  and  CD_137 
REMARK   80  A    between atoms: CD_137  and  CE_138 
REMARK   81  A    between atoms: CE_138  and  NZ_139 
REMARK   82  A    between atoms: N_140  and  CA_141 
REMARK   83  A    between atoms: CA_141  and  C_142 
REMARK   84  A    between atoms: CA_141  and  CB_144 
REMARK       I    between atoms: C_142  and  N_148 
REMARK   85  A    between atoms: CB_144  and  CG_145 
REMARK       I    between atoms: CG_145  and  ND2_147 
REMARK   86  A    between atoms: N_148  and  CA_149 
REMARK   87  A    between atoms: CA_149  and  C_150 
REMARK   88  A    between atoms: CA_149  and  CB_152 
REMARK   89  A    between atoms: CB_152  and  OG_153 
ROOT
ATOM      1  C   LEU d   1      -0.664   0.190   6.304  0.00  0.00     0.241 C 
ATOM      2  O   LEU d   1      -0.290  -0.841   6.870  0.00  0.00    -0.271 OA
ATOM      3  N   MET d   1      -1.178   1.230   6.953  0.00  0.00    -0.346 N 
ATOM      4  H   MET d   1      -1.454   2.054   6.418  0.00  0.00     0.163 HD
ENDROOT
BRANCH   3   5
ATOM      5  CA  MET d   1      -1.363   1.239   8.399  0.00  0.00     0.090 C 
ATOM      6  H   MET d   1      -0.426   0.972   8.889  0.00  0.00     0.087 H 
BRANCH   5   7
ATOM      7  C   MET d   1      -2.435   0.226   8.765  0.00  0.00     0.241 C 
ATOM      8  O   MET d   1      -2.387  -0.405   9.825  0.00  0.00    -0.271 OA
ATOM      9  N   ILE d   1      -3.401   0.073   7.864  0.00  0.00    -0.346 N 
ATOM     10  H   ILE d   1      -3.386   0.645   7.019  0.00  0.00     0.163 HD
BRANCH   9  11
ATOM     11  CA  ILE d   1      -4.477  -0.885   8.048  0.00  0.00     0.092 C 
ATOM     12  H   ILE d   1      -4.948  -0.685   9.011  0.00  0.00     0.088 H 
BRANCH  11  13
ATOM     13  C   ILE d   1      -3.900  -2.298   8.026  0.00  0.00     0.241 C 
ATOM     14  O   ILE d   1      -4.396  -3.186   8.705  0.00  0.00    -0.271 OA
ATOM     15  N   LYS d   1      -2.841  -2.491   7.243  0.00  0.00    -0.346 N 
ATOM     16  H   LYS d   1      -2.490  -1.716   6.681  0.00  0.00     0.163 HD
BRANCH  15  17
ATOM     17  CA  LYS d   1      -2.171  -3.784   7.170  0.00  0.00     0.089 C 
ATOM     18  H   LYS d   1      -2.892  -4.542   6.862  0.00  0.00     0.087 H 
BRANCH  17  19
ATOM     19  C   LYS d   1      -1.612  -4.127   8.542  0.00  0.00     0.241 C 
ATOM     20  O   LYS d   1      -1.763  -5.250   9.027  0.00  0.00    -0.271 OA
ATOM     21  N   ARG d   1      -0.975  -3.144   9.170  0.00  0.00    -0.346 N 
ATOM     22  H   ARG d   1      -0.874  -2.239   8.710  0.00  0.00     0.163 HD
BRANCH  21  23
ATOM     23  CA  ARG d   1      -0.418  -3.334  10.504  0.00  0.00     0.089 C 
ATOM     24  H   ARG d   1       0.219  -4.218  10.492  0.00  0.00     0.087 H 
BRANCH  23  25
ATOM     25  C   ARG d   1      -1.551  -3.540  11.508  0.00  0.00     0.241 C 
ATOM     26  O   ARG d   1      -1.423  -4.302  12.466  0.00  0.00    -0.271 OA
ATOM     27  N   SER d   1      -2.662  -2.848  11.275  0.00  0.00    -0.344 N 
ATOM     28  H   SER d   1      -2.693  -2.219  10.473  0.00  0.00     0.163 HD
BRANCH  27  29
ATOM     29  CA  SER d   1      -3.836  -2.961  12.130  0.00  0.00     0.109 C 
ATOM     30  H   SER d   1      -3.536  -2.842  13.171  0.00  0.00     0.090 H 
BRANCH  29  31
ATOM     31  C   SER d   1      -4.471  -4.337  11.954  0.00  0.00     0.243 C 
ATOM     32  O   SER d   1      -4.969  -4.934  12.908  0.00  0.00    -0.271 OA
ATOM     33  N   LYS d   1      -4.442  -4.831  10.721  0.00  0.00    -0.346 N 
ATOM     34  H   LYS d   1      -4.021  -4.274   9.978  0.00  0.00     0.163 HD
BRANCH  33  35
ATOM     35  CA  LYS d   1      -4.989  -6.137  10.394  0.00  0.00     0.089 C 
ATOM     36  H   LYS d   1      -6.015  -6.197  10.758  0.00  0.00     0.087 H 
BRANCH  35  37
ATOM     37  C   LYS d   1      -4.156  -7.216  11.065  0.00  0.00     0.241 C 
ATOM     38  O   LYS d   1      -4.665  -8.270  11.424  0.00  0.00    -0.271 OA
ATOM     39  N   LYS d   1      -2.868  -6.932  11.222  0.00  0.00    -0.346 N 
ATOM     40  H   LYS d   1      -2.509  -6.044  10.871  0.00  0.00     0.163 HD
BRANCH  39  41
ATOM     41  CA  LYS d   1      -1.955  -7.854  11.881  0.00  0.00     0.089 C 
ATOM     42  H   LYS d   1      -2.015  -8.836  11.411  0.00  0.00     0.087 H 
BRANCH  41  43
ATOM     43  C   LYS d   1      -2.350  -7.967  13.349  0.00  0.00     0.241 C 
ATOM     44  O   LYS d   1      -2.384  -9.057  13.919  0.00  0.00    -0.271 OA
ATOM     45  N   ASN d   1      -2.668  -6.820  13.942  0.00  0.00    -0.346 N 
ATOM     46  H   ASN d   1      -2.605  -5.953  13.408  0.00  0.00     0.163 HD
BRANCH  45  47
ATOM     47  CA  ASN d   1      -3.103  -6.764  15.329  0.00  0.00     0.097 C 
ATOM     48  H   ASN d   1      -2.384  -7.289  15.958  0.00  0.00     0.088 H 
BRANCH  47  49
ATOM     49  C   ASN d   1      -4.463  -7.442  15.456  0.00  0.00     0.241 C 
ATOM     50  O   ASN d   1      -4.713  -8.195  16.397  0.00  0.00    -0.271 OA
ATOM     51  N   SER d   1      -5.331  -7.183  14.485  0.00  0.00    -0.343 N 
ATOM     52  H   SER d   1      -5.061  -6.546  13.736  0.00  0.00     0.163 HD
BRANCH  51  53
ATOM     53  CA  SER d   1      -6.656  -7.782  14.459  0.00  0.00     0.116 C 
ATOM     54  H   SER d   1      -7.169  -7.567  15.397  0.00  0.00     0.093 H 
BRANCH  53  55
ATOM     55  C   SER d   1      -6.529  -9.296  14.299  0.00  0.00     0.198 C 
ATOM     56  O   SER d   1      -7.322 -10.080  14.885  0.00  0.00    -0.646 OA
ATOM     57  O   SER d   1      -5.616  -9.768  13.570  0.00  0.00    -0.646 OA
ENDBRANCH  53  55
BRANCH  53  58
ATOM     58  CB  SER d   1      -7.480  -7.187  13.310  0.00  0.00     0.045 C 
ATOM     59  H   SER d   1      -7.105  -7.596  12.372  0.00  0.00     0.077 H 
ATOM     60  H   SER d   1      -7.384  -6.102  13.346  0.00  0.00     0.077 H 
BRANCH  58  61
ATOM     61  OG  SER d   1      -8.857  -7.517  13.421  0.00  0.00    -0.398 OA
ATOM     62  H   SER d   1      -9.338  -7.128  12.687  0.00  0.00     0.209 HD
ENDBRANCH  58  61
ENDBRANCH  53  58
ENDBRANCH  51  53
ENDBRANCH  47  49
BRANCH  47  63
ATOM     63  CB  ASN d   1      -3.172  -5.307  15.809  0.00  0.00     0.036 C 
ATOM     64  H   ASN d   1      -3.627  -4.716  15.014  0.00  0.00     0.051 H 
ATOM     65  H   ASN d   1      -2.158  -4.987  16.048  0.00  0.00     0.051 H 
BRANCH  63  66
ATOM     66  CG  ASN d   1      -4.018  -5.136  17.057  0.00  0.00     0.217 C 
ATOM     67  OD1 ASN d   1      -5.206  -4.824  16.977  0.00  0.00    -0.274 OA
ATOM     68  ND2 ASN d   1      -3.413  -5.329  18.213  0.00  0.00    -0.370 N 
ATOM     69  H   ASN d   1      -3.932  -5.221  19.084  0.00  0.00     0.159 HD
ATOM     70  H   ASN d   1      -2.426  -5.587  18.235  0.00  0.00     0.159 HD
ENDBRANCH  63  66
ENDBRANCH  47  63
ENDBRANCH  45  47
ENDBRANCH  41  43
BRANCH  41  71
ATOM     71  CB  LYS d   1      -0.516  -7.351  11.751  0.00  0.00    -0.038 C 
ATOM     72  H   LYS d   1      -0.366  -6.598  12.524  0.00  0.00     0.036 H 
ATOM     73  H   LYS d   1      -0.396  -6.974  10.735  0.00  0.00     0.036 H 
BRANCH  71  74
ATOM     74  CG  LYS d   1       0.538  -8.428  11.960  0.00  0.00    -0.061 C 
ATOM     75  H   LYS d   1       0.409  -9.196  11.197  0.00  0.00     0.033 H 
ATOM     76  H   LYS d   1       0.417  -8.846  12.960  0.00  0.00     0.033 H 
BRANCH  74  77
ATOM     77  CD  LYS d   1       1.940  -7.851  11.839  0.00  0.00    -0.043 C 
ATOM     78  H   LYS d   1       2.231  -7.451  12.810  0.00  0.00     0.035 H 
ATOM     79  H   LYS d   1       1.927  -7.078  11.071  0.00  0.00     0.035 H 
BRANCH  77  80
ATOM     80  CE  LYS d   1       2.952  -8.910  11.435  0.00  0.00     0.080 C 
ATOM     81  H   LYS d   1       2.538  -9.481  10.604  0.00  0.00     0.075 H 
ATOM     82  H   LYS d   1       3.151  -9.543  12.300  0.00  0.00     0.075 H 
BRANCH  80  83
ATOM     83  NZ  LYS d   1       4.237  -8.303  10.993  0.00  0.00    -0.079 N 
ATOM     84  H   LYS d   1       4.889  -9.043  10.731  0.00  0.00     0.274 HD
ATOM     85  H   LYS d   1       4.067  -7.697  10.190  0.00  0.00     0.274 HD
ATOM     86  H   LYS d   1       4.633  -7.754  11.756  0.00  0.00     0.274 HD
ENDBRANCH  80  83
ENDBRANCH  77  80
ENDBRANCH  74  77
ENDBRANCH  71  74
ENDBRANCH  41  71
ENDBRANCH  39  41
ENDBRANCH  35  37
BRANCH  35  87
ATOM     87  CB  LYS d   1      -5.008  -6.344   8.876  0.00  0.00    -0.038 C 
ATOM     88  H   LYS d   1      -3.989  -6.576   8.567  0.00  0.00     0.036 H 
ATOM     89  H   LYS d   1      -5.407  -5.433   8.429  0.00  0.00     0.036 H 
BRANCH  87  90
ATOM     90  CG  LYS d   1      -5.892  -7.496   8.423  0.00  0.00    -0.061 C 
ATOM     91  H   LYS d   1      -5.577  -8.399   8.945  0.00  0.00     0.033 H 
ATOM     92  H   LYS d   1      -5.792  -7.604   7.343  0.00  0.00     0.033 H 
BRANCH  90  93
ATOM     93  CD  LYS d   1      -7.357  -7.237   8.749  0.00  0.00    -0.043 C 
ATOM     94  H   LYS d   1      -7.618  -6.242   8.388  0.00  0.00     0.035 H 
ATOM     95  H   LYS d   1      -7.489  -7.322   9.828  0.00  0.00     0.035 H 
BRANCH  93  96
ATOM     96  CE  LYS d   1      -8.271  -8.247   8.074  0.00  0.00     0.080 C 
ATOM     97  H   LYS d   1      -8.114  -8.184   6.997  0.00  0.00     0.075 H 
ATOM     98  H   LYS d   1      -9.300  -8.014   8.350  0.00  0.00     0.075 H 
BRANCH  96  99
ATOM     99  NZ  LYS d   1      -7.976  -9.641   8.507  0.00  0.00    -0.079 N 
ATOM    100  H   LYS d   1      -8.609 -10.284   8.032  0.00  0.00     0.274 HD
ATOM    101  H   LYS d   1      -7.012  -9.873   8.268  0.00  0.00     0.274 HD
ATOM    102  H   LYS d   1      -8.106  -9.717   9.516  0.00  0.00     0.274 HD
ENDBRANCH  96  99
ENDBRANCH  93  96
ENDBRANCH  90  93
ENDBRANCH  87  90
ENDBRANCH  35  87
ENDBRANCH  33  35
ENDBRANCH  29  31
BRANCH  29 103
ATOM    103  CB  SER d   1      -4.844  -1.861  11.781  0.00  0.00     0.044 C 
ATOM    104  H   SER d   1      -5.703  -1.952  12.446  0.00  0.00     0.077 H 
ATOM    105  H   SER d   1      -5.139  -1.978  10.738  0.00  0.00     0.077 H 
BRANCH 103 106
ATOM    106  OG  SER d   1      -4.275  -0.569  11.950  0.00  0.00    -0.398 OA
ATOM    107  H   SER d   1      -3.512  -0.479  11.375  0.00  0.00     0.209 HD
ENDBRANCH 103 106
ENDBRANCH  29 103
ENDBRANCH  27  29
ENDBRANCH  23  25
BRANCH  23 108
ATOM    108  CB  ARG d   1       0.446  -2.137  10.915  0.00  0.00    -0.036 C 
ATOM    109  H   ARG d   1      -0.221  -1.368  11.305  0.00  0.00     0.036 H 
ATOM    110  H   ARG d   1       1.006  -1.817  10.036  0.00  0.00     0.036 H 
BRANCH 108 111
ATOM    111  CG  ARG d   1       1.455  -2.468  12.007  0.00  0.00    -0.048 C 
ATOM    112  H   ARG d   1       2.440  -2.139  11.674  0.00  0.00     0.035 H 
ATOM    113  H   ARG d   1       1.425  -3.543  12.186  0.00  0.00     0.035 H 
BRANCH 111 114
ATOM    114  CD  ARG d   1       1.130  -1.758  13.311  0.00  0.00     0.009 C 
ATOM    115  H   ARG d   1       1.488  -2.377  14.134  0.00  0.00     0.064 H 
ATOM    116  H   ARG d   1       0.052  -1.603  13.355  0.00  0.00     0.064 H 
BRANCH 114 117
ATOM    117  NE  ARG d   1       1.783  -0.454  13.402  0.00  0.00    -0.227 N 
ATOM    118  CZ  ARG d   1       1.437   0.494  14.272  0.00  0.00     0.665 C 
ATOM    119  NH1 ARG d   1       0.446   0.288  15.133  0.00  0.00    -0.235 N 
ATOM    120  NH2 ARG d   1       2.089   1.650  14.286  0.00  0.00    -0.235 N 
ATOM    121  H   ARG d   1      -0.055  -0.600  15.131  0.00  0.00     0.174 HD
ATOM    122  H   ARG d   1       0.186   1.018  15.796  0.00  0.00     0.174 HD
ATOM    123  H   ARG d   1       2.854   1.812  13.631  0.00  0.00     0.174 HD
ATOM    124  H   ARG d   1       1.825   2.376  14.952  0.00  0.00     0.174 HD
ATOM    125  H   ARG d   1       2.551  -0.257  12.760  0.00  0.00     0.177 HD
ENDBRANCH 114 117
ENDBRANCH 111 114
ENDBRANCH 108 111
ENDBRANCH  23 108
ENDBRANCH  21  23
ENDBRANCH  17  19
BRANCH  17 126
ATOM    126  CB  LYS d   1      -1.045  -3.762   6.131  0.00  0.00    -0.038 C 
ATOM    127  H   LYS d   1      -0.106  -3.900   6.667  0.00  0.00     0.036 H 
ATOM    128  H   LYS d   1      -1.114  -2.814   5.598  0.00  0.00     0.036 H 
BRANCH 126 129
ATOM    129  CG  LYS d   1      -1.142  -4.873   5.094  0.00  0.00    -0.061 C 
ATOM    130  H   LYS d   1      -0.898  -4.452   4.119  0.00  0.00     0.033 H 
ATOM    131  H   LYS d   1      -2.154  -5.278   5.122  0.00  0.00     0.033 H 
BRANCH 129 132
ATOM    132  CD  LYS d   1      -0.166  -6.008   5.381  0.00  0.00    -0.043 C 
ATOM    133  H   LYS d   1       0.794  -5.572   5.658  0.00  0.00     0.035 H 
ATOM    134  H   LYS d   1      -0.088  -6.626   4.487  0.00  0.00     0.035 H 
BRANCH 132 135
ATOM    135  CE  LYS d   1      -0.640  -6.886   6.528  0.00  0.00     0.080 C 
ATOM    136  H   LYS d   1      -1.648  -7.232   6.298  0.00  0.00     0.075 H 
ATOM    137  H   LYS d   1      -0.610  -6.296   7.444  0.00  0.00     0.075 H 
BRANCH 135 138
ATOM    138  NZ  LYS d   1       0.229  -8.077   6.714  0.00  0.00    -0.079 N 
ATOM    139  H   LYS d   1      -0.124  -8.636   7.491  0.00  0.00     0.274 HD
ATOM    140  H   LYS d   1       0.224  -8.636   5.861  0.00  0.00     0.274 HD
ATOM    141  H   LYS d   1       1.181  -7.773   6.917  0.00  0.00     0.274 HD
ENDBRANCH 135 138
ENDBRANCH 132 135
ENDBRANCH 129 132
ENDBRANCH 126 129
ENDBRANCH  17 126
ENDBRANCH  15  17
ENDBRANCH  11  13
BRANCH  11 142
ATOM    142  CB  ILE d   1      -5.570  -0.744   6.962  0.00  0.00    -0.030 C 
ATOM    143  H   ILE d   1      -5.093  -0.848   5.987  0.00  0.00     0.043 H 
BRANCH 142 144
ATOM    144  CG1 ILE d   1      -6.230   0.636   7.046  0.00  0.00    -0.063 C 
ATOM    145  H   ILE d   1      -7.049   0.648   6.327  0.00  0.00     0.033 H 
ATOM    146  H   ILE d   1      -5.456   1.378   6.848  0.00  0.00     0.033 H 
BRANCH 144 147
ATOM    147  CD1 ILE d   1      -6.820   0.953   8.405  0.00  0.00    -0.076 C 
ATOM    148  H   ILE d   1      -7.583   0.214   8.650  0.00  0.00     0.027 H 
ATOM    149  H   ILE d   1      -6.032   0.925   9.157  0.00  0.00     0.027 H 
ATOM    150  H   ILE d   1      -7.268   1.946   8.382  0.00  0.00     0.027 H 
ENDBRANCH 144 147
ENDBRANCH 142 144
BRANCH 142 151
ATOM    151  CG2 ILE d   1      -6.620  -1.842   7.094  0.00  0.00    -0.071 C 
ATOM    152  H   ILE d   1      -6.142  -2.815   6.984  0.00  0.00     0.028 H 
ATOM    153  H   ILE d   1      -7.091  -1.776   8.075  0.00  0.00     0.028 H 
ATOM    154  H   ILE d   1      -7.375  -1.717   6.317  0.00  0.00     0.028 H 
ENDBRANCH 142 151
ENDBRANCH  11 142
ENDBRANCH   9  11
ENDBRANCH   5   7
BRANCH   5 155
ATOM    155  CB  MET d   1      -1.770   2.639   8.874  0.00  0.00    -0.030 C 
ATOM    156  H   MET d   1      -2.758   2.845   8.463  0.00  0.00     0.037 H 
ATOM    157  H   MET d   1      -0.998   3.332   8.539  0.00  0.00     0.037 H 
BRANCH 155 158
ATOM    158  CG  MET d   1      -1.872   2.773  10.382  0.00  0.00    -0.021 C 
ATOM    159  H   MET d   1      -0.863   2.888  10.779  0.00  0.00     0.049 H 
ATOM    160  H   MET d   1      -2.372   1.884  10.766  0.00  0.00     0.049 H 
BRANCH 158 161
ATOM    161  SD  MET d   1      -2.835   4.214  10.883  0.00  0.00    -0.173 SA
BRANCH 161 162
ATOM    162  CE  MET d   1      -1.915   5.544  10.107  0.00  0.00    -0.035 C 
ATOM    163  H   MET d   1      -0.895   5.551  10.491  0.00  0.00     0.041 H 
ATOM    164  H   MET d   1      -1.897   5.390   9.028  0.00  0.00     0.041 H 
ATOM    165  H   MET d   1      -2.396   6.496  10.332  0.00  0.00     0.041 H 
ENDBRANCH 161 162
ENDBRANCH 158 161
ENDBRANCH 155 158
ENDBRANCH   5 155
ENDBRANCH   3   5
BRANCH   1 166
ATOM    166  CA  LEU d   1      -0.582   0.345   4.778  0.00  0.00     0.089 C 
ATOM    167  H   LEU d   1      -0.423  -0.632   4.321  0.00  0.00     0.087 H 
BRANCH 166 168
ATOM    168  N   LEU d   1      -1.837   0.911   4.285  0.00  0.00    -0.346 N 
ATOM    169  C   PRO d   1      -2.992   0.253   4.442  0.00  0.00     0.241 C 
ATOM    170  O   PRO d   1      -3.060  -0.865   4.950  0.00  0.00    -0.271 OA
ATOM    171  H   LEU d   1      -1.832   1.817   3.816  0.00  0.00     0.163 HD
BRANCH 169 172
ATOM    172  CA  PRO d   1      -4.246   0.957   3.944  0.00  0.00     0.091 C 
ATOM    173  N   PRO d   1      -4.064   2.411   3.964  0.00  0.00    -0.337 N 
ATOM    174  C   SER d   1      -3.837   3.066   5.148  0.00  0.00     0.245 C 
ATOM    175  CD  PRO d   1      -4.228   2.968   2.615  0.00  0.00    -0.001 C 
ATOM    176  O   SER d   1      -3.845   2.438   6.206  0.00  0.00    -0.271 OA
ATOM    177  CG  PRO d   1      -4.956   1.887   1.866  0.00  0.00    -0.048 C 
ATOM    178  H   PRO d   1      -3.274   3.223   2.153  0.00  0.00     0.064 H 
ATOM    179  H   PRO d   1      -4.776   3.910   2.619  0.00  0.00     0.064 H 
ATOM    180  CB  PRO d   1      -4.507   0.618   2.475  0.00  0.00    -0.036 C 
ATOM    181  H   PRO d   1      -6.037   2.006   1.940  0.00  0.00     0.035 H 
ATOM    182  H   PRO d   1      -4.734   1.920   0.799  0.00  0.00     0.035 H 
ATOM    183  H   PRO d   1      -5.253  -0.169   2.368  0.00  0.00     0.036 H 
ATOM    184  H   PRO d   1      -3.615   0.227   1.985  0.00  0.00     0.036 H 
ATOM    185  H   PRO d   1      -5.061   0.634   4.593  0.00  0.00     0.087 H 
BRANCH 174 186
ATOM    186  CA  SER d   1      -3.568   4.585   5.201  0.00  0.00     0.109 C 
ATOM    187  H   SER d   1      -3.463   4.855   6.252  0.00  0.00     0.090 H 
BRANCH 186 188
ATOM    188  N   SER d   1      -2.318   4.917   4.524  0.00  0.00    -0.344 N 
ATOM    189  C   PRO d   1      -1.164   4.352   4.894  0.00  0.00     0.241 C 
ATOM    190  O   PRO d   1      -1.080   3.578   5.841  0.00  0.00    -0.271 OA
ATOM    191  H   SER d   1      -2.325   5.590   3.757  0.00  0.00     0.163 HD
BRANCH 189 192
ATOM    192  CA  PRO d   1       0.089   4.739   4.114  0.00  0.00     0.091 C 
ATOM    193  N   PRO d   1      -0.228   5.350   2.823  0.00  0.00    -0.337 N 
ATOM    194  C   TRP d   1      -0.955   4.679   1.880  0.00  0.00     0.243 C 
ATOM    195  CD  PRO d   1       0.431   6.667   2.692  0.00  0.00    -0.001 C 
ATOM    196  O   TRP d   1      -1.291   3.489   2.055  0.00  0.00    -0.271 OA
ATOM    197  CG  PRO d   1       1.416   6.695   3.822  0.00  0.00    -0.048 C 
ATOM    198  H   PRO d   1      -0.280   7.491   2.744  0.00  0.00     0.064 H 
ATOM    199  H   PRO d   1       0.912   6.793   1.722  0.00  0.00     0.064 H 
ATOM    200  CB  PRO d   1       0.842   5.828   4.871  0.00  0.00    -0.036 C 
ATOM    201  H   PRO d   1       2.397   6.340   3.505  0.00  0.00     0.035 H 
ATOM    202  H   PRO d   1       1.575   7.710   4.187  0.00  0.00     0.035 H 
ATOM    203  H   PRO d   1       1.614   5.411   5.518  0.00  0.00     0.036 H 
ATOM    204  H   PRO d   1       0.185   6.384   5.540  0.00  0.00     0.036 H 
ATOM    205  H   PRO d   1       0.659   3.819   3.983  0.00  0.00     0.087 H 
BRANCH 194 206
ATOM    206  CA  TRP d   1      -1.332   5.422   0.581  0.00  0.00     0.093 C 
ATOM    207  H   TRP d   1      -1.965   4.818  -0.069  0.00  0.00     0.088 H 
BRANCH 206 208
ATOM    208  N   TRP d   1      -2.074   6.631   0.977  0.00  0.00    -0.346 N 
ATOM    209  C   LEU d   1      -3.227   6.515   1.658  0.00  0.00     0.241 C 
ATOM    210  O   LEU d   1      -3.736   5.438   1.887  0.00  0.00    -0.271 OA
ATOM    211  H   TRP d   1      -1.714   7.554   0.735  0.00  0.00     0.163 HD
BRANCH 209 212
ATOM    212  CA  LEU d   1      -3.920   7.790   2.117  0.00  0.00     0.089 C 
ATOM    213  H   LEU d   1      -4.383   7.630   3.091  0.00  0.00     0.087 H 
BRANCH 212 214
ATOM    214  N   LEU d   1      -2.938   8.849   2.250  0.00  0.00    -0.346 N 
ATOM    215  C   ASN d   1      -2.020   8.835   3.208  0.00  0.00     0.241 C 
ATOM    216  O   ASN d   1      -1.953   7.944   4.054  0.00  0.00    -0.271 OA
ATOM    217  H   LEU d   1      -2.954   9.626   1.589  0.00  0.00     0.163 HD
BRANCH 215 218
ATOM    218  CA  ASN d   1      -1.025   9.997   3.219  0.00  0.00     0.097 C 
ATOM    219  H   ASN d   1      -0.046   9.608   3.500  0.00  0.00     0.088 H 
BRANCH 218 220
ATOM    220  N   ASN d   1      -0.890  10.599   1.890  0.00  0.00    -0.346 N 
ATOM    221  C   ALA d   1      -0.472   9.895   0.835  0.00  0.00     0.240 C 
ATOM    222  O   ALA d   1      -0.204   8.693   0.898  0.00  0.00    -0.271 OA
ATOM    223  H   ASN d   1      -1.122  11.585   1.767  0.00  0.00     0.163 HD
BRANCH 221 224
ATOM    224  CA  ALA d   1      -0.354  10.650  -0.500  0.00  0.00     0.086 C 
ATOM    225  H   ALA d   1      -0.222   9.899  -1.278  0.00  0.00     0.086 H 
BRANCH 224 226
ATOM    226  N   ALA d   1      -1.566  11.416  -0.847  0.00  0.00    -0.346 N 
ATOM    227  C   ALA d   1      -2.794  11.027  -0.509  0.00  0.00     0.240 C 
ATOM    228  O   ALA d   1      -3.027   9.932  -0.012  0.00  0.00    -0.271 OA
ATOM    229  H   ALA d   1      -1.458  12.285  -1.371  0.00  0.00     0.163 HD
BRANCH 227 230
ATOM    230  CA  ALA d   1      -3.956  11.938  -0.923  0.00  0.00     0.086 C 
ATOM    231  H   ALA d   1      -4.412  12.295   0.001  0.00  0.00     0.086 H 
BRANCH 230 232
ATOM    232  N   ALA d   1      -3.513  13.120  -1.661  0.00  0.00    -0.346 N 
ATOM    233  C   ARG d   1      -3.339  14.307  -1.089  0.00  0.00     0.248 C 
ATOM    234  O   ARG d   1      -3.534  14.518   0.106  0.00  0.00    -0.271 OA
ATOM    235  H   ALA d   1      -3.329  13.030  -2.660  0.00  0.00     0.163 HD
BRANCH 233 236
ATOM    236  CA  ARG d   1      -2.908  15.429  -2.023  0.00  0.00     0.176 C 
ATOM    237  H   ARG d   1      -2.256  15.019  -2.794  0.00  0.00     0.099 H 
BRANCH 236 238
ATOM    238  N   ARG d   1      -4.111  16.020  -2.658  0.00  0.00    -0.067 N 
ATOM    239  H   ARG d   1      -4.627  15.291  -3.150  0.00  0.00     0.275 HD
ATOM    240  H   ARG d   1      -4.705  16.433  -1.939  0.00  0.00     0.275 HD
ATOM    241  H   ARG d   1      -3.825  16.742  -3.320  0.00  0.00     0.275 HD
ENDBRANCH 236 238
BRANCH 236 242
ATOM    242  CB  ARG d   1      -2.105  16.500  -1.271  0.00  0.00    -0.029 C 
ATOM    243  H   ARG d   1      -1.241  16.015  -0.816  0.00  0.00     0.036 H 
ATOM    244  H   ARG d   1      -2.764  16.958  -0.533  0.00  0.00     0.036 H 
BRANCH 242 245
ATOM    245  CG  ARG d   1      -1.595  17.600  -2.191  0.00  0.00    -0.047 C 
ATOM    246  H   ARG d   1      -1.968  18.554  -1.819  0.00  0.00     0.035 H 
ATOM    247  H   ARG d   1      -1.945  17.387  -3.201  0.00  0.00     0.035 H 
BRANCH 245 248
ATOM    248  CD  ARG d   1      -0.073  17.665  -2.220  0.00  0.00     0.009 C 
ATOM    249  H   ARG d   1       0.254  18.276  -1.379  0.00  0.00     0.064 H 
ATOM    250  H   ARG d   1       0.228  18.084  -3.180  0.00  0.00     0.064 H 
BRANCH 248 251
ATOM    251  NE  ARG d   1       0.545  16.346  -2.088  0.00  0.00    -0.227 N 
ATOM    252  CZ  ARG d   1       1.420  16.029  -1.135  0.00  0.00     0.665 C 
ATOM    253  NH1 ARG d   1       1.747  16.909  -0.196  0.00  0.00    -0.235 N 
ATOM    254  NH2 ARG d   1       1.958  14.823  -1.111  0.00  0.00    -0.235 N 
ATOM    255  H   ARG d   1       1.327  17.838  -0.200  0.00  0.00     0.174 HD
ATOM    256  H   ARG d   1       2.418  16.655   0.529  0.00  0.00     0.174 HD
ATOM    257  H   ARG d   1       1.703  14.137  -1.821  0.00  0.00     0.174 HD
ATOM    258  H   ARG d   1       2.628  14.578  -0.382  0.00  0.00     0.174 HD
ATOM    259  H   ARG d   1       0.291  15.627  -2.765  0.00  0.00     0.177 HD
ENDBRANCH 248 251
ENDBRANCH 245 248
ENDBRANCH 242 245
ENDBRANCH 236 242
ENDBRANCH 233 236
ENDBRANCH 230 232
BRANCH 230 260
ATOM    260  CB  ALA d   1      -5.001  11.169  -1.714  0.00  0.00    -0.049 C 
ATOM    261  H   ALA d   1      -5.862  11.812  -1.898  0.00  0.00     0.030 H 
ATOM    262  H   ALA d   1      -4.574  10.851  -2.665  0.00  0.00     0.030 H 
ATOM    263  H   ALA d   1      -5.315  10.294  -1.144  0.00  0.00     0.030 H 
ENDBRANCH 230 260
ENDBRANCH 227 230
ENDBRANCH 224 226
BRANCH 224 264
ATOM    264  CB  ALA d   1       0.840  11.592  -0.442  0.00  0.00    -0.049 C 
ATOM    265  H   ALA d   1       0.974  12.066  -1.414  0.00  0.00     0.030 H 
ATOM    266  H   ALA d   1       0.662  12.356   0.315  0.00  0.00     0.030 H 
ATOM    267  H   ALA d   1       1.736  11.026  -0.186  0.00  0.00     0.030 H 
ENDBRANCH 224 264
ENDBRANCH 221 224
ENDBRANCH 218 220
BRANCH 218 268
ATOM    268  CB  ASN d   1      -1.461  11.046   4.250  0.00  0.00     0.036 C 
ATOM    269  H   ASN d   1      -0.806  11.911   4.142  0.00  0.00     0.051 H 
ATOM    270  H   ASN d   1      -1.400  10.588   5.237  0.00  0.00     0.051 H 
BRANCH 268 271
ATOM    271  CG  ASN d   1      -2.886  11.517   4.046  0.00  0.00     0.217 C 
ATOM    272  OD1 ASN d   1      -3.144  12.436   3.265  0.00  0.00    -0.274 OA
ATOM    273  ND2 ASN d   1      -3.817  10.905   4.758  0.00  0.00    -0.370 N 
ATOM    274  H   ASN d   1      -4.793  11.189   4.673  0.00  0.00     0.159 HD
ATOM    275  H   ASN d   1      -3.559  10.149   5.393  0.00  0.00     0.159 HD
ENDBRANCH 268 271
ENDBRANCH 218 268
ENDBRANCH 215 218
ENDBRANCH 212 214
BRANCH 212 276
ATOM    276  CB  LEU d   1      -5.038   8.169   1.139  0.00  0.00    -0.035 C 
ATOM    277  H   LEU d   1      -4.732   7.795   0.162  0.00  0.00     0.037 H 
ATOM    278  H   LEU d   1      -5.161   9.249   1.216  0.00  0.00     0.037 H 
BRANCH 276 279
ATOM    279  CG  LEU d   1      -6.411   7.556   1.426  0.00  0.00    -0.059 C 
ATOM    280  H   LEU d   1      -6.275   6.514   1.716  0.00  0.00     0.038 H 
BRANCH 279 281
ATOM    281  CD1 LEU d   1      -7.086   8.289   2.571  0.00  0.00    -0.073 C 
ATOM    282  H   LEU d   1      -6.467   8.212   3.465  0.00  0.00     0.028 H 
ATOM    283  H   LEU d   1      -7.213   9.338   2.304  0.00  0.00     0.028 H 
ATOM    284  H   LEU d   1      -8.061   7.841   2.763  0.00  0.00     0.028 H 
ENDBRANCH 279 281
BRANCH 279 285
ATOM    285  CD2 LEU d   1      -7.280   7.599   0.179  0.00  0.00    -0.073 C 
ATOM    286  H   LEU d   1      -7.411   8.634  -0.136  0.00  0.00     0.028 H 
ATOM    287  H   LEU d   1      -6.797   7.034  -0.618  0.00  0.00     0.028 H 
ATOM    288  H   LEU d   1      -8.253   7.159   0.400  0.00  0.00     0.028 H 
ENDBRANCH 279 285
ENDBRANCH 276 279
ENDBRANCH 212 276
ENDBRANCH 209 212
ENDBRANCH 206 208
BRANCH 206 289
ATOM    289  CB  TRP d   1      -0.063   5.729  -0.238  0.00  0.00    -0.012 C 
ATOM    290  H   TRP d   1       0.585   4.863  -0.103  0.00  0.00     0.044 H 
ATOM    291  H   TRP d   1       0.290   6.694   0.126  0.00  0.00     0.044 H 
BRANCH 289 292
ATOM    292  CG  TRP d   1      -0.206   5.893  -1.733  0.00  0.00    -0.028 A 
ATOM    293  CD1 TRP d   1      -0.299   7.080  -2.394  0.00  0.00    -0.015 A 
ATOM    294  NE1 TRP d   1      -0.323   6.876  -3.744  0.00  0.00    -0.365 N 
ATOM    295  H   TRP d   1      -0.347   8.057  -1.913  0.00  0.00     0.112 H 
ATOM    296  CE2 TRP d   1      -0.264   5.541  -4.003  0.00  0.00     0.042 A 
ATOM    297  H   TRP d   1      -0.377   7.611  -4.449  0.00  0.00     0.165 HD
ATOM    298  CD2 TRP d   1      -0.199   4.871  -2.762  0.00  0.00    -0.002 A 
ATOM    299  CZ2 TRP d   1      -0.258   4.867  -5.222  0.00  0.00    -0.056 A 
ATOM    300  CE3 TRP d   1      -0.132   3.466  -2.779  0.00  0.00    -0.070 A 
ATOM    301  CZ3 TRP d   1      -0.131   2.817  -4.014  0.00  0.00    -0.082 A 
ATOM    302  H   TRP d   1      -0.082   2.898  -1.850  0.00  0.00     0.084 H 
ATOM    303  CH2 TRP d   1      -0.193   3.532  -5.204  0.00  0.00    -0.081 A 
ATOM    304  H   TRP d   1      -0.081   1.729  -4.046  0.00  0.00     0.083 H 
ATOM    305  H   TRP d   1      -0.189   2.989  -6.149  0.00  0.00     0.083 H 
ATOM    306  H   TRP d   1      -0.305   5.413  -6.164  0.00  0.00     0.086 H 
ENDBRANCH 289 292
ENDBRANCH 206 289
ENDBRANCH 194 206
ENDBRANCH 189 192
ENDBRANCH 186 188
BRANCH 186 307
ATOM    307  CB  SER d   1      -4.741   5.410   4.666  0.00  0.00     0.044 C 
ATOM    308  H   SER d   1      -5.670   4.998   5.060  0.00  0.00     0.077 H 
ATOM    309  H   SER d   1      -4.731   5.369   3.577  0.00  0.00     0.077 H 
BRANCH 307 310
ATOM    310  OG  SER d   1      -4.632   6.763   5.074  0.00  0.00    -0.398 OA
ATOM    311  H   SER d   1      -3.813   7.133   4.736  0.00  0.00     0.209 HD
ENDBRANCH 307 310
ENDBRANCH 186 307
ENDBRANCH 174 186
ENDBRANCH 169 172
ENDBRANCH 166 168
BRANCH 166 312
ATOM    312  CB  LEU d   1       0.594   1.245   4.400  0.00  0.00    -0.035 C 
ATOM    313  H   LEU d   1       0.662   2.011   5.172  0.00  0.00     0.037 H 
ATOM    314  H   LEU d   1       0.394   1.615   3.395  0.00  0.00     0.037 H 
BRANCH 312 315
ATOM    315  CG  LEU d   1       1.953   0.552   4.349  0.00  0.00    -0.059 C 
ATOM    316  H   LEU d   1       1.988  -0.205   5.133  0.00  0.00     0.038 H 
BRANCH 315 317
ATOM    317  CD1 LEU d   1       2.148  -0.142   3.010  0.00  0.00    -0.073 C 
ATOM    318  H   LEU d   1       1.365  -0.887   2.871  0.00  0.00     0.028 H 
ATOM    319  H   LEU d   1       2.096   0.595   2.209  0.00  0.00     0.028 H 
ATOM    320  H   LEU d   1       3.123  -0.630   2.994  0.00  0.00     0.028 H 
ENDBRANCH 315 317
BRANCH 315 321
ATOM    321  CD2 LEU d   1       3.066   1.557   4.600  0.00  0.00    -0.073 C 
ATOM    322  H   LEU d   1       3.032   2.333   3.835  0.00  0.00     0.028 H 
ATOM    323  H   LEU d   1       2.932   2.008   5.583  0.00  0.00     0.028 H 
ATOM    324  H   LEU d   1       4.029   1.048   4.561  0.00  0.00     0.028 H 
ENDBRANCH 315 321
ENDBRANCH 312 315
ENDBRANCH 166 312
ENDBRANCH   1 166
TORSDOF 89
