REMARK WARNING: 32 MAX_TORS EXCEEDED!!!
REMARK  39 active torsions:
REMARK  status: ('A' for Active; 'I' for Inactive)
REMARK    1  A    between atoms: N_1  and  CA_2 
REMARK    2  A    between atoms: CA_2  and  C_3 
REMARK    3  A    between atoms: CA_2  and  CB_5 
REMARK       I    between atoms: C_3  and  N_10 
REMARK    4  A    between atoms: CB_5  and  CG_6 
REMARK    5  A    between atoms: CG_6  and  CD_7 
REMARK    6  A    between atoms: N_10  and  CA_11 
REMARK    7  A    between atoms: CA_11  and  C_12 
REMARK    8  A    between atoms: CA_11  and  CB_14 
REMARK       I    between atoms: C_12  and  N_19 
REMARK    9  A    between atoms: CB_14  and  CG_15 
REMARK   10  A    between atoms: CG_15  and  CD_16 
REMARK   11  A    between atoms: CA_20  and  C_21 
REMARK       I    between atoms: C_21  and  N_26 
REMARK   12  A    between atoms: N_26  and  CA_27 
REMARK   13  A    between atoms: CA_27  and  C_28 
REMARK   14  A    between atoms: CA_27  and  CB_30 
REMARK       I    between atoms: C_28  and  N_33 
REMARK   15  A    between atoms: CB_30  and  CG1_31 
REMARK   16  A    between atoms: CB_30  and  CG2_32 
REMARK   17  A    between atoms: N_33  and  CA_34 
REMARK   18  A    between atoms: CA_34  and  C_35 
REMARK   19  A    between atoms: CA_34  and  CB_37 
REMARK       I    between atoms: C_35  and  N_49 
REMARK   20  A    between atoms: CB_37  and  CG_38 
REMARK   21  A    between atoms: CZ_43  and  OH_44 
REMARK   22  A    between atoms: OH_44  and  P_45 
REMARK   23  A    between atoms: N_49  and  CA_50 
REMARK   24  A    between atoms: CA_50  and  C_51 
REMARK   25  A    between atoms: CA_50  and  CB_53 
REMARK       I    between atoms: C_51  and  N_58 
REMARK   26  A    between atoms: CB_53  and  CG_54 
REMARK   27  A    between atoms: CG_54  and  CD_55 
REMARK   28  A    between atoms: N_58  and  CA_59 
REMARK   29  A    between atoms: CA_59  and  C_60 
REMARK   30  A    between atoms: CA_59  and  CB_62 
REMARK       I    between atoms: C_60  and  N_67 
REMARK   31  A    between atoms: CB_62  and  CG_63 
REMARK   32  A    between atoms: CG_63  and  CD_64 
REMARK   33  A    between atoms: N_67  and  CA_68 
REMARK   34  A    between atoms: CA_68  and  C_69 
REMARK   35  A    between atoms: CA_68  and  CB_71 
REMARK       I    between atoms: C_69  and  N_74 
REMARK   36  A    between atoms: CB_71  and  CG1_72 
REMARK   37  A    between atoms: CB_71  and  CG2_73 
REMARK   38  A    between atoms: N_74  and  CA_75 
REMARK   39  A    between atoms: CA_75  and  C_76 
ROOT
ATOM      1  CA  PTR d   1      10.601  -2.032  -4.729  0.00  0.00     0.093 C 
ATOM      2  H   PTR d   1       9.911  -2.860  -4.568  0.00  0.00     0.088 H 
ENDROOT
BRANCH   1   3
ATOM      3  N   PTR d   1      11.967  -2.530  -4.552  0.00  0.00    -0.346 N 
ATOM      4  C   VAL d   1      13.033  -1.748  -4.739  0.00  0.00     0.241 C 
ATOM      5  O   VAL d   1      12.946  -0.562  -5.068  0.00  0.00    -0.271 OA
ATOM      6  H   PTR d   1      12.108  -3.502  -4.278  0.00  0.00     0.163 HD
BRANCH   4   7
ATOM      7  CA  VAL d   1      14.404  -2.390  -4.517  0.00  0.00     0.092 C 
ATOM      8  H   VAL d   1      15.181  -1.717  -4.879  0.00  0.00     0.088 H 
BRANCH   7   9
ATOM      9  N   VAL d   1      14.655  -2.601  -3.095  0.00  0.00    -0.346 N 
ATOM     10  C   PRO d   1      15.221  -1.661  -2.340  0.00  0.00     0.241 C 
ATOM     11  O   PRO d   1      15.564  -0.564  -2.783  0.00  0.00    -0.271 OA
ATOM     12  H   VAL d   1      14.391  -3.489  -2.669  0.00  0.00     0.163 HD
BRANCH  10  13
ATOM     13  CA  PRO d   1      15.424  -2.006  -0.865  0.00  0.00     0.091 C 
ATOM     14  N   PRO d   1      16.844  -2.101  -0.493  0.00  0.00    -0.337 N 
ATOM     15  C   GLU d   1      17.639  -3.117  -0.887  0.00  0.00     0.243 C 
ATOM     16  CD  PRO d   1      17.269  -0.968   0.355  0.00  0.00    -0.001 C 
ATOM     17  O   GLU d   1      17.220  -4.038  -1.592  0.00  0.00    -0.271 OA
ATOM     18  CG  PRO d   1      16.094  -0.030   0.307  0.00  0.00    -0.048 C 
ATOM     19  H   PRO d   1      18.188  -0.503  -0.001  0.00  0.00     0.064 H 
ATOM     20  H   PRO d   1      17.515  -1.277   1.371  0.00  0.00     0.064 H 
ATOM     21  CB  PRO d   1      14.900  -0.878   0.027  0.00  0.00    -0.036 C 
ATOM     22  H   PRO d   1      15.982   0.510   1.247  0.00  0.00     0.035 H 
ATOM     23  H   PRO d   1      16.227   0.730  -0.463  0.00  0.00     0.035 H 
ATOM     24  H   PRO d   1      14.449  -1.260   0.943  0.00  0.00     0.036 H 
ATOM     25  H   PRO d   1      14.105  -0.312  -0.458  0.00  0.00     0.036 H 
ATOM     26  H   PRO d   1      14.906  -2.955  -0.728  0.00  0.00     0.087 H 
BRANCH  15  27
ATOM     27  CA  GLU d   1      19.096  -3.095  -0.424  0.00  0.00     0.090 C 
ATOM     28  H   GLU d   1      19.147  -2.587   0.539  0.00  0.00     0.087 H 
BRANCH  27  29
ATOM     29  N   GLU d   1      19.607  -4.455  -0.246  0.00  0.00    -0.346 N 
ATOM     30  C   GLU d   1      20.466  -4.762   0.729  0.00  0.00     0.249 C 
ATOM     31  O   GLU d   1      20.882  -3.931   1.538  0.00  0.00    -0.271 OA
ATOM     32  H   GLU d   1      19.298  -5.188  -0.884  0.00  0.00     0.163 HD
BRANCH  30  33
ATOM     33  CA  GLU d   1      20.921  -6.224   0.802  0.00  0.00     0.176 C 
ATOM     34  H   GLU d   1      20.095  -6.797   1.224  0.00  0.00     0.099 H 
BRANCH  33  35
ATOM     35  N   GLU d   1      21.247  -6.766  -0.549  0.00  0.00    -0.066 N 
ATOM     36  H   GLU d   1      20.427  -6.690  -1.151  0.00  0.00     0.275 HD
ATOM     37  H   GLU d   1      22.017  -6.232  -0.952  0.00  0.00     0.275 HD
ATOM     38  H   GLU d   1      21.518  -7.746  -0.465  0.00  0.00     0.275 HD
ENDBRANCH  33  35
BRANCH  33  39
ATOM     39  CB  GLU d   1      22.166  -6.349   1.689  0.00  0.00    -0.021 C 
ATOM     40  H   GLU d   1      22.072  -5.612   2.486  0.00  0.00     0.037 H 
ATOM     41  H   GLU d   1      23.036  -6.198   1.050  0.00  0.00     0.037 H 
BRANCH  39  42
ATOM     42  CG  GLU d   1      22.317  -7.712   2.347  0.00  0.00     0.018 C 
ATOM     43  H   GLU d   1      23.382  -7.909   2.471  0.00  0.00     0.049 H 
ATOM     44  H   GLU d   1      21.827  -8.449   1.710  0.00  0.00     0.049 H 
BRANCH  42  45
ATOM     45  CD  GLU d   1      21.668  -7.772   3.715  0.00  0.00     0.172 C 
ATOM     46  OE1 GLU d   1      22.352  -7.454   4.710  0.00  0.00    -0.648 OA
ATOM     47  OE2 GLU d   1      20.475  -8.131   3.791  0.00  0.00    -0.648 OA
ENDBRANCH  42  45
ENDBRANCH  39  42
ENDBRANCH  33  39
ENDBRANCH  30  33
ENDBRANCH  27  29
BRANCH  27  48
ATOM     48  CB  GLU d   1      19.953  -2.331  -1.438  0.00  0.00    -0.029 C 
ATOM     49  H   GLU d   1      19.378  -1.464  -1.762  0.00  0.00     0.037 H 
ATOM     50  H   GLU d   1      20.197  -3.023  -2.244  0.00  0.00     0.037 H 
BRANCH  48  51
ATOM     51  CG  GLU d   1      21.265  -1.818  -0.868  0.00  0.00     0.018 C 
ATOM     52  H   GLU d   1      21.707  -2.617  -0.273  0.00  0.00     0.049 H 
ATOM     53  H   GLU d   1      21.049  -0.927  -0.279  0.00  0.00     0.049 H 
BRANCH  51  54
ATOM     54  CD  GLU d   1      22.260  -1.434  -1.947  0.00  0.00     0.172 C 
ATOM     55  OE1 GLU d   1      22.583  -2.296  -2.791  0.00  0.00    -0.648 OA
ATOM     56  OE2 GLU d   1      22.714  -0.271  -1.948  0.00  0.00    -0.648 OA
ENDBRANCH  51  54
ENDBRANCH  48  51
ENDBRANCH  27  48
ENDBRANCH  15  27
ENDBRANCH  10  13
ENDBRANCH   7   9
BRANCH   7  57
ATOM     57  CB  VAL d   1      14.491  -3.707  -5.318  0.00  0.00    -0.033 C 
ATOM     58  H   VAL d   1      13.642  -4.333  -5.046  0.00  0.00     0.042 H 
BRANCH  57  59
ATOM     59  CG1 VAL d   1      14.418  -3.427  -6.812  0.00  0.00    -0.071 C 
ATOM     60  H   VAL d   1      13.474  -2.933  -7.042  0.00  0.00     0.028 H 
ATOM     61  H   VAL d   1      15.247  -2.781  -7.100  0.00  0.00     0.028 H 
ATOM     62  H   VAL d   1      14.481  -4.367  -7.360  0.00  0.00     0.028 H 
ENDBRANCH  57  59
BRANCH  57  63
ATOM     63  CG2 VAL d   1      15.768  -4.463  -4.971  0.00  0.00    -0.071 C 
ATOM     64  H   VAL d   1      16.632  -3.844  -5.213  0.00  0.00     0.028 H 
ATOM     65  H   VAL d   1      15.773  -4.696  -3.906  0.00  0.00     0.028 H 
ATOM     66  H   VAL d   1      15.809  -5.388  -5.547  0.00  0.00     0.028 H 
ENDBRANCH  57  63
ENDBRANCH   7  57
ENDBRANCH   4   7
ENDBRANCH   1   3
BRANCH   1  67
ATOM     67  C   PTR d   1      10.387  -1.508  -6.153  0.00  0.00     0.241 C 
ATOM     68  O   PTR d   1      11.288  -1.582  -6.990  0.00  0.00    -0.271 OA
ATOM     69  N   GLU d   1       9.188  -0.984  -6.425  0.00  0.00    -0.346 N 
ATOM     70  H   GLU d   1       8.480  -0.954  -5.691  0.00  0.00     0.163 HD
BRANCH  69  71
ATOM     71  CA  GLU d   1       8.866  -0.452  -7.752  0.00  0.00     0.090 C 
ATOM     72  H   GLU d   1       9.243  -1.153  -8.497  0.00  0.00     0.087 H 
BRANCH  71  73
ATOM     73  C   GLU d   1       9.541   0.904  -7.970  0.00  0.00     0.241 C 
ATOM     74  O   GLU d   1      10.338   1.068  -8.895  0.00  0.00    -0.271 OA
ATOM     75  N   GLU d   1       9.215   1.866  -7.104  0.00  0.00    -0.346 N 
ATOM     76  H   GLU d   1       8.547   1.653  -6.363  0.00  0.00     0.163 HD
BRANCH  75  77
ATOM     77  CA  GLU d   1       9.781   3.218  -7.177  0.00  0.00     0.090 C 
ATOM     78  H   GLU d   1       9.416   3.769  -6.311  0.00  0.00     0.087 H 
BRANCH  77  79
ATOM     79  C   GLU d   1       9.326   3.954  -8.435  0.00  0.00     0.241 C 
ATOM     80  O   GLU d   1       9.058   3.336  -9.466  0.00  0.00    -0.271 OA
ATOM     81  N   VAL d   1       9.244   5.284  -8.341  0.00  0.00    -0.346 N 
ATOM     82  H   VAL d   1       9.480   5.736  -7.457  0.00  0.00     0.163 HD
BRANCH  81  83
ATOM     83  CA  VAL d   1       8.824   6.109  -9.473  0.00  0.00     0.092 C 
ATOM     84  H   VAL d   1       7.833   5.760  -9.763  0.00  0.00     0.088 H 
BRANCH  83  85
ATOM     85  C   VAL d   1       9.777   5.946 -10.660  0.00  0.00     0.241 C 
ATOM     86  O   VAL d   1       9.335   5.864 -11.808  0.00  0.00    -0.271 OA
ATOM     87  N   GLY d   1      11.081   5.887 -10.375  0.00  0.00    -0.349 N 
ATOM     88  H   GLY d   1      11.387   5.958  -9.405  0.00  0.00     0.163 HD
BRANCH  87  89
ATOM     89  CA  GLY d   1      12.072   5.722 -11.430  0.00  0.00     0.075 C 
ATOM     90  H   GLY d   1      11.671   5.009 -12.150  0.00  0.00     0.080 H 
ATOM     91  H   GLY d   1      12.998   5.388 -10.963  0.00  0.00     0.080 H 
BRANCH  89  92
ATOM     92  C   GLY d   1      12.373   7.011 -12.178  0.00  0.00     0.191 C 
ATOM     93  O   GLY d   1      11.627   7.998 -12.003  0.00  0.00    -0.647 OA
ATOM     94  OXT GLY d   1      13.359   7.031 -12.943  0.00  0.00    -0.647 OA
ENDBRANCH  89  92
ENDBRANCH  87  89
ENDBRANCH  83  85
BRANCH  83  95
ATOM     95  CB  VAL d   1       8.718   7.605  -9.090  0.00  0.00    -0.033 C 
ATOM     96  H   VAL d   1       8.472   8.164  -9.993  0.00  0.00     0.042 H 
BRANCH  95  97
ATOM     97  CG1 VAL d   1       7.611   7.812  -8.068  0.00  0.00    -0.071 C 
ATOM     98  H   VAL d   1       6.662   7.485  -8.492  0.00  0.00     0.028 H 
ATOM     99  H   VAL d   1       7.831   7.230  -7.173  0.00  0.00     0.028 H 
ATOM    100  H   VAL d   1       7.550   8.869  -7.810  0.00  0.00     0.028 H 
ENDBRANCH  95  97
BRANCH  95 101
ATOM    101  CG2 VAL d   1      10.045   8.145  -8.562  0.00  0.00    -0.071 C 
ATOM    102  H   VAL d   1      10.338   7.582  -7.676  0.00  0.00     0.028 H 
ATOM    103  H   VAL d   1      10.810   8.039  -9.331  0.00  0.00     0.028 H 
ATOM    104  H   VAL d   1       9.931   9.198  -8.304  0.00  0.00     0.028 H 
ENDBRANCH  95 101
ENDBRANCH  83  95
ENDBRANCH  81  83
ENDBRANCH  77  79
BRANCH  77 105
ATOM    105  CB  GLU d   1      11.310   3.162  -7.137  0.00  0.00    -0.029 C 
ATOM    106  H   GLU d   1      11.657   2.973  -8.153  0.00  0.00     0.037 H 
ATOM    107  H   GLU d   1      11.590   2.383  -6.428  0.00  0.00     0.037 H 
BRANCH 105 108
ATOM    108  CG  GLU d   1      11.954   4.458  -6.669  0.00  0.00     0.018 C 
ATOM    109  H   GLU d   1      11.762   4.561  -5.601  0.00  0.00     0.049 H 
ATOM    110  H   GLU d   1      11.527   5.274  -7.252  0.00  0.00     0.049 H 
BRANCH 108 111
ATOM    111  CD  GLU d   1      13.454   4.471  -6.877  0.00  0.00     0.172 C 
ATOM    112  OE1 GLU d   1      14.146   3.640  -6.251  0.00  0.00    -0.648 OA
ATOM    113  OE2 GLU d   1      13.936   5.310  -7.665  0.00  0.00    -0.648 OA
ENDBRANCH 108 111
ENDBRANCH 105 108
ENDBRANCH  77 105
ENDBRANCH  75  77
ENDBRANCH  71  73
BRANCH  71 114
ATOM    114  CB  GLU d   1       7.348  -0.316  -7.924  0.00  0.00    -0.029 C 
ATOM    115  H   GLU d   1       7.163   0.621  -8.450  0.00  0.00     0.037 H 
ATOM    116  H   GLU d   1       6.903  -0.357  -6.930  0.00  0.00     0.037 H 
BRANCH 114 117
ATOM    117  CG  GLU d   1       6.721  -1.431  -8.748  0.00  0.00     0.018 C 
ATOM    118  H   GLU d   1       5.640  -1.372  -8.622  0.00  0.00     0.049 H 
ATOM    119  H   GLU d   1       7.136  -2.377  -8.400  0.00  0.00     0.049 H 
BRANCH 117 120
ATOM    120  CD  GLU d   1       7.023  -1.308 -10.229  0.00  0.00     0.172 C 
ATOM    121  OE1 GLU d   1       6.298  -0.565 -10.924  0.00  0.00    -0.648 OA
ATOM    122  OE2 GLU d   1       7.984  -1.956 -10.694  0.00  0.00    -0.648 OA
ENDBRANCH 117 120
ENDBRANCH 114 117
ENDBRANCH  71 114
ENDBRANCH  69  71
ENDBRANCH   1  67
BRANCH   1 123
ATOM    123  CB  PTR d   1      10.304  -0.931  -3.703  0.00  0.00    -0.014 C 
ATOM    124  H   PTR d   1       9.392  -0.426  -4.022  0.00  0.00     0.043 H 
ATOM    125  H   PTR d   1      11.176  -0.278  -3.664  0.00  0.00     0.043 H 
BRANCH 123 126
ATOM    126  CG  PTR d   1      10.066  -1.453  -2.302  0.00  0.00    -0.056 A 
ATOM    127  CD1 PTR d   1      11.113  -1.936  -1.524  0.00  0.00    -0.074 A 
ATOM    128  CE1 PTR d   1      10.890  -2.415  -0.246  0.00  0.00    -0.050 A 
ATOM    129  H   PTR d   1      12.125  -1.937  -1.928  0.00  0.00     0.084 H 
ATOM    130  CZ  PTR d   1       9.611  -2.413   0.269  0.00  0.00     0.082 A 
ATOM    131  H   PTR d   1      11.721  -2.792   0.351  0.00  0.00     0.087 H 
ATOM    132  CE2 PTR d   1       8.559  -1.938  -0.484  0.00  0.00    -0.050 A 
ATOM    133  CD2 PTR d   1       8.789  -1.463  -1.760  0.00  0.00    -0.074 A 
ATOM    134  H   PTR d   1       7.549  -1.937  -0.074  0.00  0.00     0.087 H 
ATOM    135  H   PTR d   1       7.953  -1.090  -2.351  0.00  0.00     0.084 H 
BRANCH 130 136
ATOM    136  OH  PTR d   1       9.385  -2.884   1.524  0.00  0.00    -0.240 OA
BRANCH 136 137
ATOM    137  P   PTR d   1       8.718  -4.312   1.859  0.00  0.00     0.427 P 
ATOM    138  O1P PTR d   1       8.552  -4.472   3.452  0.00  0.00    -0.617 OA
ATOM    139  O2P PTR d   1       9.659  -5.491   1.295  0.00  0.00    -0.617 OA
ATOM    140  O3P PTR d   1       7.388  -4.396   1.216  0.00  0.00    -0.617 OA
ENDBRANCH 136 137
ENDBRANCH 130 136
ENDBRANCH 123 126
ENDBRANCH   1 123
TORSDOF 39
