REMARK WARNING: 32 MAX_TORS EXCEEDED!!!
REMARK  50 active torsions:
REMARK  status: ('A' for Active; 'I' for Inactive)
REMARK    1  A    between atoms: N_1  and  CA_2 
REMARK    2  A    between atoms: CA_2  and  C_3 
REMARK    3  A    between atoms: CA_2  and  CB_5 
REMARK       I    between atoms: C_3  and  N_13 
REMARK    4  A    between atoms: CB_5  and  CG_6 
REMARK    5  A    between atoms: CZ_11  and  OH_12 
REMARK    6  A    between atoms: N_13  and  CA_14 
REMARK    7  A    between atoms: CA_14  and  C_15 
REMARK    8  A    between atoms: CA_14  and  CB_17 
REMARK       I    between atoms: C_15  and  N_19 
REMARK    9  A    between atoms: CB_17  and  OG_18 
REMARK   10  A    between atoms: CA_20  and  C_21 
REMARK       I    between atoms: C_21  and  N_26 
REMARK   11  A    between atoms: N_26  and  CA_27 
REMARK   12  A    between atoms: CA_27  and  C_28 
REMARK   13  A    between atoms: CA_27  and  CB_30 
REMARK       I    between atoms: C_28  and  N_33 
REMARK   14  A    between atoms: CB_30  and  OG1_31 
REMARK   15  A    between atoms: CB_30  and  CG2_32 
REMARK   16  A    between atoms: N_33  and  CA_34 
REMARK   17  A    between atoms: CA_34  and  CB_35 
REMARK   18  A    between atoms: CA_34  and  C_37 
REMARK   19  A    between atoms: CB_35  and  OG_36 
REMARK   20  A    between atoms: OG_36  and  P_39 
REMARK       I    between atoms: C_37  and  N_43 
REMARK   21  A    between atoms: CA_44  and  C_45 
REMARK       I    between atoms: C_45  and  N_50 
REMARK   22  A    between atoms: N_50  and  CA_51 
REMARK   23  A    between atoms: CA_51  and  C_52 
REMARK   24  A    between atoms: CA_51  and  CB_54 
REMARK       I    between atoms: C_52  and  N_56 
REMARK   25  A    between atoms: CB_54  and  OG_55 
REMARK   26  A    between atoms: N_56  and  CA_57 
REMARK   27  A    between atoms: CA_57  and  C_58 
REMARK   28  A    between atoms: CA_57  and  CB_60 
REMARK       I    between atoms: C_58  and  N_68 
REMARK   29  A    between atoms: CB_60  and  CG_61 
REMARK   30  A    between atoms: CZ_66  and  OH_67 
REMARK   31  A    between atoms: N_68  and  CA_69 
REMARK   32  A    between atoms: CA_69  and  C_70 
REMARK   33  A    between atoms: CA_69  and  CB_72 
REMARK       I    between atoms: C_70  and  N_74 
REMARK   34  A    between atoms: CB_72  and  OG_73 
REMARK   35  A    between atoms: CA_75  and  C_76 
REMARK       I    between atoms: C_76  and  N_81 
REMARK   36  A    between atoms: N_81  and  CA_82 
REMARK   37  A    between atoms: CA_82  and  C_83 
REMARK   38  A    between atoms: CA_82  and  CB_85 
REMARK       I    between atoms: C_83  and  N_88 
REMARK   39  A    between atoms: CB_85  and  OG1_86 
REMARK   40  A    between atoms: CB_85  and  CG2_87 
REMARK   41  A    between atoms: N_88  and  CA_89 
REMARK   42  A    between atoms: CA_89  and  CB_90 
REMARK   43  A    between atoms: CA_89  and  C_92 
REMARK   44  A    between atoms: CB_90  and  OG_91 
REMARK   45  A    between atoms: OG_91  and  P_94 
REMARK       I    between atoms: C_92  and  N_98 
REMARK   46  A    between atoms: CA_99  and  C_100 
REMARK       I    between atoms: C_100  and  N_105 
REMARK   47  A    between atoms: N_105  and  CA_106 
REMARK   48  A    between atoms: CA_106  and  C_107 
REMARK   49  A    between atoms: CA_106  and  CB_109 
REMARK   50  A    between atoms: CB_109  and  OG_110 
ROOT
ATOM      1  N   TYR d   1      -7.836 -10.488  -3.153  0.00  0.00    -0.346 N 
ATOM      2  H   TYR d   1      -7.150 -10.914  -3.777  0.00  0.00     0.163 HD
ATOM      3  C   SER d   1      -8.720 -11.276  -2.531  0.00  0.00     0.243 C 
ATOM      4  O   SER d   1      -9.572 -10.843  -1.759  0.00  0.00    -0.271 OA
ENDROOT
BRANCH   3   5
ATOM      5  CA  SER d   1      -8.635 -12.774  -2.822  0.00  0.00     0.109 C 
ATOM      6  H   SER d   1      -7.613 -13.008  -3.120  0.00  0.00     0.090 H 
BRANCH   5   7
ATOM      7  N   SER d   1      -8.966 -13.538  -1.630  0.00  0.00    -0.344 N 
ATOM      8  C   PRO d   1      -8.195 -13.507  -0.540  0.00  0.00     0.241 C 
ATOM      9  O   PRO d   1      -7.143 -12.871  -0.486  0.00  0.00    -0.271 OA
ATOM     10  H   SER d   1      -9.809 -14.113  -1.626  0.00  0.00     0.163 HD
BRANCH   8  11
ATOM     11  CA  PRO d   1      -8.677 -14.307   0.671  0.00  0.00     0.091 C 
ATOM     12  N   PRO d   1      -7.675 -14.260   1.720  0.00  0.00    -0.337 N 
ATOM     13  C   SEP d   1      -6.472 -14.855   1.711  0.00  0.00     0.245 C 
ATOM     14  CD  PRO d   1      -8.144 -13.449   2.828  0.00  0.00    -0.001 C 
ATOM     15  O   SEP d   1      -5.628 -14.594   2.566  0.00  0.00    -0.271 OA
ATOM     16  CG  PRO d   1      -9.329 -12.662   2.286  0.00  0.00    -0.048 C 
ATOM     17  H   PRO d   1      -7.361 -12.787   3.197  0.00  0.00     0.064 H 
ATOM     18  H   PRO d   1      -8.431 -14.066   3.680  0.00  0.00     0.064 H 
ATOM     19  CB  PRO d   1      -9.922 -13.659   1.287  0.00  0.00    -0.036 C 
ATOM     20  H   PRO d   1     -10.032 -12.344   3.056  0.00  0.00     0.035 H 
ATOM     21  H   PRO d   1      -9.053 -11.707   1.839  0.00  0.00     0.035 H 
ATOM     22  H   PRO d   1     -10.588 -14.383   1.756  0.00  0.00     0.036 H 
ATOM     23  H   PRO d   1     -10.563 -13.184   0.545  0.00  0.00     0.036 H 
ATOM     24  H   PRO d   1      -8.877 -15.321   0.326  0.00  0.00     0.087 H 
BRANCH  13  25
ATOM     25  CA  SEP d   1      -6.168 -15.875   0.608  0.00  0.00     0.110 C 
ATOM     26  H   SEP d   1      -7.118 -16.116   0.131  0.00  0.00     0.090 H 
BRANCH  25  27
ATOM     27  N   SEP d   1      -5.251 -15.345  -0.390  0.00  0.00    -0.344 N 
ATOM     28  C   THR d   1      -5.260 -15.748  -1.666  0.00  0.00     0.243 C 
ATOM     29  O   THR d   1      -6.106 -16.526  -2.109  0.00  0.00    -0.271 OA
ATOM     30  H   SEP d   1      -4.574 -14.637  -0.105  0.00  0.00     0.163 HD
BRANCH  28  31
ATOM     31  CA  THR d   1      -4.156 -15.192  -2.569  0.00  0.00     0.113 C 
ATOM     32  H   THR d   1      -3.265 -15.052  -1.957  0.00  0.00     0.091 H 
BRANCH  31  33
ATOM     33  N   THR d   1      -3.852 -16.133  -3.639  0.00  0.00    -0.344 N 
ATOM     34  C   PRO d   1      -2.605 -16.487  -3.968  0.00  0.00     0.241 C 
ATOM     35  O   PRO d   1      -1.620 -16.045  -3.378  0.00  0.00    -0.271 OA
ATOM     36  H   THR d   1      -4.627 -16.541  -4.162  0.00  0.00     0.163 HD
BRANCH  34  37
ATOM     37  CA  PRO d   1      -2.407 -17.476  -5.119  0.00  0.00     0.091 C 
ATOM     38  N   PRO d   1      -3.648 -17.903  -5.758  0.00  0.00    -0.337 N 
ATOM     39  C   SER d   1      -4.638 -18.561  -5.132  0.00  0.00     0.245 C 
ATOM     40  CD  PRO d   1      -3.631 -17.541  -7.165  0.00  0.00    -0.001 C 
ATOM     41  O   SER d   1      -4.563 -18.885  -3.948  0.00  0.00    -0.271 OA
ATOM     42  CG  PRO d   1      -2.152 -17.412  -7.517  0.00  0.00    -0.048 C 
ATOM     43  H   PRO d   1      -4.175 -16.615  -7.352  0.00  0.00     0.064 H 
ATOM     44  H   PRO d   1      -4.131 -18.288  -7.782  0.00  0.00     0.064 H 
ATOM     45  CB  PRO d   1      -1.572 -16.829  -6.226  0.00  0.00    -0.036 C 
ATOM     46  H   PRO d   1      -1.693 -18.356  -7.811  0.00  0.00     0.035 H 
ATOM     47  H   PRO d   1      -1.968 -16.791  -8.394  0.00  0.00     0.035 H 
ATOM     48  H   PRO d   1      -0.508 -17.041  -6.119  0.00  0.00     0.036 H 
ATOM     49  H   PRO d   1      -1.628 -15.741  -6.203  0.00  0.00     0.036 H 
ATOM     50  H   PRO d   1      -1.924 -18.340  -4.663  0.00  0.00     0.087 H 
BRANCH  39  51
ATOM     51  CA  SER d   1      -5.893 -18.903  -5.942  0.00  0.00     0.109 C 
ATOM     52  H   SER d   1      -5.570 -19.370  -6.872  0.00  0.00     0.090 H 
BRANCH  51  53
ATOM     53  N   SER d   1      -6.738 -19.817  -5.183  0.00  0.00    -0.344 N 
ATOM     54  C   TYR d   1      -7.412 -20.826  -5.737  0.00  0.00     0.249 C 
ATOM     55  O   TYR d   1      -7.342 -21.094  -6.932  0.00  0.00    -0.271 OA
ATOM     56  H   SER d   1      -6.818 -19.678  -4.176  0.00  0.00     0.163 HD
BRANCH  54  57
ATOM     57  CA  TYR d   1      -8.296 -21.654  -4.808  0.00  0.00     0.179 C 
ATOM     58  H   TYR d   1      -8.987 -20.978  -4.304  0.00  0.00     0.099 H 
BRANCH  57  59
ATOM     59  N   TYR d   1      -9.084 -22.632  -5.578  0.00  0.00    -0.066 N 
ATOM     60  H   TYR d   1      -9.634 -22.143  -6.284  0.00  0.00     0.275 HD
ATOM     61  H   TYR d   1      -8.453 -23.292  -6.034  0.00  0.00     0.275 HD
ATOM     62  H   TYR d   1      -9.708 -23.136  -4.948  0.00  0.00     0.275 HD
ENDBRANCH  57  59
BRANCH  57  63
ATOM     63  CB  TYR d   1      -7.456 -22.356  -3.737  0.00  0.00    -0.006 C 
ATOM     64  H   TYR d   1      -8.146 -22.916  -3.106  0.00  0.00     0.043 H 
ATOM     65  H   TYR d   1      -6.893 -21.583  -3.215  0.00  0.00     0.043 H 
BRANCH  63  66
ATOM     66  CG  TYR d   1      -6.451 -23.345  -4.280  0.00  0.00    -0.056 A 
ATOM     67  CD1 TYR d   1      -5.164 -22.915  -4.633  0.00  0.00    -0.074 A 
ATOM     68  CE1 TYR d   1      -4.230 -23.824  -5.145  0.00  0.00    -0.051 A 
ATOM     69  H   TYR d   1      -4.889 -21.868  -4.508  0.00  0.00     0.084 H 
ATOM     70  CZ  TYR d   1      -4.582 -25.181  -5.305  0.00  0.00     0.065 A 
ATOM     71  H   TYR d   1      -3.232 -23.483  -5.420  0.00  0.00     0.087 H 
ATOM     72  CE2 TYR d   1      -5.872 -25.613  -4.942  0.00  0.00    -0.051 A 
ATOM     73  CD2 TYR d   1      -6.802 -24.694  -4.433  0.00  0.00    -0.074 A 
ATOM     74  H   TYR d   1      -6.148 -26.661  -5.056  0.00  0.00     0.087 H 
ATOM     75  H   TYR d   1      -7.801 -25.030  -4.155  0.00  0.00     0.084 H 
BRANCH  70  76
ATOM     76  OH  TYR d   1      -3.677 -26.066  -5.810  0.00  0.00    -0.361 OA
ATOM     77  H   TYR d   1      -2.856 -25.608  -6.002  0.00  0.00     0.217 HD
ENDBRANCH  70  76
ENDBRANCH  63  66
ENDBRANCH  57  63
ENDBRANCH  54  57
ENDBRANCH  51  53
BRANCH  51  78
ATOM     78  CB  SER d   1      -6.700 -17.649  -6.276  0.00  0.00     0.044 C 
ATOM     79  H   SER d   1      -7.590 -17.931  -6.838  0.00  0.00     0.077 H 
ATOM     80  H   SER d   1      -6.088 -16.974  -6.874  0.00  0.00     0.077 H 
BRANCH  78  81
ATOM     81  OG  SER d   1      -7.085 -17.000  -5.084  0.00  0.00    -0.398 OA
ATOM     82  H   SER d   1      -6.301 -16.752  -4.588  0.00  0.00     0.209 HD
ENDBRANCH  78  81
ENDBRANCH  51  78
ENDBRANCH  39  51
ENDBRANCH  34  37
ENDBRANCH  31  33
BRANCH  31  83
ATOM     83  CB  THR d   1      -4.545 -13.833  -3.154  0.00  0.00     0.060 C 
ATOM     84  H   THR d   1      -4.863 -13.193  -2.331  0.00  0.00     0.086 H 
BRANCH  83  85
ATOM     85  OG1 THR d   1      -5.594 -13.986  -4.085  0.00  0.00    -0.393 OA
ATOM     86  H   THR d   1      -5.829 -13.127  -4.445  0.00  0.00     0.210 HD
ENDBRANCH  83  85
BRANCH  83  87
ATOM     87  CG2 THR d   1      -3.354 -13.200  -3.876  0.00  0.00    -0.050 C 
ATOM     88  H   THR d   1      -2.535 -13.061  -3.170  0.00  0.00     0.031 H 
ATOM     89  H   THR d   1      -3.031 -13.855  -4.685  0.00  0.00     0.031 H 
ATOM     90  H   THR d   1      -3.650 -12.234  -4.285  0.00  0.00     0.031 H 
ENDBRANCH  83  87
ENDBRANCH  31  83
ENDBRANCH  28  31
ENDBRANCH  25  27
BRANCH  25  91
ATOM     91  CB  SEP d   1      -5.512 -17.117   1.217  0.00  0.00     0.059 C 
ATOM     92  H   SEP d   1      -5.420 -17.889   0.453  0.00  0.00     0.079 H 
ATOM     93  H   SEP d   1      -6.128 -17.485   2.038  0.00  0.00     0.079 H 
BRANCH  91  94
ATOM     94  OG  SEP d   1      -4.228 -16.786   1.706  0.00  0.00    -0.280 OA
BRANCH  94  95
ATOM     95  P   SEP d   1      -3.201 -17.904   2.247  0.00  0.00     0.422 P 
ATOM     96  O1P SEP d   1      -2.062 -17.099   2.744  0.00  0.00    -0.617 OA
ATOM     97  O2P SEP d   1      -3.968 -18.599   3.305  0.00  0.00    -0.617 OA
ATOM     98  O3P SEP d   1      -2.908 -18.720   1.047  0.00  0.00    -0.617 OA
ENDBRANCH  94  95
ENDBRANCH  91  94
ENDBRANCH  25  91
ENDBRANCH  13  25
ENDBRANCH   8  11
ENDBRANCH   5   7
BRANCH   5  99
ATOM     99  CB  SER d   1      -9.574 -13.154  -3.966  0.00  0.00     0.044 C 
ATOM    100  H   SER d   1      -9.285 -12.607  -4.864  0.00  0.00     0.077 H 
ATOM    101  H   SER d   1     -10.598 -12.902  -3.688  0.00  0.00     0.077 H 
BRANCH  99 102
ATOM    102  OG  SER d   1      -9.490 -14.540  -4.220  0.00  0.00    -0.398 OA
ATOM    103  H   SER d   1     -10.083 -14.769  -4.939  0.00  0.00     0.209 HD
ENDBRANCH  99 102
ENDBRANCH   5  99
ENDBRANCH   3   5
BRANCH   1 104
ATOM    104  CA  TYR d   1      -7.819  -9.044  -2.970  0.00  0.00     0.093 C 
ATOM    105  H   TYR d   1      -8.845  -8.715  -2.804  0.00  0.00     0.088 H 
BRANCH 104 106
ATOM    106  C   TYR d   1      -7.282  -8.335  -4.207  0.00  0.00     0.241 C 
ATOM    107  O   TYR d   1      -6.360  -8.822  -4.857  0.00  0.00    -0.271 OA
ATOM    108  N   SER d   1      -7.863  -7.176  -4.532  0.00  0.00    -0.344 N 
ATOM    109  H   SER d   1      -8.645  -6.844  -3.968  0.00  0.00     0.163 HD
BRANCH 108 110
ATOM    110  CA  SER d   1      -7.423  -6.370  -5.659  0.00  0.00     0.109 C 
ATOM    111  H   SER d   1      -6.375  -6.602  -5.849  0.00  0.00     0.090 H 
BRANCH 110 112
ATOM    112  C   SER d   1      -7.540  -4.873  -5.353  0.00  0.00     0.245 C 
ATOM    113  O   SER d   1      -8.283  -4.464  -4.458  0.00  0.00    -0.271 OA
ATOM    114  N   PRO d   1      -6.803  -4.039  -6.101  0.00  0.00    -0.337 N 
ATOM    115  CA  PRO d   1      -6.877  -2.587  -6.027  0.00  0.00     0.091 C 
ATOM    116  CD  PRO d   1      -5.820  -4.447  -7.087  0.00  0.00    -0.001 C 
ATOM    117  CB  PRO d   1      -5.898  -2.078  -7.087  0.00  0.00    -0.036 C 
ATOM    118  H   PRO d   1      -6.626  -2.251  -5.021  0.00  0.00     0.087 H 
ATOM    119  CG  PRO d   1      -4.914  -3.233  -7.254  0.00  0.00    -0.048 C 
ATOM    120  H   PRO d   1      -5.406  -1.152  -6.789  0.00  0.00     0.036 H 
ATOM    121  H   PRO d   1      -6.395  -1.817  -8.021  0.00  0.00     0.036 H 
ATOM    122  H   PRO d   1      -4.091  -3.206  -6.539  0.00  0.00     0.035 H 
ATOM    123  H   PRO d   1      -4.386  -3.216  -8.207  0.00  0.00     0.035 H 
ATOM    124  H   PRO d   1      -6.285  -4.740  -8.028  0.00  0.00     0.064 H 
ATOM    125  H   PRO d   1      -5.264  -5.329  -6.767  0.00  0.00     0.064 H 
BRANCH 115 126
ATOM    126  C   PRO d   1      -8.281  -2.035  -6.280  0.00  0.00     0.241 C 
ATOM    127  O   PRO d   1      -8.480  -0.823  -6.227  0.00  0.00    -0.271 OA
ATOM    128  N   THR d   1      -9.261  -2.907  -6.553  0.00  0.00    -0.344 N 
ATOM    129  H   THR d   1      -9.043  -3.902  -6.602  0.00  0.00     0.163 HD
BRANCH 128 130
ATOM    130  CA  THR d   1     -10.629  -2.468  -6.781  0.00  0.00     0.113 C 
ATOM    131  H   THR d   1     -10.623  -1.669  -7.522  0.00  0.00     0.091 H 
BRANCH 130 132
ATOM    132  C   THR d   1     -11.242  -1.912  -5.500  0.00  0.00     0.243 C 
ATOM    133  O   THR d   1     -11.959  -0.912  -5.557  0.00  0.00    -0.271 OA
ATOM    134  N   SEP d   1     -10.970  -2.544  -4.347  0.00  0.00    -0.344 N 
ATOM    135  H   SEP d   1     -10.369  -3.368  -4.365  0.00  0.00     0.163 HD
BRANCH 134 136
ATOM    136  CA  SEP d   1     -11.509  -2.088  -3.066  0.00  0.00     0.110 C 
ATOM    137  H   SEP d   1     -11.611  -1.004  -3.120  0.00  0.00     0.090 H 
BRANCH 136 138
ATOM    138  CB  SEP d   1     -12.872  -2.738  -2.808  0.00  0.00     0.059 C 
ATOM    139  H   SEP d   1     -13.250  -2.394  -1.845  0.00  0.00     0.079 H 
ATOM    140  H   SEP d   1     -12.752  -3.821  -2.810  0.00  0.00     0.079 H 
BRANCH 138 141
ATOM    141  OG  SEP d   1     -13.792  -2.381  -3.812  0.00  0.00    -0.280 OA
BRANCH 141 142
ATOM    142  P   SEP d   1     -15.307  -2.925  -3.780  0.00  0.00     0.422 P 
ATOM    143  O1P SEP d   1     -15.850  -2.373  -2.517  0.00  0.00    -0.617 OA
ATOM    144  O2P SEP d   1     -15.891  -2.349  -5.014  0.00  0.00    -0.617 OA
ATOM    145  O3P SEP d   1     -15.153  -4.396  -3.799  0.00  0.00    -0.617 OA
ENDBRANCH 141 142
ENDBRANCH 138 141
ENDBRANCH 136 138
BRANCH 136 146
ATOM    146  C   SEP d   1     -10.571  -2.446  -1.908  0.00  0.00     0.245 C 
ATOM    147  O   SEP d   1     -10.174  -3.605  -1.784  0.00  0.00    -0.271 OA
ATOM    148  N   PRO d   1     -10.202  -1.481  -1.052  0.00  0.00    -0.337 N 
ATOM    149  CA  PRO d   1      -9.355  -1.713   0.108  0.00  0.00     0.091 C 
ATOM    150  CD  PRO d   1     -10.569  -0.078  -1.140  0.00  0.00    -0.001 C 
ATOM    151  CB  PRO d   1      -9.000  -0.317   0.621  0.00  0.00    -0.036 C 
ATOM    152  H   PRO d   1      -8.485  -2.308  -0.169  0.00  0.00     0.087 H 
ATOM    153  CG  PRO d   1     -10.219   0.512   0.224  0.00  0.00    -0.048 C 
ATOM    154  H   PRO d   1      -8.071   0.066   0.198  0.00  0.00     0.036 H 
ATOM    155  H   PRO d   1      -8.805  -0.297   1.693  0.00  0.00     0.036 H 
ATOM    156  H   PRO d   1     -10.023   1.584   0.195  0.00  0.00     0.035 H 
ATOM    157  H   PRO d   1     -11.036   0.453   0.944  0.00  0.00     0.035 H 
ATOM    158  H   PRO d   1     -11.626   0.048  -1.374  0.00  0.00     0.064 H 
ATOM    159  H   PRO d   1     -10.037   0.428  -1.946  0.00  0.00     0.064 H 
BRANCH 149 160
ATOM    160  C   PRO d   1     -10.065  -2.502   1.211  0.00  0.00     0.241 C 
ATOM    161  O   PRO d   1      -9.411  -2.962   2.146  0.00  0.00    -0.271 OA
ATOM    162  N   SER d   1     -11.389  -2.666   1.120  0.00  0.00    -0.343 N 
ATOM    163  H   SER d   1     -11.873  -2.324   0.290  0.00  0.00     0.163 HD
BRANCH 162 164
ATOM    164  CA  SER d   1     -12.161  -3.316   2.166  0.00  0.00     0.116 C 
ATOM    165  H   SER d   1     -11.492  -3.833   2.854  0.00  0.00     0.093 H 
BRANCH 164 166
ATOM    166  C   SER d   1     -13.075  -4.395   1.586  0.00  0.00     0.198 C 
ATOM    167  O   SER d   1     -12.629  -5.564   1.581  0.00  0.00    -0.646 OA
ATOM    168  OXT SER d   1     -14.200  -4.055   1.157  0.00  0.00    -0.646 OA
ENDBRANCH 164 166
BRANCH 164 169
ATOM    169  CB  SER d   1     -12.922  -2.253   2.960  0.00  0.00     0.045 C 
ATOM    170  H   SER d   1     -12.208  -1.578   3.433  0.00  0.00     0.077 H 
ATOM    171  H   SER d   1     -13.532  -2.741   3.720  0.00  0.00     0.077 H 
BRANCH 169 172
ATOM    172  OG  SER d   1     -13.759  -1.514   2.095  0.00  0.00    -0.398 OA
ATOM    173  H   SER d   1     -14.387  -2.107   1.676  0.00  0.00     0.209 HD
ENDBRANCH 169 172
ENDBRANCH 164 169
ENDBRANCH 162 164
ENDBRANCH 149 160
ENDBRANCH 136 146
ENDBRANCH 134 136
ENDBRANCH 130 132
BRANCH 130 174
ATOM    174  CB  THR d   1     -11.462  -3.638  -7.312  0.00  0.00     0.060 C 
ATOM    175  H   THR d   1     -11.568  -4.372  -6.513  0.00  0.00     0.086 H 
BRANCH 174 176
ATOM    176  OG1 THR d   1     -10.811  -4.221  -8.421  0.00  0.00    -0.393 OA
ATOM    177  H   THR d   1      -9.947  -4.541  -8.152  0.00  0.00     0.210 HD
ENDBRANCH 174 176
BRANCH 174 178
ATOM    178  CG2 THR d   1     -12.851  -3.169  -7.737  0.00  0.00    -0.050 C 
ATOM    179  H   THR d   1     -13.364  -2.733  -6.880  0.00  0.00     0.031 H 
ATOM    180  H   THR d   1     -12.755  -2.421  -8.524  0.00  0.00     0.031 H 
ATOM    181  H   THR d   1     -13.422  -4.019  -8.110  0.00  0.00     0.031 H 
ENDBRANCH 174 178
ENDBRANCH 130 174
ENDBRANCH 128 130
ENDBRANCH 115 126
ENDBRANCH 110 112
BRANCH 110 182
ATOM    182  CB  SER d   1      -8.264  -6.702  -6.894  0.00  0.00     0.044 C 
ATOM    183  H   SER d   1      -8.393  -7.782  -6.965  0.00  0.00     0.077 H 
ATOM    184  H   SER d   1      -7.758  -6.335  -7.787  0.00  0.00     0.077 H 
BRANCH 182 185
ATOM    185  OG  SER d   1      -9.532  -6.083  -6.784  0.00  0.00    -0.398 OA
ATOM    186  H   SER d   1     -10.057  -6.293  -7.559  0.00  0.00     0.209 HD
ENDBRANCH 182 185
ENDBRANCH 110 182
ENDBRANCH 108 110
ENDBRANCH 104 106
BRANCH 104 187
ATOM    187  CB  TYR d   1      -6.955  -8.683  -1.760  0.00  0.00    -0.014 C 
ATOM    188  H   TYR d   1      -5.974  -9.140  -1.887  0.00  0.00     0.043 H 
ATOM    189  H   TYR d   1      -7.450  -9.047  -0.860  0.00  0.00     0.043 H 
BRANCH 187 190
ATOM    190  CG  TYR d   1      -6.776  -7.191  -1.637  0.00  0.00    -0.056 A 
ATOM    191  CD1 TYR d   1      -5.723  -6.560  -2.319  0.00  0.00    -0.074 A 
ATOM    192  CE1 TYR d   1      -5.583  -5.171  -2.267  0.00  0.00    -0.051 A 
ATOM    193  H   TYR d   1      -5.012  -7.156  -2.891  0.00  0.00     0.084 H 
ATOM    194  CZ  TYR d   1      -6.498  -4.406  -1.520  0.00  0.00     0.065 A 
ATOM    195  H   TYR d   1      -4.769  -4.682  -2.802  0.00  0.00     0.087 H 
ATOM    196  CE2 TYR d   1      -7.520  -5.046  -0.791  0.00  0.00    -0.051 A 
ATOM    197  CD2 TYR d   1      -7.658  -6.437  -0.855  0.00  0.00    -0.074 A 
ATOM    198  H   TYR d   1      -8.203  -4.458  -0.178  0.00  0.00     0.087 H 
ATOM    199  H   TYR d   1      -8.452  -6.933  -0.296  0.00  0.00     0.084 H 
BRANCH 194 200
ATOM    200  OH  TYR d   1      -6.392  -3.050  -1.500  0.00  0.00    -0.361 OA
ATOM    201  H   TYR d   1      -5.649  -2.780  -2.045  0.00  0.00     0.217 HD
ENDBRANCH 194 200
ENDBRANCH 187 190
ENDBRANCH 104 187
ENDBRANCH   1 104
TORSDOF 50
