REMARK WARNING: 32 MAX_TORS EXCEEDED!!!
REMARK  58 active torsions:
REMARK  status: ('A' for Active; 'I' for Inactive)
REMARK    1  A    between atoms: N_1  and  CA_2 
REMARK    2  A    between atoms: CA_2  and  C_3 
REMARK    3  A    between atoms: CA_2  and  CB_5 
REMARK       I    between atoms: C_3  and  N_10 
REMARK    4  A    between atoms: CB_5  and  CG_6 
REMARK    5  A    between atoms: CG_6  and  CD_7 
REMARK    6  A    between atoms: N_10  and  CA_11 
REMARK    7  A    between atoms: CA_11  and  C_12 
REMARK    8  A    between atoms: CA_11  and  CB_14 
REMARK       I    between atoms: C_12  and  N_18 
REMARK    9  A    between atoms: CB_14  and  CG_15 
REMARK   10  A    between atoms: N_18  and  CA_19 
REMARK   11  A    between atoms: CA_19  and  C_20 
REMARK   12  A    between atoms: CA_19  and  CB_22 
REMARK       I    between atoms: C_20  and  N_28 
REMARK   13  A    between atoms: CB_22  and  CG_23 
REMARK   14  A    between atoms: N_28  and  CA_29 
REMARK   15  A    between atoms: CA_29  and  C_30 
REMARK   16  A    between atoms: CA_29  and  CB_32 
REMARK       I    between atoms: C_30  and  N_37 
REMARK   17  A    between atoms: CB_32  and  CG_33 
REMARK   18  A    between atoms: CG_33  and  CD_34 
REMARK   19  A    between atoms: CD_34  and  CE_35 
REMARK   20  A    between atoms: CE_35  and  NZ_36 
REMARK   21  A    between atoms: CA_38  and  C_39 
REMARK       I    between atoms: C_39  and  N_44 
REMARK   22  A    between atoms: N_44  and  CA_45 
REMARK   23  A    between atoms: CA_45  and  C_46 
REMARK       I    between atoms: C_46  and  N_48 
REMARK   24  A    between atoms: N_48  and  CA_49 
REMARK   25  A    between atoms: CA_49  and  C_50 
REMARK   26  A    between atoms: CA_49  and  CB_52 
REMARK       I    between atoms: C_50  and  N_55 
REMARK   27  A    between atoms: CB_52  and  OG1_53 
REMARK   28  A    between atoms: CB_52  and  CG2_54 
REMARK   29  A    between atoms: N_55  and  CA_56 
REMARK   30  A    between atoms: CA_56  and  C_57 
REMARK   31  A    between atoms: CA_56  and  CB_59 
REMARK       I    between atoms: C_57  and  N_66 
REMARK   32  A    between atoms: CB_59  and  CG_60 
REMARK   33  A    between atoms: CA_67  and  C_68 
REMARK       I    between atoms: C_68  and  N_73 
REMARK   34  A    between atoms: N_73  and  CA_74 
REMARK   35  A    between atoms: CA_74  and  C_75 
REMARK   36  A    between atoms: CA_74  and  CB_77 
REMARK       I    between atoms: C_75  and  N_82 
REMARK   37  A    between atoms: CB_77  and  CG_78 
REMARK   38  A    between atoms: CG_78  and  CD_79 
REMARK   39  A    between atoms: CD_79  and  CE_80 
REMARK   40  A    between atoms: CE_80  and  NZ_81 
REMARK   41  A    between atoms: N_82  and  CA_83 
REMARK   42  A    between atoms: CA_83  and  C_84 
REMARK   43  A    between atoms: CA_83  and  CB_86 
REMARK       I    between atoms: C_84  and  N_87 
REMARK   44  A    between atoms: N_87  and  CA_88 
REMARK   45  A    between atoms: CA_88  and  C_89 
REMARK   46  A    between atoms: CA_88  and  CB_91 
REMARK       I    between atoms: C_89  and  N_95 
REMARK   47  A    between atoms: CB_91  and  CG_92 
REMARK   48  A    between atoms: CG_92  and  CD1_93 
REMARK   49  A    between atoms: CG_92  and  CD2_94 
REMARK   50  A    between atoms: N_95  and  CA_96 
REMARK   51  A    between atoms: CA_96  and  C_97 
REMARK   52  A    between atoms: CA_96  and  CB_99 
REMARK       I    between atoms: C_97  and  N_102 
REMARK   53  A    between atoms: CB_99  and  OG1_100 
REMARK   54  A    between atoms: CB_99  and  CG2_101 
REMARK   55  A    between atoms: N_102  and  CA_103 
REMARK   56  A    between atoms: CA_103  and  C_104 
REMARK   57  A    between atoms: CA_103  and  CB_106 
REMARK   58  A    between atoms: CB_106  and  CG_107 
REMARK       I    between atoms: CG_107  and  ND2_109 
ROOT
ATOM      1  CA  PHE d   1      16.090   1.973   2.522  0.00  0.00     0.093 C 
ATOM      2  H   PHE d   1      16.682   2.569   1.827  0.00  0.00     0.088 H 
ENDROOT
BRANCH   1   3
ATOM      3  N   PHE d   1      16.748   0.666   2.624  0.00  0.00    -0.346 N 
ATOM      4  C   THR d   1      16.883  -0.133   1.565  0.00  0.00     0.243 C 
ATOM      5  O   THR d   1      16.467   0.169   0.445  0.00  0.00    -0.271 OA
ATOM      6  H   PHE d   1      17.111   0.361   3.527  0.00  0.00     0.163 HD
BRANCH   4   7
ATOM      7  CA  THR d   1      17.580  -1.475   1.797  0.00  0.00     0.113 C 
ATOM      8  H   THR d   1      18.138  -1.425   2.732  0.00  0.00     0.091 H 
BRANCH   7   9
ATOM      9  N   THR d   1      16.602  -2.541   1.911  0.00  0.00    -0.344 N 
ATOM     10  C   GLY d   1      16.747  -3.514   2.792  0.00  0.00     0.236 C 
ATOM     11  O   GLY d   1      17.700  -3.579   3.568  0.00  0.00    -0.272 OA
ATOM     12  H   THR d   1      15.786  -2.539   1.298  0.00  0.00     0.163 HD
BRANCH  10  13
ATOM     13  CA  GLY d   1      15.668  -4.566   2.802  0.00  0.00     0.069 C 
ATOM     14  H   GLY d   1      15.948  -5.334   3.523  0.00  0.00     0.078 H 
ATOM     15  H   GLY d   1      14.726  -4.084   3.062  0.00  0.00     0.078 H 
BRANCH  13  16
ATOM     16  N   GLY d   1      15.512  -5.194   1.515  0.00  0.00    -0.351 N 
ATOM     17  C   PRO d   1      14.679  -6.203   1.353  0.00  0.00     0.241 C 
ATOM     18  O   PRO d   1      14.003  -6.677   2.270  0.00  0.00    -0.271 OA
ATOM     19  H   GLY d   1      16.052  -4.854   0.720  0.00  0.00     0.163 HD
BRANCH  17  20
ATOM     20  CA  PRO d   1      14.605  -6.769  -0.054  0.00  0.00     0.091 C 
ATOM     21  N   PRO d   1      13.647  -7.871  -0.171  0.00  0.00    -0.337 N 
ATOM     22  C   LYS d   1      13.921  -9.127   0.207  0.00  0.00     0.243 C 
ATOM     23  CD  PRO d   1      12.397  -7.422  -0.781  0.00  0.00    -0.001 C 
ATOM     24  O   LYS d   1      15.017  -9.442   0.672  0.00  0.00    -0.271 OA
ATOM     25  CG  PRO d   1      12.851  -6.305  -1.673  0.00  0.00    -0.048 C 
ATOM     26  H   PRO d   1      11.654  -7.107  -0.048  0.00  0.00     0.064 H 
ATOM     27  H   PRO d   1      11.878  -8.214  -1.321  0.00  0.00     0.064 H 
ATOM     28  CB  PRO d   1      14.059  -5.705  -1.027  0.00  0.00    -0.036 C 
ATOM     29  H   PRO d   1      13.087  -6.675  -2.671  0.00  0.00     0.035 H 
ATOM     30  H   PRO d   1      12.065  -5.560  -1.794  0.00  0.00     0.035 H 
ATOM     31  H   PRO d   1      14.808  -5.435  -1.772  0.00  0.00     0.036 H 
ATOM     32  H   PRO d   1      13.805  -4.786  -0.499  0.00  0.00     0.036 H 
ATOM     33  H   PRO d   1      15.619  -7.097  -0.282  0.00  0.00     0.087 H 
BRANCH  22  34
ATOM     34  CA  LYS d   1      12.824 -10.175   0.030  0.00  0.00     0.089 C 
ATOM     35  H   LYS d   1      11.972  -9.727  -0.482  0.00  0.00     0.087 H 
BRANCH  34  36
ATOM     36  N   LYS d   1      13.336 -11.276  -0.770  0.00  0.00    -0.346 N 
ATOM     37  C   HIS d   1      13.268 -11.250  -2.094  0.00  0.00     0.241 C 
ATOM     38  O   HIS d   1      12.748 -10.324  -2.721  0.00  0.00    -0.271 OA
ATOM     39  H   LYS d   1      13.754 -12.082  -0.305  0.00  0.00     0.163 HD
BRANCH  37  40
ATOM     40  CA  HIS d   1      13.854 -12.444  -2.829  0.00  0.00     0.094 C 
ATOM     41  H   HIS d   1      13.959 -13.272  -2.128  0.00  0.00     0.088 H 
BRANCH  40  42
ATOM     42  N   HIS d   1      12.970 -12.868  -3.904  0.00  0.00    -0.346 N 
ATOM     43  C   ASP d   1      11.906 -13.618  -3.675  0.00  0.00     0.241 C 
ATOM     44  O   ASP d   1      11.591 -14.019  -2.552  0.00  0.00    -0.271 OA
ATOM     45  H   HIS d   1      13.177 -12.579  -4.860  0.00  0.00     0.163 HD
BRANCH  43  46
ATOM     46  CA  ASP d   1      11.077 -13.981  -4.897  0.00  0.00     0.098 C 
ATOM     47  H   ASP d   1      10.138 -14.424  -4.565  0.00  0.00     0.088 H 
BRANCH  46  48
ATOM     48  N   ASP d   1      10.748 -12.791  -5.680  0.00  0.00    -0.345 N 
ATOM     49  C   GLU d   1       9.492 -12.380  -5.792  0.00  0.00     0.249 C 
ATOM     50  O   GLU d   1       8.562 -12.961  -5.244  0.00  0.00    -0.271 OA
ATOM     51  H   ASP d   1      11.492 -12.271  -6.145  0.00  0.00     0.163 HD
BRANCH  49  52
ATOM     52  CA  GLU d   1       9.235 -11.129  -6.625  0.00  0.00     0.176 C 
ATOM     53  H   GLU d   1       8.170 -11.091  -6.854  0.00  0.00     0.099 H 
BRANCH  52  54
ATOM     54  N   GLU d   1       9.595  -9.912  -5.871  0.00  0.00    -0.066 N 
ATOM     55  H   GLU d   1       9.068  -9.886  -4.998  0.00  0.00     0.275 HD
ATOM     56  H   GLU d   1      10.594  -9.923  -5.666  0.00  0.00     0.275 HD
ATOM     57  H   GLU d   1       9.371  -9.089  -6.430  0.00  0.00     0.275 HD
ENDBRANCH  52  54
BRANCH  52  58
ATOM     58  CB  GLU d   1      10.014 -11.185  -7.935  0.00  0.00    -0.021 C 
ATOM     59  H   GLU d   1      10.060 -12.228  -8.249  0.00  0.00     0.037 H 
ATOM     60  H   GLU d   1      10.997 -10.750  -7.756  0.00  0.00     0.037 H 
BRANCH  58  61
ATOM     61  CG  GLU d   1       9.355 -10.394  -9.051  0.00  0.00     0.018 C 
ATOM     62  H   GLU d   1       9.986 -10.468  -9.937  0.00  0.00     0.049 H 
ATOM     63  H   GLU d   1       9.237  -9.365  -8.712  0.00  0.00     0.049 H 
BRANCH  61  64
ATOM     64  CD  GLU d   1       7.982 -10.933  -9.405  0.00  0.00     0.172 C 
ATOM     65  OE1 GLU d   1       7.834 -12.171  -9.482  0.00  0.00    -0.648 OA
ATOM     66  OE2 GLU d   1       7.047 -10.127  -9.609  0.00  0.00    -0.648 OA
ENDBRANCH  61  64
ENDBRANCH  58  61
ENDBRANCH  52  58
ENDBRANCH  49  52
ENDBRANCH  46  48
BRANCH  46  67
ATOM     67  CB  ASP d   1      11.832 -15.005  -5.747  0.00  0.00     0.043 C 
ATOM     68  H   ASP d   1      12.643 -14.489  -6.261  0.00  0.00     0.052 H 
ATOM     69  H   ASP d   1      11.125 -15.456  -6.444  0.00  0.00     0.052 H 
BRANCH  67  70
ATOM     70  CG  ASP d   1      12.436 -16.112  -4.904  0.00  0.00     0.175 C 
ATOM     71  OD1 ASP d   1      11.701 -17.049  -4.525  0.00  0.00    -0.648 OA
ATOM     72  OD2 ASP d   1      13.649 -16.048  -4.612  0.00  0.00    -0.648 OA
ENDBRANCH  67  70
ENDBRANCH  46  67
ENDBRANCH  43  46
ENDBRANCH  40  42
BRANCH  40  73
ATOM     73  CB  HIS d   1      15.232 -12.079  -3.387  0.00  0.00     0.002 C 
ATOM     74  H   HIS d   1      15.660 -11.328  -2.723  0.00  0.00     0.046 H 
ATOM     75  H   HIS d   1      15.085 -11.736  -4.411  0.00  0.00     0.046 H 
BRANCH  73  76
ATOM     76  CG  HIS d   1      16.195 -13.227  -3.438  0.00  0.00     0.030 A 
ATOM     77  ND1 HIS d   1      15.894 -14.475  -3.943  0.00  0.00    -0.353 N 
ATOM     78  CE1 HIS d   1      16.990 -15.237  -3.838  0.00  0.00     0.063 A 
ATOM     79  H   HIS d   1      14.995 -14.766  -4.328  0.00  0.00     0.166 HD
ATOM     80  NE2 HIS d   1      17.986 -14.568  -3.294  0.00  0.00    -0.254 NA
ATOM     81  H   HIS d   1      17.050 -16.276  -4.161  0.00  0.00     0.143 H 
ATOM     82  CD2 HIS d   1      17.490 -13.292  -3.036  0.00  0.00     0.025 A 
ATOM     83  H   HIS d   1      18.052 -12.475  -2.583  0.00  0.00     0.117 H 
ENDBRANCH  73  76
ENDBRANCH  40  73
ENDBRANCH  37  40
ENDBRANCH  34  36
BRANCH  34  84
ATOM     84  CB  LYS d   1      12.352 -10.681   1.400  0.00  0.00    -0.038 C 
ATOM     85  H   LYS d   1      12.693  -9.961   2.144  0.00  0.00     0.036 H 
ATOM     86  H   LYS d   1      12.759 -11.684   1.531  0.00  0.00     0.036 H 
BRANCH  84  87
ATOM     87  CG  LYS d   1      10.837 -10.788   1.537  0.00  0.00    -0.061 C 
ATOM     88  H   LYS d   1      10.455 -11.393   0.715  0.00  0.00     0.033 H 
ATOM     89  H   LYS d   1      10.414  -9.784   1.517  0.00  0.00     0.033 H 
BRANCH  87  90
ATOM     90  CD  LYS d   1      10.448 -11.454   2.853  0.00  0.00    -0.043 C 
ATOM     91  H   LYS d   1      11.027 -10.990   3.651  0.00  0.00     0.035 H 
ATOM     92  H   LYS d   1      10.649 -12.522   2.764  0.00  0.00     0.035 H 
BRANCH  90  93
ATOM     93  CE  LYS d   1       8.970 -11.276   3.175  0.00  0.00     0.080 C 
ATOM     94  H   LYS d   1       8.389 -11.768   2.395  0.00  0.00     0.075 H 
ATOM     95  H   LYS d   1       8.758 -10.208   3.228  0.00  0.00     0.075 H 
BRANCH  93  96
ATOM     96  NZ  LYS d   1       8.609 -11.889   4.484  0.00  0.00    -0.079 N 
ATOM     97  H   LYS d   1       7.614 -11.748   4.661  0.00  0.00     0.274 HD
ATOM     98  H   LYS d   1       8.813 -12.888   4.458  0.00  0.00     0.274 HD
ATOM     99  H   LYS d   1       9.153 -11.449   5.226  0.00  0.00     0.274 HD
ENDBRANCH  93  96
ENDBRANCH  90  93
ENDBRANCH  87  90
ENDBRANCH  84  87
ENDBRANCH  34  84
ENDBRANCH  22  34
ENDBRANCH  17  20
ENDBRANCH  13  16
ENDBRANCH  10  13
ENDBRANCH   7   9
BRANCH   7 100
ATOM    100  CB  THR d   1      18.577  -1.764   0.642  0.00  0.00     0.060 C 
ATOM    101  H   THR d   1      19.334  -0.980   0.663  0.00  0.00     0.086 H 
BRANCH 100 102
ATOM    102  OG1 THR d   1      17.895  -1.759  -0.619  0.00  0.00    -0.393 OA
ATOM    103  H   THR d   1      17.492  -0.899  -0.760  0.00  0.00     0.210 HD
ENDBRANCH 100 102
BRANCH 100 104
ATOM    104  CG2 THR d   1      19.250  -3.120   0.821  0.00  0.00    -0.050 C 
ATOM    105  H   THR d   1      19.797  -3.131   1.764  0.00  0.00     0.031 H 
ATOM    106  H   THR d   1      18.491  -3.902   0.830  0.00  0.00     0.031 H 
ATOM    107  H   THR d   1      19.942  -3.292  -0.004  0.00  0.00     0.031 H 
ENDBRANCH 100 104
ENDBRANCH   7 100
ENDBRANCH   4   7
ENDBRANCH   1   3
BRANCH   1 108
ATOM    108  C   PHE d   1      16.063   2.722   3.866  0.00  0.00     0.243 C 
ATOM    109  O   PHE d   1      16.580   3.836   3.955  0.00  0.00    -0.271 OA
ATOM    110  N   PRO d   1      15.481   2.138   4.934  0.00  0.00    -0.337 N 
ATOM    111  CA  PRO d   1      15.379   2.805   6.230  0.00  0.00     0.091 C 
ATOM    112  CD  PRO d   1      14.878   0.793   4.983  0.00  0.00    -0.001 C 
ATOM    113  CB  PRO d   1      14.155   2.136   6.846  0.00  0.00    -0.036 C 
ATOM    114  H   PRO d   1      15.307   3.887   6.122  0.00  0.00     0.087 H 
ATOM    115  CG  PRO d   1      14.188   0.742   6.326  0.00  0.00    -0.048 C 
ATOM    116  H   PRO d   1      13.232   2.649   6.578  0.00  0.00     0.036 H 
ATOM    117  H   PRO d   1      14.179   2.165   7.935  0.00  0.00     0.036 H 
ATOM    118  H   PRO d   1      13.179   0.341   6.228  0.00  0.00     0.035 H 
ATOM    119  H   PRO d   1      14.723   0.085   7.012  0.00  0.00     0.035 H 
ATOM    120  H   PRO d   1      15.623   0.005   4.874  0.00  0.00     0.064 H 
ATOM    121  H   PRO d   1      14.185   0.624   4.159  0.00  0.00     0.064 H 
BRANCH 111 122
ATOM    122  C   PRO d   1      16.602   2.609   7.124  0.00  0.00     0.241 C 
ATOM    123  O   PRO d   1      17.717   2.380   6.645  0.00  0.00    -0.271 OA
ATOM    124  N   LYS d   1      16.374   2.706   8.431  0.00  0.00    -0.346 N 
ATOM    125  H   LYS d   1      15.423   2.888   8.751  0.00  0.00     0.163 HD
BRANCH 124 126
ATOM    126  CA  LYS d   1      17.432   2.562   9.423  0.00  0.00     0.089 C 
ATOM    127  H   LYS d   1      18.344   2.267   8.904  0.00  0.00     0.087 H 
BRANCH 126 128
ATOM    128  C   LYS d   1      17.082   1.485  10.449  0.00  0.00     0.241 C 
ATOM    129  O   LYS d   1      17.460   1.595  11.616  0.00  0.00    -0.271 OA
ATOM    130  N   ALA d   1      16.374   0.443  10.005  0.00  0.00    -0.346 N 
ATOM    131  H   ALA d   1      16.118   0.406   9.018  0.00  0.00     0.163 HD
BRANCH 130 132
ATOM    132  CA  ALA d   1      15.953  -0.649  10.888  0.00  0.00     0.086 C 
ATOM    133  H   ALA d   1      15.330  -1.334  10.313  0.00  0.00     0.086 H 
BRANCH 132 134
ATOM    134  C   ALA d   1      15.123  -0.108  12.049  0.00  0.00     0.240 C 
ATOM    135  O   ALA d   1      15.600  -0.006  13.182  0.00  0.00    -0.271 OA
ATOM    136  N   LEU d   1      13.879   0.243  11.758  0.00  0.00    -0.346 N 
ATOM    137  H   LEU d   1      13.535   0.118  10.806  0.00  0.00     0.163 HD
BRANCH 136 138
ATOM    138  CA  LEU d   1      12.992   0.804  12.770  0.00  0.00     0.089 C 
ATOM    139  H   LEU d   1      13.617   1.068  13.623  0.00  0.00     0.087 H 
BRANCH 138 140
ATOM    140  C   LEU d   1      11.942  -0.205  13.200  0.00  0.00     0.241 C 
ATOM    141  O   LEU d   1      11.751  -1.237  12.555  0.00  0.00    -0.271 OA
ATOM    142  N   THR d   1      11.264   0.118  14.288  0.00  0.00    -0.344 N 
ATOM    143  H   THR d   1      11.497   0.987  14.768  0.00  0.00     0.163 HD
BRANCH 142 144
ATOM    144  CA  THR d   1      10.204  -0.709  14.829  0.00  0.00     0.113 C 
ATOM    145  H   THR d   1       9.618  -1.112  14.003  0.00  0.00     0.091 H 
BRANCH 144 146
ATOM    146  C   THR d   1       9.296   0.154  15.718  0.00  0.00     0.243 C 
ATOM    147  O   THR d   1       9.428   0.177  16.945  0.00  0.00    -0.271 OA
ATOM    148  N   ASN d   1       8.402   0.896  15.062  0.00  0.00    -0.344 N 
ATOM    149  H   ASN d   1       8.372   0.834  14.044  0.00  0.00     0.163 HD
BRANCH 148 150
ATOM    150  CA  ASN d   1       7.460   1.797  15.736  0.00  0.00     0.104 C 
ATOM    151  H   ASN d   1       6.798   2.208  14.974  0.00  0.00     0.090 H 
BRANCH 150 152
ATOM    152  C   ASN d   1       8.203   2.947  16.412  0.00  0.00     0.197 C 
ATOM    153  O   ASN d   1       8.671   3.855  15.691  0.00  0.00    -0.646 OA
ATOM    154  OXT ASN d   1       8.331   2.940  17.656  0.00  0.00    -0.646 OA
ENDBRANCH 150 152
BRANCH 150 155
ATOM    155  CB  ASN d   1       6.591   1.048  16.754  0.00  0.00     0.037 C 
ATOM    156  H   ASN d   1       7.198   0.854  17.638  0.00  0.00     0.051 H 
ATOM    157  H   ASN d   1       6.236   0.131  16.284  0.00  0.00     0.051 H 
BRANCH 155 158
ATOM    158  CG  ASN d   1       5.378   1.856  17.185  0.00  0.00     0.217 C 
ATOM    159  OD1 ASN d   1       5.109   2.005  18.376  0.00  0.00    -0.274 OA
ATOM    160  ND2 ASN d   1       4.626   2.360  16.218  0.00  0.00    -0.370 N 
ATOM    161  H   ASN d   1       3.789   2.895  16.449  0.00  0.00     0.159 HD
ATOM    162  H   ASN d   1       4.884   2.213  15.242  0.00  0.00     0.159 HD
ENDBRANCH 155 158
ENDBRANCH 150 155
ENDBRANCH 148 150
ENDBRANCH 144 146
BRANCH 144 163
ATOM    163  CB  THR d   1      10.761  -1.935  15.602  0.00  0.00     0.060 C 
ATOM    164  H   THR d   1      11.198  -2.610  14.866  0.00  0.00     0.086 H 
BRANCH 163 165
ATOM    165  OG1 THR d   1       9.707  -2.614  16.297  0.00  0.00    -0.393 OA
ATOM    166  H   THR d   1       9.297  -2.011  16.922  0.00  0.00     0.210 HD
ENDBRANCH 163 165
BRANCH 163 167
ATOM    167  CG2 THR d   1      11.857  -1.536  16.582  0.00  0.00    -0.050 C 
ATOM    168  H   THR d   1      12.679  -1.072  16.037  0.00  0.00     0.031 H 
ATOM    169  H   THR d   1      11.455  -0.828  17.306  0.00  0.00     0.031 H 
ATOM    170  H   THR d   1      12.219  -2.423  17.102  0.00  0.00     0.031 H 
ENDBRANCH 163 167
ENDBRANCH 144 163
ENDBRANCH 142 144
ENDBRANCH 138 140
BRANCH 138 171
ATOM    171  CB  LEU d   1      12.275   2.061  12.248  0.00  0.00    -0.035 C 
ATOM    172  H   LEU d   1      11.727   2.467  13.099  0.00  0.00     0.037 H 
ATOM    173  H   LEU d   1      11.685   1.734  11.392  0.00  0.00     0.037 H 
BRANCH 171 174
ATOM    174  CG  LEU d   1      13.160   3.203  11.736  0.00  0.00    -0.059 C 
ATOM    175  H   LEU d   1      12.584   4.127  11.784  0.00  0.00     0.038 H 
BRANCH 174 176
ATOM    176  CD1 LEU d   1      14.386   3.387  12.616  0.00  0.00    -0.073 C 
ATOM    177  H   LEU d   1      14.070   3.621  13.633  0.00  0.00     0.028 H 
ATOM    178  H   LEU d   1      14.971   2.467  12.618  0.00  0.00     0.028 H 
ATOM    179  H   LEU d   1      14.992   4.204  12.226  0.00  0.00     0.028 H 
ENDBRANCH 174 176
BRANCH 174 180
ATOM    180  CD2 LEU d   1      13.552   2.963  10.287  0.00  0.00    -0.073 C 
ATOM    181  H   LEU d   1      14.103   2.026  10.211  0.00  0.00     0.028 H 
ATOM    182  H   LEU d   1      12.653   2.908   9.673  0.00  0.00     0.028 H 
ATOM    183  H   LEU d   1      14.180   3.784   9.941  0.00  0.00     0.028 H 
ENDBRANCH 174 180
ENDBRANCH 171 174
ENDBRANCH 138 171
ENDBRANCH 136 138
ENDBRANCH 132 134
BRANCH 132 184
ATOM    184  CB  ALA d   1      17.161  -1.430  11.400  0.00  0.00    -0.049 C 
ATOM    185  H   ALA d   1      17.705  -1.851  10.554  0.00  0.00     0.030 H 
ATOM    186  H   ALA d   1      17.816  -0.760  11.957  0.00  0.00     0.030 H 
ATOM    187  H   ALA d   1      16.822  -2.234  12.053  0.00  0.00     0.030 H 
ENDBRANCH 132 184
ENDBRANCH 130 132
ENDBRANCH 126 128
BRANCH 126 188
ATOM    188  CB  LYS d   1      17.647   3.895  10.148  0.00  0.00    -0.038 C 
ATOM    189  H   LYS d   1      18.486   3.760  10.831  0.00  0.00     0.036 H 
ATOM    190  H   LYS d   1      16.709   4.149  10.643  0.00  0.00     0.036 H 
BRANCH 188 191
ATOM    191  CG  LYS d   1      17.998   5.051   9.225  0.00  0.00    -0.061 C 
ATOM    192  H   LYS d   1      18.022   5.968   9.813  0.00  0.00     0.033 H 
ATOM    193  H   LYS d   1      17.248   5.104   8.436  0.00  0.00     0.033 H 
BRANCH 191 194
ATOM    194  CD  LYS d   1      19.359   4.854   8.584  0.00  0.00    -0.043 C 
ATOM    195  H   LYS d   1      19.337   3.928   8.009  0.00  0.00     0.035 H 
ATOM    196  H   LYS d   1      20.109   4.821   9.374  0.00  0.00     0.035 H 
BRANCH 194 197
ATOM    197  CE  LYS d   1      19.708   5.993   7.641  0.00  0.00     0.080 C 
ATOM    198  H   LYS d   1      19.706   6.924   8.209  0.00  0.00     0.075 H 
ATOM    199  H   LYS d   1      18.972   6.013   6.837  0.00  0.00     0.075 H 
BRANCH 197 200
ATOM    200  NZ  LYS d   1      21.055   5.811   7.041  0.00  0.00    -0.079 N 
ATOM    201  H   LYS d   1      21.256   6.591   6.415  0.00  0.00     0.274 HD
ATOM    202  H   LYS d   1      21.755   5.779   7.782  0.00  0.00     0.274 HD
ATOM    203  H   LYS d   1      21.076   4.938   6.514  0.00  0.00     0.274 HD
ENDBRANCH 197 200
ENDBRANCH 194 197
ENDBRANCH 191 194
ENDBRANCH 188 191
ENDBRANCH 126 188
ENDBRANCH 124 126
ENDBRANCH 111 122
ENDBRANCH   1 108
BRANCH   1 204
ATOM    204  CB  PHE d   1      14.662   1.825   1.970  0.00  0.00    -0.014 C 
ATOM    205  H   PHE d   1      14.102   1.223   2.686  0.00  0.00     0.043 H 
ATOM    206  H   PHE d   1      14.746   1.380   0.979  0.00  0.00     0.043 H 
BRANCH 204 207
ATOM    207  CG  PHE d   1      13.922   3.125   1.810  0.00  0.00    -0.056 A 
ATOM    208  CD1 PHE d   1      14.557   4.247   1.298  0.00  0.00    -0.077 A 
ATOM    209  CE1 PHE d   1      13.874   5.441   1.154  0.00  0.00    -0.082 A 
ATOM    210  H   PHE d   1      15.605   4.187   1.006  0.00  0.00     0.084 H 
ATOM    211  CZ  PHE d   1      12.545   5.522   1.519  0.00  0.00    -0.083 A 
ATOM    212  H   PHE d   1      14.384   6.317   0.753  0.00  0.00     0.083 H 
ATOM    213  CE2 PHE d   1      11.902   4.411   2.029  0.00  0.00    -0.082 A 
ATOM    214  H   PHE d   1      12.004   6.461   1.405  0.00  0.00     0.083 H 
ATOM    215  CD2 PHE d   1      12.589   3.222   2.172  0.00  0.00    -0.077 A 
ATOM    216  H   PHE d   1      10.853   4.473   2.318  0.00  0.00     0.083 H 
ATOM    217  H   PHE d   1      12.076   2.349   2.575  0.00  0.00     0.084 H 
ENDBRANCH 204 207
ENDBRANCH   1 204
TORSDOF 58
