REMARK WARNING: 32 MAX_TORS EXCEEDED!!!
REMARK  41 active torsions:
REMARK  status: ('A' for Active; 'I' for Inactive)
REMARK    1  A    between atoms: C_1  and  CH3_3 
REMARK       I    between atoms: C_1  and  N_4 
REMARK    2  A    between atoms: N_4  and  CA_5 
REMARK    3  A    between atoms: CA_5  and  C_6 
REMARK       I    between atoms: C_6  and  N_8 
REMARK    4  A    between atoms: N_8  and  CA_9 
REMARK    5  A    between atoms: CA_15  and  CB_18 
REMARK    6  A    between atoms: CB_18  and  CG1_19 
REMARK    7  A    between atoms: CB_18  and  CG2_20 
REMARK    8  A    between atoms: CA_26  and  CB_29 
REMARK    9  A    between atoms: CB_29  and  CG_30 
REMARK   10  A    between atoms: CG_30  and  CD_31 
REMARK   11  A    between atoms: CD_31  and  NE_32 
REMARK       I    between atoms: NE_32  and  CZ_33 
REMARK       I    between atoms: CZ_33  and  NH1_34 
REMARK       I    between atoms: CZ_33  and  NH2_35 
REMARK   12  A    between atoms: CA_37  and  CB_40 
REMARK   13  A    between atoms: CA_42  and  CB_45 
REMARK   14  A    between atoms: CB_45  and  CG_46 
REMARK   15  A    between atoms: CG_46  and  CD1_47 
REMARK   16  A    between atoms: CG_46  and  CD2_48 
REMARK   17  A    between atoms: CA_50  and  CB_53 
REMARK   18  A    between atoms: CA_55  and  CB_58 
REMARK   19  A    between atoms: CA_60  and  CB_63 
REMARK   20  A    between atoms: CB_63  and  CG_64 
REMARK   21  A    between atoms: CA_75  and  CB_78 
REMARK   22  A    between atoms: CB_78  and  CG_79 
REMARK   23  A    between atoms: CA_83  and  C_84 
REMARK       I    between atoms: C_84  and  N_88 
REMARK   24  A    between atoms: N_88  and  CA_89 
REMARK   25  A    between atoms: CA_89  and  C_90 
REMARK   26  A    between atoms: CA_89  and  CB_92 
REMARK       I    between atoms: C_90  and  N_96 
REMARK   27  A    between atoms: CB_92  and  CG1_93 
REMARK   28  A    between atoms: CB_92  and  CG2_94 
REMARK   29  A    between atoms: CG1_93  and  CD1_95 
REMARK   30  A    between atoms: N_96  and  CA_97 
REMARK   31  A    between atoms: CA_97  and  C_98 
REMARK   32  A    between atoms: CA_97  and  CB_100 
REMARK       I    between atoms: C_98  and  N_104 
REMARK   33  A    between atoms: CB_100  and  CG_101 
REMARK       I    between atoms: CG_101  and  ND2_103 
REMARK   34  A    between atoms: N_104  and  CA_105 
REMARK   35  A    between atoms: CA_105  and  C_106 
REMARK   36  A    between atoms: CA_105  and  CB_108 
REMARK       I    between atoms: C_106  and  N_115 
REMARK   37  A    between atoms: CB_108  and  CG_109 
REMARK   38  A    between atoms: CG_109  and  CD_110 
REMARK   39  A    between atoms: CD_110  and  NE_111 
REMARK       I    between atoms: NE_111  and  CZ_112 
REMARK       I    between atoms: CZ_112  and  NH1_113 
REMARK   40  A    between atoms: C6_122  and  S6_123 
REMARK   41  A    between atoms: C16_133  and  S17_135 
ROOT
ATOM      1  N   GLY d   1     -12.045 -12.677   1.554  0.00  0.00    -0.351 N 
ATOM      2  CA  GLY d   1     -11.434 -13.002   2.811  0.00  0.00     0.069 C 
ATOM      3  C   GLY d   1     -10.421 -14.123   2.631  0.00  0.00     0.236 C 
ATOM      4  O   GLY d   1      -9.226 -13.911   2.795  0.00  0.00    -0.272 OA
ATOM      5  N   GLY d   1      -2.320 -12.963  -0.608  0.00  0.00    -0.351 N 
ATOM      6  CA  GLY d   1      -1.549 -11.937   0.047  0.00  0.00     0.069 C 
ATOM      7  C   GLY d   1      -0.216 -12.431   0.555  0.00  0.00     0.236 C 
ATOM      8  O   GLY d   1       0.728 -11.653   0.687  0.00  0.00    -0.272 OA
ATOM      9  H   GLY d   1     -13.051 -12.521   1.494  0.00  0.00     0.163 HD
ATOM     10  H   GLY d   1     -12.206 -13.328   3.508  0.00  0.00     0.078 H 
ATOM     11  H   GLY d   1     -10.924 -12.120   3.197  0.00  0.00     0.078 H 
ATOM     12  H   GLY d   1      -3.129 -13.364  -0.133  0.00  0.00     0.163 HD
ATOM     13  H   GLY d   1      -2.123 -11.589   0.906  0.00  0.00     0.078 H 
ATOM     14  H   GLY d   1      -1.355 -11.152  -0.683  0.00  0.00     0.078 H 
ATOM     15  CA  CYS d   1     -13.477 -15.930  -1.544  0.00  0.00     0.097 C 
ATOM     16  C   CYS d   1     -13.000 -14.743  -0.732  0.00  0.00     0.241 C 
ATOM     17  O   CYS d   1     -13.165 -14.725   0.484  0.00  0.00    -0.271 OA
ATOM     18  CB  CYS d   1     -13.546 -15.530  -3.011  0.00  0.00     0.004 C 
ATOM     19  SG  CYS d   1     -14.389 -16.734  -4.076  0.00  0.00    -0.157 SA
ATOM     20  N   CYS d   1       1.749 -13.964  -1.023  0.00  0.00    -0.345 N 
ATOM     21  CA  CYS d   1       2.588 -14.075  -2.208  0.00  0.00     0.097 C 
ATOM     22  CB  CYS d   1       1.742 -14.448  -3.423  0.00  0.00     0.004 C 
ATOM     23  SG  CYS d   1       0.671 -15.899  -3.168  0.00  0.00    -0.157 SA
ATOM     24  H   CYS d   1     -12.774 -16.754  -1.426  0.00  0.00     0.088 H 
ATOM     25  H   CYS d   1     -12.520 -15.448  -3.369  0.00  0.00     0.052 H 
ATOM     26  H   CYS d   1     -14.115 -14.602  -3.063  0.00  0.00     0.052 H 
ATOM     27  H   CYS d   1       0.852 -13.484  -1.093  0.00  0.00     0.163 HD
ATOM     28  H   CYS d   1       3.323 -14.859  -2.025  0.00  0.00     0.088 H 
ATOM     29  H   CYS d   1       2.430 -14.694  -4.232  0.00  0.00     0.052 H 
ATOM     30  H   CYS d   1       1.091 -13.600  -3.635  0.00  0.00     0.052 H 
ATOM     31  H   CYS d   1     -13.490 -18.886  -4.586  0.00  0.00     0.063 H 
ATOM     32  H   CYS d   1     -13.691 -18.634  -2.811  0.00  0.00     0.063 H 
ATOM     33  H   CYS d   1     -11.610 -19.373  -2.335  0.00  0.00     0.169 HD
ATOM     34  H   CYS d   1      -9.553 -19.018  -0.916  0.00  0.00     0.087 H 
ATOM     35  H   CYS d   1      -7.069 -19.025  -1.050  0.00  0.00     0.087 H 
ATOM     36  H   CYS d   1      -7.288 -18.237  -5.257  0.00  0.00     0.089 H 
ATOM     37  H   CYS d   1      -3.055 -19.361  -0.572  0.00  0.00     0.087 H 
ATOM     38  H   CYS d   1      -3.974 -18.488  -4.665  0.00  0.00     0.089 H 
ATOM     39  H   CYS d   1      -0.627 -19.336  -1.114  0.00  0.00     0.087 H 
ATOM     40  H   CYS d   1       0.664 -19.023  -4.459  0.00  0.00     0.169 HD
ATOM     41  H   CYS d   1       2.378 -16.883  -1.804  0.00  0.00     0.063 H 
ATOM     42  H   CYS d   1       2.619 -17.246  -3.539  0.00  0.00     0.063 H 
ATOM     43  N   VAL d   1     -12.392 -13.775  -1.440  0.00  0.00    -0.346 N 
ATOM     44  CA  VAL d   1     -11.935 -12.493  -0.904  0.00  0.00     0.092 C 
ATOM     45  C   VAL d   1     -11.281 -12.581   0.466  0.00  0.00     0.241 C 
ATOM     46  O   VAL d   1     -10.060 -12.527   0.529  0.00  0.00    -0.271 OA
ATOM     47  H   VAL d   1     -12.237 -13.949  -2.433  0.00  0.00     0.163 HD
ATOM     48  H   VAL d   1     -11.131 -12.182  -1.571  0.00  0.00     0.088 H 
ATOM     49  N   ARG d   1     -10.897 -15.287   2.201  0.00  0.00    -0.346 N 
ATOM     50  CA  ARG d   1     -10.030 -16.437   1.936  0.00  0.00     0.089 C 
ATOM     51  C   ARG d   1      -9.005 -16.139   0.843  0.00  0.00     0.241 C 
ATOM     52  O   ARG d   1      -7.838 -16.504   0.960  0.00  0.00    -0.271 OA
ATOM     53  H   ARG d   1     -11.901 -15.383   2.050  0.00  0.00     0.163 HD
ATOM     54  H   ARG d   1      -9.497 -16.656   2.861  0.00  0.00     0.087 H 
ATOM     55  N   ALA d   1      -9.447 -15.469  -0.213  0.00  0.00    -0.346 N 
ATOM     56  CA  ALA d   1      -8.619 -15.280  -1.398  0.00  0.00     0.086 C 
ATOM     57  C   ALA d   1      -7.467 -14.310  -1.152  0.00  0.00     0.240 C 
ATOM     58  O   ALA d   1      -6.324 -14.621  -1.467  0.00  0.00    -0.271 OA
ATOM     59  N   ALA d   1      -6.441 -13.221   1.811  0.00  0.00    -0.346 N 
ATOM     60  CA  ALA d   1      -5.689 -13.893   2.868  0.00  0.00     0.086 C 
ATOM     61  C   ALA d   1      -4.565 -14.735   2.268  0.00  0.00     0.240 C 
ATOM     62  O   ALA d   1      -3.415 -14.702   2.713  0.00  0.00    -0.271 OA
ATOM     63  N   ALA d   1      -4.947 -15.502   1.249  0.00  0.00    -0.346 N 
ATOM     64  CA  ALA d   1      -4.075 -16.471   0.604  0.00  0.00     0.086 C 
ATOM     65  C   ALA d   1      -3.125 -15.809  -0.387  0.00  0.00     0.240 C 
ATOM     66  O   ALA d   1      -1.905 -15.919  -0.260  0.00  0.00    -0.271 OA
ATOM     67  H   ALA d   1     -10.388 -15.077  -0.196  0.00  0.00     0.163 HD
ATOM     68  H   ALA d   1      -8.176 -16.246  -1.639  0.00  0.00     0.086 H 
ATOM     69  H   ALA d   1      -7.460 -13.255   1.833  0.00  0.00     0.163 HD
ATOM     70  H   ALA d   1      -5.282 -13.122   3.522  0.00  0.00     0.086 H 
ATOM     71  H   ALA d   1      -5.901 -15.405   0.902  0.00  0.00     0.163 HD
ATOM     72  H   ALA d   1      -3.465 -16.947   1.371  0.00  0.00     0.086 H 
ATOM     73  N   LEU d   1      -7.760 -13.148  -0.586  0.00  0.00    -0.346 N 
ATOM     74  CA  LEU d   1      -6.727 -12.146  -0.346  0.00  0.00     0.089 C 
ATOM     75  C   LEU d   1      -5.839 -12.566   0.820  0.00  0.00     0.241 C 
ATOM     76  O   LEU d   1      -4.642 -12.288   0.825  0.00  0.00    -0.271 OA
ATOM     77  H   LEU d   1      -8.723 -12.951  -0.314  0.00  0.00     0.163 HD
ATOM     78  H   LEU d   1      -6.118 -12.077  -1.248  0.00  0.00     0.087 H 
ATOM     79  N   PHE d   1      -3.693 -15.121  -1.373  0.00  0.00    -0.346 N 
ATOM     80  CA  PHE d   1      -2.907 -14.460  -2.412  0.00  0.00     0.093 C 
ATOM     81  C   PHE d   1      -1.995 -13.394  -1.817  0.00  0.00     0.241 C 
ATOM     82  O   PHE d   1      -1.014 -12.981  -2.439  0.00  0.00    -0.271 OA
ATOM     83  H   PHE d   1      -4.710 -15.053  -1.405  0.00  0.00     0.163 HD
ATOM     84  H   PHE d   1      -2.289 -15.220  -2.890  0.00  0.00     0.088 H 
ATOM     85  N   ASP d   1      -0.121 -13.725   0.818  0.00  0.00    -0.346 N 
ATOM     86  CA  ASP d   1       1.126 -14.308   1.299  0.00  0.00     0.098 C 
ATOM     87  C   ASP d   1       2.122 -14.472   0.146  0.00  0.00     0.241 C 
ATOM     88  O   ASP d   1       3.212 -15.024   0.312  0.00  0.00    -0.271 OA
ATOM     89  H   ASP d   1      -0.935 -14.325   0.682  0.00  0.00     0.163 HD
ATOM     90  H   ASP d   1       1.564 -13.633   2.034  0.00  0.00     0.088 H 
ATOM     91  C1  33B d   1     -13.370 -18.192  -3.754  0.00  0.00     0.051 C 
ATOM     92  C2  33B d   1     -11.884 -17.830  -3.637  0.00  0.00     0.231 C 
ATOM     93  O2  33B d   1     -11.433 -16.804  -4.144  0.00  0.00    -0.272 OA
ATOM     94  N3  33B d   1     -11.155 -18.689  -2.939  0.00  0.00    -0.325 N 
ATOM     95  C4  33B d   1      -9.823 -18.655  -3.030  0.00  0.00     0.059 A 
ATOM     96  C5  33B d   1      -9.059 -18.859  -1.874  0.00  0.00    -0.053 A 
ATOM     97  C6  33B d   1      -9.174 -18.432  -4.260  0.00  0.00     0.109 A 
ATOM     98  C7  33B d   1      -7.665 -18.859  -1.948  0.00  0.00    -0.051 A 
ATOM     99  C8  33B d   1      -7.791 -18.423  -4.308  0.00  0.00    -0.028 A 
ATOM    100  C9  33B d   1      -7.039 -18.646  -3.171  0.00  0.00     0.080 A 
ATOM    101  N10 33B d   1      -5.715 -18.692  -3.293  0.00  0.00    -0.150 NA
ATOM    102  N11 33B d   1      -4.963 -18.911  -2.348  0.00  0.00    -0.150 NA
ATOM    103  C12 33B d   1      -3.658 -18.919  -2.596  0.00  0.00     0.080 A 
ATOM    104  C13 33B d   1      -2.724 -19.162  -1.591  0.00  0.00    -0.051 A 
ATOM    105  C14 33B d   1      -3.238 -18.675  -3.883  0.00  0.00    -0.028 A 
ATOM    106  C15 33B d   1      -1.364 -19.150  -1.895  0.00  0.00    -0.053 A 
ATOM    107  C16 33B d   1      -1.890 -18.665  -4.194  0.00  0.00     0.109 A 
ATOM    108  C17 33B d   1      -0.950 -18.899  -3.204  0.00  0.00     0.059 A 
ATOM    109  N18 33B d   1       0.341 -18.834  -3.510  0.00  0.00    -0.325 N 
ATOM    110  C19 33B d   1       1.200 -18.516  -2.548  0.00  0.00     0.231 C 
ATOM    111  O19 33B d   1       1.445 -19.228  -1.575  0.00  0.00    -0.272 OA
ATOM    112  C20 33B d   1       1.887 -17.165  -2.735  0.00  0.00     0.051 C 
ENDROOT
BRANCH  21 113
ATOM    113  C   CYS d   1       3.331 -12.768  -2.480  0.00  0.00     0.241 C 
ATOM    114  O   CYS d   1       4.027 -12.643  -3.488  0.00  0.00    -0.271 OA
ATOM    115  N   ILE d   1       3.188 -11.795  -1.582  0.00  0.00    -0.346 N 
ATOM    116  H   ILE d   1       2.587 -11.946  -0.772  0.00  0.00     0.163 HD
BRANCH 115 117
ATOM    117  CA  ILE d   1       3.875 -10.517  -1.735  0.00  0.00     0.092 C 
ATOM    118  H   ILE d   1       3.849 -10.251  -2.792  0.00  0.00     0.088 H 
BRANCH 117 119
ATOM    119  C   ILE d   1       5.327 -10.646  -1.282  0.00  0.00     0.241 C 
ATOM    120  O   ILE d   1       5.740 -10.103  -0.254  0.00  0.00    -0.271 OA
ATOM    121  N   ASN d   1       6.074 -11.422  -2.052  0.00  0.00    -0.346 N 
ATOM    122  H   ASN d   1       5.636 -11.870  -2.857  0.00  0.00     0.163 HD
BRANCH 121 123
ATOM    123  CA  ASN d   1       7.487 -11.669  -1.811  0.00  0.00     0.097 C 
ATOM    124  H   ASN d   1       8.030 -10.724  -1.796  0.00  0.00     0.088 H 
BRANCH 123 125
ATOM    125  C   ASN d   1       7.995 -12.567  -2.927  0.00  0.00     0.241 C 
ATOM    126  O   ASN d   1       8.980 -12.259  -3.601  0.00  0.00    -0.271 OA
ATOM    127  N   ARG d   1       7.280 -13.666  -3.131  0.00  0.00    -0.346 N 
ATOM    128  H   ARG d   1       6.504 -13.871  -2.502  0.00  0.00     0.163 HD
BRANCH 127 129
ATOM    129  CA  ARG d   1       7.561 -14.588  -4.217  0.00  0.00     0.089 C 
ATOM    130  H   ARG d   1       8.215 -14.091  -4.933  0.00  0.00     0.087 H 
BRANCH 129 131
ATOM    131  C   ARG d   1       6.264 -14.983  -4.917  0.00  0.00     0.238 C 
ATOM    132  O   ARG d   1       5.521 -15.839  -4.437  0.00  0.00    -0.271 OA
ATOM    133  N   NH2 d   1       5.978 -14.337  -6.033  0.00  0.00    -0.368 N 
ATOM    134  H   NH2 d   1       5.112 -14.540  -6.532  0.00  0.00     0.159 HD
ATOM    135  H   NH2 d   1       6.623 -13.635  -6.395  0.00  0.00     0.159 HD
ENDBRANCH 129 131
BRANCH 129 136
ATOM    136  CB  ARG d   1       8.271 -15.834  -3.692  0.00  0.00    -0.036 C 
ATOM    137  H   ARG d   1       7.576 -16.352  -3.031  0.00  0.00     0.036 H 
ATOM    138  H   ARG d   1       9.183 -15.505  -3.195  0.00  0.00     0.036 H 
BRANCH 136 139
ATOM    139  CG  ARG d   1       8.674 -16.810  -4.785  0.00  0.00    -0.048 C 
ATOM    140  H   ARG d   1       9.339 -16.296  -5.479  0.00  0.00     0.035 H 
ATOM    141  H   ARG d   1       7.771 -17.162  -5.283  0.00  0.00     0.035 H 
BRANCH 139 142
ATOM    142  CD  ARG d   1       9.408 -18.010  -4.217  0.00  0.00     0.009 C 
ATOM    143  H   ARG d   1       9.706 -18.651  -5.046  0.00  0.00     0.064 H 
ATOM    144  H   ARG d   1       8.740 -18.523  -3.525  0.00  0.00     0.064 H 
BRANCH 142 145
ATOM    145  NE  ARG d   1      10.611 -17.619  -3.486  0.00  0.00    -0.227 N 
ATOM    146  CZ  ARG d   1      11.629 -18.437  -3.236  0.00  0.00     0.665 C 
ATOM    147  NH1 ARG d   1      11.604 -19.692  -3.671  0.00  0.00    -0.235 N 
ATOM    148  NH2 ARG d   1      12.675 -17.995  -2.553  0.00  0.00    -0.235 N 
ATOM    149  H   ARG d   1      10.801 -20.033  -4.200  0.00  0.00     0.174 HD
ATOM    150  H   ARG d   1      12.388 -20.315  -3.476  0.00  0.00     0.174 HD
ATOM    151  H   ARG d   1      12.697 -17.031  -2.221  0.00  0.00     0.174 HD
ATOM    152  H   ARG d   1      13.458 -18.619  -2.359  0.00  0.00     0.174 HD
ATOM    153  H   ARG d   1      10.674 -16.659  -3.147  0.00  0.00     0.177 HD
ENDBRANCH 142 145
ENDBRANCH 139 142
ENDBRANCH 136 139
ENDBRANCH 129 136
ENDBRANCH 127 129
ENDBRANCH 123 125
BRANCH 123 154
ATOM    154  CB  ASN d   1       7.706 -12.345  -0.448  0.00  0.00     0.036 C 
ATOM    155  H   ASN d   1       7.462 -13.402  -0.558  0.00  0.00     0.051 H 
ATOM    156  H   ASN d   1       7.075 -11.837   0.281  0.00  0.00     0.051 H 
BRANCH 154 157
ATOM    157  CG  ASN d   1       9.144 -12.249   0.037  0.00  0.00     0.217 C 
ATOM    158  OD1 ASN d   1      10.081 -12.146  -0.755  0.00  0.00    -0.274 OA
ATOM    159  ND2 ASN d   1       9.325 -12.293   1.348  0.00  0.00    -0.370 N 
ATOM    160  H   ASN d   1      10.267 -12.241   1.735  0.00  0.00     0.159 HD
ATOM    161  H   ASN d   1       8.522 -12.379   1.971  0.00  0.00     0.159 HD
ENDBRANCH 154 157
ENDBRANCH 123 154
ENDBRANCH 121 123
ENDBRANCH 117 119
BRANCH 117 162
ATOM    162  CB  ILE d   1       3.167  -9.385  -0.959  0.00  0.00    -0.030 C 
ATOM    163  H   ILE d   1       3.241  -9.586   0.110  0.00  0.00     0.043 H 
BRANCH 162 164
ATOM    164  CG1 ILE d   1       1.691  -9.336  -1.364  0.00  0.00    -0.063 C 
ATOM    165  H   ILE d   1       1.267 -10.319  -1.162  0.00  0.00     0.033 H 
ATOM    166  H   ILE d   1       1.653  -9.045  -2.414  0.00  0.00     0.033 H 
BRANCH 164 167
ATOM    167  CD1 ILE d   1       0.876  -8.328  -0.589  0.00  0.00    -0.076 C 
ATOM    168  H   ILE d   1       0.912  -8.573   0.472  0.00  0.00     0.027 H 
ATOM    169  H   ILE d   1       1.288  -7.331  -0.747  0.00  0.00     0.027 H 
ATOM    170  H   ILE d   1      -0.157  -8.355  -0.935  0.00  0.00     0.027 H 
ENDBRANCH 164 167
ENDBRANCH 162 164
BRANCH 162 171
ATOM    171  CG2 ILE d   1       3.839  -8.040  -1.238  0.00  0.00    -0.071 C 
ATOM    172  H   ILE d   1       4.882  -8.085  -0.925  0.00  0.00     0.028 H 
ATOM    173  H   ILE d   1       3.787  -7.824  -2.305  0.00  0.00     0.028 H 
ATOM    174  H   ILE d   1       3.325  -7.256  -0.682  0.00  0.00     0.028 H 
ENDBRANCH 162 171
ENDBRANCH 117 162
ENDBRANCH 115 117
ENDBRANCH  21 113
BRANCH  86 175
ATOM    175  CB  ASP d   1       0.858 -15.656   1.980  0.00  0.00     0.043 C 
ATOM    176  H   ASP d   1       0.632 -16.386   1.203  0.00  0.00     0.052 H 
ATOM    177  H   ASP d   1       0.033 -15.521   2.679  0.00  0.00     0.052 H 
BRANCH 175 178
ATOM    178  CG  ASP d   1       2.056 -16.161   2.762  0.00  0.00     0.175 C 
ATOM    179  OD1 ASP d   1       2.495 -15.469   3.706  0.00  0.00    -0.648 OA
ATOM    180  OD2 ASP d   1       2.563 -17.259   2.442  0.00  0.00    -0.648 OA
ENDBRANCH 175 178
ENDBRANCH  86 175
BRANCH 107 181
ATOM    181  S17 33B d   1      -1.370 -18.346  -5.831  0.00  0.00     0.140 S 
ATOM    182  O71 33B d   1      -0.365 -19.378  -6.256  0.00  0.00    -0.591 OA
ATOM    183  O72 33B d   1      -0.753 -16.977  -5.909  0.00  0.00    -0.591 OA
ATOM    184  O73 33B d   1      -2.548 -18.410  -6.755  0.00  0.00    -0.591 OA
ENDBRANCH 107 181
BRANCH  80 185
ATOM    185  CB  PHE d   1      -3.825 -13.824  -3.462  0.00  0.00    -0.014 C 
ATOM    186  H   PHE d   1      -3.234 -13.079  -3.994  0.00  0.00     0.043 H 
ATOM    187  H   PHE d   1      -4.686 -13.420  -2.931  0.00  0.00     0.043 H 
BRANCH 185 188
ATOM    188  CG  PHE d   1      -4.353 -14.786  -4.491  0.00  0.00    -0.056 A 
ATOM    189  CD1 PHE d   1      -3.559 -15.165  -5.560  0.00  0.00    -0.077 A 
ATOM    190  CE1 PHE d   1      -4.034 -16.035  -6.520  0.00  0.00    -0.082 A 
ATOM    191  H   PHE d   1      -2.546 -14.771  -5.644  0.00  0.00     0.084 H 
ATOM    192  CZ  PHE d   1      -5.318 -16.533  -6.424  0.00  0.00    -0.083 A 
ATOM    193  H   PHE d   1      -3.396 -16.329  -7.354  0.00  0.00     0.083 H 
ATOM    194  CE2 PHE d   1      -6.122 -16.160  -5.366  0.00  0.00    -0.082 A 
ATOM    195  H   PHE d   1      -5.696 -17.219  -7.182  0.00  0.00     0.083 H 
ATOM    196  CD2 PHE d   1      -5.642 -15.296  -4.409  0.00  0.00    -0.077 A 
ATOM    197  H   PHE d   1      -7.137 -16.550  -5.289  0.00  0.00     0.083 H 
ATOM    198  H   PHE d   1      -6.282 -15.008  -3.575  0.00  0.00     0.084 H 
ENDBRANCH 185 188
ENDBRANCH  80 185
BRANCH  64 199
ATOM    199  CB  ALA d   1      -4.928 -17.503  -0.110  0.00  0.00    -0.049 C 
ATOM    200  H   ALA d   1      -5.568 -18.008   0.614  0.00  0.00     0.030 H 
ATOM    201  H   ALA d   1      -5.545 -17.007  -0.859  0.00  0.00     0.030 H 
ATOM    202  H   ALA d   1      -4.281 -18.233  -0.596  0.00  0.00     0.030 H 
ENDBRANCH  64 199
BRANCH  97 203
ATOM    203  S6  33B d   1     -10.047 -18.240  -5.777  0.00  0.00     0.140 S 
ATOM    204  O61 33B d   1      -9.315 -18.986  -6.860  0.00  0.00    -0.591 OA
ATOM    205  O62 33B d   1     -11.434 -18.806  -5.686  0.00  0.00    -0.591 OA
ATOM    206  O63 33B d   1     -10.120 -16.788  -6.146  0.00  0.00    -0.591 OA
ENDBRANCH  97 203
BRANCH  60 207
ATOM    207  CB  ALA d   1      -6.587 -14.824   3.645  0.00  0.00    -0.049 C 
ATOM    208  H   ALA d   1      -7.398 -14.252   4.095  0.00  0.00     0.030 H 
ATOM    209  H   ALA d   1      -7.000 -15.575   2.971  0.00  0.00     0.030 H 
ATOM    210  H   ALA d   1      -6.009 -15.315   4.428  0.00  0.00     0.030 H 
ENDBRANCH  60 207
BRANCH  74 211
ATOM    211  CB  LEU d   1      -7.331 -10.759  -0.087  0.00  0.00    -0.035 C 
ATOM    212  H   LEU d   1      -6.506 -10.120   0.228  0.00  0.00     0.037 H 
ATOM    213  H   LEU d   1      -8.129 -10.905   0.641  0.00  0.00     0.037 H 
BRANCH 211 214
ATOM    214  CG  LEU d   1      -7.975 -10.064  -1.300  0.00  0.00    -0.059 C 
ATOM    215  H   LEU d   1      -7.998  -8.995  -1.090  0.00  0.00     0.038 H 
BRANCH 214 216
ATOM    216  CD1 LEU d   1      -7.151 -10.313  -2.543  0.00  0.00    -0.073 C 
ATOM    217  H   LEU d   1      -6.146  -9.917  -2.396  0.00  0.00     0.028 H 
ATOM    218  H   LEU d   1      -7.097 -11.385  -2.733  0.00  0.00     0.028 H 
ATOM    219  H   LEU d   1      -7.618  -9.816  -3.393  0.00  0.00     0.028 H 
ENDBRANCH 214 216
BRANCH 214 220
ATOM    220  CD2 LEU d   1      -9.412 -10.516  -1.521  0.00  0.00    -0.073 C 
ATOM    221  H   LEU d   1      -9.430 -11.592  -1.695  0.00  0.00     0.028 H 
ATOM    222  H   LEU d   1     -10.006 -10.280  -0.638  0.00  0.00     0.028 H 
ATOM    223  H   LEU d   1      -9.825  -9.999  -2.387  0.00  0.00     0.028 H 
ENDBRANCH 214 220
ENDBRANCH 211 214
ENDBRANCH  74 211
BRANCH  56 224
ATOM    224  CB  ALA d   1      -9.467 -14.818  -2.569  0.00  0.00    -0.049 C 
ATOM    225  H   ALA d   1     -10.228 -15.568  -2.783  0.00  0.00     0.030 H 
ATOM    226  H   ALA d   1      -9.948 -13.873  -2.317  0.00  0.00     0.030 H 
ATOM    227  H   ALA d   1      -8.832 -14.682  -3.445  0.00  0.00     0.030 H 
ENDBRANCH  56 224
BRANCH  15 228
ATOM    228  N   CYS d   1     -14.781 -16.395  -1.070  0.00  0.00    -0.346 N 
ATOM    229  C   GLY d   1     -15.881 -15.649  -1.162  0.00  0.00     0.236 C 
ATOM    230  O   GLY d   1     -15.890 -14.504  -1.616  0.00  0.00    -0.272 OA
ATOM    231  H   CYS d   1     -14.850 -17.324  -0.654  0.00  0.00     0.163 HD
BRANCH 229 232
ATOM    232  CA  GLY d   1     -17.164 -16.278  -0.661  0.00  0.00     0.069 C 
ATOM    233  H   GLY d   1     -17.514 -16.984  -1.414  0.00  0.00     0.078 H 
ATOM    234  H   GLY d   1     -16.955 -16.767   0.291  0.00  0.00     0.078 H 
BRANCH 232 235
ATOM    235  N   GLY d   1     -18.202 -15.294  -0.446  0.00  0.00    -0.353 N 
ATOM    236  C   ACE d   1     -19.323 -15.319  -1.152  0.00  0.00     0.213 C 
ATOM    237  O   ACE d   1     -19.522 -16.164  -2.029  0.00  0.00    -0.274 OA
ATOM    238  H   GLY d   1     -18.069 -14.570   0.260  0.00  0.00     0.162 HD
BRANCH 236 239
ATOM    239  CH3 ACE d   1     -20.384 -14.272  -0.872  0.00  0.00    -0.003 C 
ATOM    240  H   ACE d   1     -20.563 -13.688  -1.774  0.00  0.00     0.040 H 
ATOM    241  H   ACE d   1     -21.307 -14.765  -0.568  0.00  0.00     0.040 H 
ATOM    242  H   ACE d   1     -20.041 -13.614  -0.073  0.00  0.00     0.040 H 
ENDBRANCH 236 239
ENDBRANCH 232 235
ENDBRANCH 229 232
ENDBRANCH  15 228
BRANCH  50 243
ATOM    243  CB  ARG d   1     -10.869 -17.641   1.506  0.00  0.00    -0.036 C 
ATOM    244  H   ARG d   1     -10.367 -18.093   0.651  0.00  0.00     0.036 H 
ATOM    245  H   ARG d   1     -11.873 -17.273   1.294  0.00  0.00     0.036 H 
BRANCH 243 246
ATOM    246  CG  ARG d   1     -11.003 -18.718   2.565  0.00  0.00    -0.048 C 
ATOM    247  H   ARG d   1     -10.017 -19.146   2.745  0.00  0.00     0.035 H 
ATOM    248  H   ARG d   1     -11.709 -19.466   2.205  0.00  0.00     0.035 H 
BRANCH 246 249
ATOM    249  CD  ARG d   1     -11.526 -18.159   3.873  0.00  0.00     0.009 C 
ATOM    250  H   ARG d   1     -12.379 -17.516   3.655  0.00  0.00     0.064 H 
ATOM    251  H   ARG d   1     -10.719 -17.609   4.358  0.00  0.00     0.064 H 
BRANCH 249 252
ATOM    252  NE  ARG d   1     -11.969 -19.220   4.777  0.00  0.00    -0.227 N 
ATOM    253  CZ  ARG d   1     -12.072 -19.099   6.103  0.00  0.00     0.665 C 
ATOM    254  NH1 ARG d   1     -11.665 -17.999   6.723  0.00  0.00    -0.235 N 
ATOM    255  NH2 ARG d   1     -12.558 -20.104   6.818  0.00  0.00    -0.235 N 
ATOM    256  H   ARG d   1     -11.266 -17.229   6.186  0.00  0.00     0.174 HD
ATOM    257  H   ARG d   1     -11.751 -17.923   7.737  0.00  0.00     0.174 HD
ATOM    258  H   ARG d   1     -12.851 -20.964   6.355  0.00  0.00     0.174 HD
ATOM    259  H   ARG d   1     -12.639 -20.017   7.831  0.00  0.00     0.174 HD
ATOM    260  H   ARG d   1     -12.218 -20.119   4.364  0.00  0.00     0.177 HD
ENDBRANCH 249 252
ENDBRANCH 246 249
ENDBRANCH 243 246
ENDBRANCH  50 243
BRANCH  44 261
ATOM    261  CB  VAL d   1     -13.013 -11.416  -0.973  0.00  0.00    -0.033 C 
ATOM    262  H   VAL d   1     -12.755 -10.612  -0.283  0.00  0.00     0.042 H 
BRANCH 261 263
ATOM    263  CG1 VAL d   1     -13.095 -10.877  -2.383  0.00  0.00    -0.071 C 
ATOM    264  H   VAL d   1     -12.133 -10.448  -2.663  0.00  0.00     0.028 H 
ATOM    265  H   VAL d   1     -13.346 -11.688  -3.067  0.00  0.00     0.028 H 
ATOM    266  H   VAL d   1     -13.865 -10.107  -2.432  0.00  0.00     0.028 H 
ENDBRANCH 261 263
BRANCH 261 267
ATOM    267  CG2 VAL d   1     -14.329 -11.982  -0.587  0.00  0.00    -0.071 C 
ATOM    268  H   VAL d   1     -14.589 -12.792  -1.269  0.00  0.00     0.028 H 
ATOM    269  H   VAL d   1     -14.273 -12.367   0.431  0.00  0.00     0.028 H 
ATOM    270  H   VAL d   1     -15.088 -11.202  -0.641  0.00  0.00     0.028 H 
ENDBRANCH 261 267
ENDBRANCH  44 261
TORSDOF 41
