REMARK  14 active torsions:
REMARK  status: ('A' for Active; 'I' for Inactive)
REMARK    1  A    between atoms: N_1  and  CA_2 
REMARK    2  A    between atoms: CA_2  and  C_3 
REMARK    3  A    between atoms: CA_2  and  CB_5 
REMARK       I    between atoms: C_3  and  N_6 
REMARK    4  A    between atoms: N_6  and  CA_7 
REMARK    5  A    between atoms: CA_7  and  C_8 
REMARK    6  A    between atoms: CA_7  and  CB_10 
REMARK       I    between atoms: C_8  and  N_11 
REMARK    7  A    between atoms: CA_12  and  C_13 
REMARK       I    between atoms: C_13  and  N_18 
REMARK    8  A    between atoms: N_18  and  CA_19 
REMARK    9  A    between atoms: CA_19  and  CB_20 
REMARK   10  A    between atoms: CA_19  and  B_23 
REMARK   11  A    between atoms: CB_20  and  CG1_21 
REMARK   12  A    between atoms: CB_20  and  CG2_22 
REMARK   13  A    between atoms: B_23  and  O1_24 
REMARK   14  A    between atoms: B_23  and  O2_25 
ROOT
ATOM      1  C   ALA d   1      13.703  36.149  17.362  0.00  0.00     0.243 C 
ATOM      2  O   ALA d   1      14.517  36.370  16.474  0.00  0.00    -0.271 OA
ATOM      3  N   PRO d   1      13.498  35.005  17.972  0.00  0.00    -0.337 N 
ATOM      4  CA  PRO d   1      14.226  33.799  17.629  0.00  0.00     0.091 C 
ATOM      5  CB  PRO d   1      13.581  32.699  18.488  0.00  0.00    -0.036 C 
ATOM      6  CG  PRO d   1      12.776  33.397  19.508  0.00  0.00    -0.048 C 
ATOM      7  CD  PRO d   1      12.482  34.790  19.011  0.00  0.00    -0.001 C 
ATOM      8  H13 PRO d   1      15.308  33.904  17.796  0.00  0.00     0.087 H 
ATOM      9  H14 PRO d   1      14.357  32.085  18.968  0.00  0.00     0.036 H 
ATOM     10  H15 PRO d   1      12.938  32.057  17.867  0.00  0.00     0.036 H 
ATOM     11  H16 PRO d   1      13.338  33.450  20.452  0.00  0.00     0.035 H 
ATOM     12  H17 PRO d   1      11.833  32.855  19.672  0.00  0.00     0.035 H 
ATOM     13  H18 PRO d   1      11.468  34.851  18.588  0.00  0.00     0.064 H 
ATOM     14  H19 PRO d   1      12.586  35.527  19.821  0.00  0.00     0.064 H 
ENDROOT
BRANCH   1  15
ATOM     15  CA  ALA d   1      12.805  37.308  17.772  0.00  0.00     0.086 C 
ATOM     16  H9  ALA d   1      12.489  37.194  18.819  0.00  0.00     0.086 H 
BRANCH  15  17
ATOM     17  N   ALA d   1      13.589  38.562  17.590  0.00  0.00    -0.346 N 
ATOM     18  C   ALA d   1      13.504  39.564  18.451  0.00  0.00     0.248 C 
ATOM     19  O   ALA d   1      12.770  39.506  19.472  0.00  0.00    -0.271 OA
ATOM     20  H8  ALA d   1      14.194  38.649  16.798  0.00  0.00     0.163 HD
BRANCH  18  21
ATOM     21  CA  ALA d   1      14.383  40.744  18.081  0.00  0.00     0.172 C 
ATOM     22  H4  ALA d   1      14.612  40.635  17.011  0.00  0.00     0.098 H 
BRANCH  21  23
ATOM     23  N   ALA d   1      13.850  42.119  18.254  0.00  0.00    -0.067 N 
ATOM     24  H1  ALA d   1      14.547  42.788  17.967  0.00  0.00     0.275 HD
ATOM     25  H2  ALA d   1      13.618  42.270  19.223  0.00  0.00     0.275 HD
ATOM     26  H3  ALA d   1      13.023  42.232  17.689  0.00  0.00     0.275 HD
ENDBRANCH  21  23
BRANCH  21  27
ATOM     27  CB  ALA d   1      15.684  40.631  18.865  0.00  0.00    -0.042 C 
ATOM     28  H5  ALA d   1      16.095  39.617  18.749  0.00  0.00     0.030 H 
ATOM     29  H6  ALA d   1      15.489  40.828  19.930  0.00  0.00     0.030 H 
ATOM     30  H7  ALA d   1      16.407  41.366  18.483  0.00  0.00     0.030 H 
ENDBRANCH  21  27
ENDBRANCH  18  21
ENDBRANCH  15  17
BRANCH  15  31
ATOM     31  CB  ALA d   1      11.594  37.381  16.866  0.00  0.00    -0.049 C 
ATOM     32  H10 ALA d   1      10.995  36.465  16.980  0.00  0.00     0.030 H 
ATOM     33  H11 ALA d   1      11.923  37.476  15.821  0.00  0.00     0.030 H 
ATOM     34  H12 ALA d   1      10.984  38.255  17.139  0.00  0.00     0.030 H 
ENDBRANCH  15  31
ENDBRANCH   1  15
BRANCH   4  35
ATOM     35  C   PRO d   1      13.898  33.397  16.194  0.00  0.00     0.240 C 
ATOM     36  O   PRO d   1      12.744  33.568  15.762  0.00  0.00    -0.271 OA
ATOM     37  N   B2V d   1      14.843  32.807  15.468  0.00  0.00    -0.358 N 
ATOM     38  H20 B2V d   1      15.745  32.686  15.881  0.00  0.00     0.162 HD
BRANCH  37  39
ATOM     39  CA  B2V d   1      14.641  32.320  14.088  0.00  0.00     0.049 C 
ATOM     40  H21 B2V d   1      13.585  32.472  13.821  0.00  0.00     0.065 H 
BRANCH  39  41
ATOM     41  CB  B2V d   1      15.480  33.135  13.084  0.00  0.00    -0.044 C 
ATOM     42  H22 B2V d   1      15.376  32.632  12.111  0.00  0.00     0.041 H 
BRANCH  41  43
ATOM     43  CG1 B2V d   1      14.925  34.525  12.939  0.00  0.00    -0.072 C 
ATOM     44  H23 B2V d   1      15.536  35.090  12.220  0.00  0.00     0.028 H 
ATOM     45  H24 B2V d   1      14.945  35.032  13.915  0.00  0.00     0.028 H 
ATOM     46  H25 B2V d   1      13.888  34.470  12.576  0.00  0.00     0.028 H 
ENDBRANCH  41  43
BRANCH  41  47
ATOM     47  CG2 B2V d   1      16.979  33.209  13.378  0.00  0.00    -0.072 C 
ATOM     48  H26 B2V d   1      17.383  32.191  13.484  0.00  0.00     0.028 H 
ATOM     49  H27 B2V d   1      17.142  33.767  14.312  0.00  0.00     0.028 H 
ATOM     50  H28 B2V d   1      17.490  33.722  12.550  0.00  0.00     0.028 H 
ENDBRANCH  41  47
ENDBRANCH  39  41
BRANCH  39  51
ATOM     51  B   B2V d   1      14.913  30.790  14.065  0.00  0.00     0.515 B 
BRANCH  51  52
ATOM     52  O1  B2V d   1      14.886  30.192  12.718  0.00  0.00    -0.436 OA
ATOM     53  H29 B2V d   1      15.167  29.286  12.769  0.00  0.00     0.184 HD
ENDBRANCH  51  52
BRANCH  51  54
ATOM     54  O2  B2V d   1      14.013  30.076  15.006  0.00  0.00    -0.436 OA
ATOM     55  H30 B2V d   1      14.058  30.489  15.860  0.00  0.00     0.184 HD
ENDBRANCH  51  54
ENDBRANCH  39  51
ENDBRANCH  37  39
ENDBRANCH   4  35
TORSDOF 14
