REMARK WARNING: 32 MAX_TORS EXCEEDED!!!
REMARK  76 active torsions:
REMARK  status: ('A' for Active; 'I' for Inactive)
REMARK    1  A    between atoms: N_1  and  CA_2 
REMARK    2  A    between atoms: CA_2  and  C_3 
REMARK    3  A    between atoms: CA_2  and  CB_5 
REMARK       I    between atoms: C_3  and  N_10 
REMARK    4  A    between atoms: CB_5  and  CG_6 
REMARK    5  A    between atoms: CG_6  and  CD_7 
REMARK       I    between atoms: CD_7  and  NE2_9 
REMARK    6  A    between atoms: N_10  and  CA_11 
REMARK    7  A    between atoms: CA_11  and  C_12 
REMARK    8  A    between atoms: CA_11  and  CB_14 
REMARK       I    between atoms: C_12  and  N_16 
REMARK    9  A    between atoms: CB_14  and  OG_15 
REMARK   10  A    between atoms: N_16  and  CA_17 
REMARK   11  A    between atoms: CA_17  and  C_18 
REMARK   12  A    between atoms: CA_17  and  CB_20 
REMARK       I    between atoms: C_18  and  N_23 
REMARK   13  A    between atoms: CB_20  and  OG1_21 
REMARK   14  A    between atoms: CB_20  and  CG2_22 
REMARK   15  A    between atoms: N_23  and  CA_24 
REMARK   16  A    between atoms: CA_24  and  C_25 
REMARK       I    between atoms: C_25  and  N_27 
REMARK   17  A    between atoms: N_27  and  CA_28 
REMARK   18  A    between atoms: CA_28  and  C_29 
REMARK   19  A    between atoms: CA_28  and  CB_31 
REMARK       I    between atoms: C_29  and  N_34 
REMARK   20  A    between atoms: CB_31  and  OG1_32 
REMARK   21  A    between atoms: CB_31  and  CG2_33 
REMARK   22  A    between atoms: N_34  and  CA_35 
REMARK   23  A    between atoms: CA_35  and  C_36 
REMARK   24  A    between atoms: CA_35  and  CB_38 
REMARK       I    between atoms: C_36  and  N_43 
REMARK   25  A    between atoms: CB_38  and  CG_39 
REMARK   26  A    between atoms: CG_39  and  CD_40 
REMARK   27  A    between atoms: CA_44  and  C_45 
REMARK       I    between atoms: C_45  and  N_50 
REMARK   28  A    between atoms: N_50  and  CA_51 
REMARK   29  A    between atoms: CA_51  and  C_52 
REMARK   30  A    between atoms: CA_51  and  CB_54 
REMARK       I    between atoms: C_52  and  N_61 
REMARK   31  A    between atoms: CB_54  and  CG_55 
REMARK   32  A    between atoms: N_61  and  CA_62 
REMARK   33  A    between atoms: CA_62  and  C_63 
REMARK   34  A    between atoms: CA_62  and  CB_65 
REMARK       I    between atoms: C_63  and  N_72 
REMARK   35  A    between atoms: CB_65  and  CG_66 
REMARK   36  A    between atoms: N_72  and  CA_73 
REMARK   37  A    between atoms: CA_73  and  C_74 
REMARK   38  A    between atoms: CA_73  and  CB_76 
REMARK       I    between atoms: C_74  and  N_81 
REMARK   39  A    between atoms: CB_76  and  CG_77 
REMARK   40  A    between atoms: CG_77  and  CD_78 
REMARK   41  A    between atoms: CD_78  and  CE_79 
REMARK   42  A    between atoms: CE_79  and  NZ_80 
REMARK   43  A    between atoms: N_81  and  CA_82 
REMARK   44  A    between atoms: CA_82  and  C_83 
REMARK   45  A    between atoms: CA_82  and  CB_85 
REMARK       I    between atoms: C_83  and  N_90 
REMARK   46  A    between atoms: CB_85  and  CG_86 
REMARK   47  A    between atoms: CG_86  and  CD_87 
REMARK       I    between atoms: CD_87  and  NE2_89 
REMARK   48  A    between atoms: N_90  and  CA_91 
REMARK   49  A    between atoms: CA_91  and  C_92 
REMARK   50  A    between atoms: CA_91  and  CB_94 
REMARK       I    between atoms: C_92  and  N_99 
REMARK   51  A    between atoms: CB_94  and  CG_95 
REMARK   52  A    between atoms: CG_95  and  CD_96 
REMARK   53  A    between atoms: CD_96  and  CE_97 
REMARK   54  A    between atoms: CE_97  and  NZ_98 
REMARK   55  A    between atoms: N_99  and  CA_100 
REMARK   56  A    between atoms: CA_100  and  C_101 
REMARK   57  A    between atoms: CA_100  and  CB_103 
REMARK       I    between atoms: C_101  and  N_105 
REMARK   58  A    between atoms: CB_103  and  OG_104 
REMARK   59  A    between atoms: N_105  and  CA_106 
REMARK   60  A    between atoms: CA_106  and  C_107 
REMARK   61  A    between atoms: CA_106  and  CB_109 
REMARK       I    between atoms: C_107  and  N_113 
REMARK   62  A    between atoms: CB_109  and  CG_110 
REMARK   63  A    between atoms: CG_110  and  CD1_111 
REMARK   64  A    between atoms: CG_110  and  CD2_112 
REMARK   65  A    between atoms: N_113  and  CA_114 
REMARK   66  A    between atoms: CA_114  and  C_115 
REMARK   67  A    between atoms: CA_114  and  CB_117 
REMARK       I    between atoms: C_115  and  N_121 
REMARK   68  A    between atoms: CB_117  and  CG_118 
REMARK   69  A    between atoms: CG_118  and  CD1_119 
REMARK   70  A    between atoms: CG_118  and  CD2_120 
REMARK   71  A    between atoms: N_121  and  CA_122 
REMARK   72  A    between atoms: CA_122  and  C_123 
REMARK   73  A    between atoms: CA_122  and  CB_125 
REMARK   74  A    between atoms: CB_125  and  CG_126 
REMARK   75  A    between atoms: CG_126  and  CD1_127 
REMARK   76  A    between atoms: CG_126  and  CD2_128 
ROOT
ATOM      1  CA  PHE d   1       4.804  -1.458   5.475  0.00  0.00     0.093 C 
ATOM      2  H   PHE d   1       4.151  -2.254   5.832  0.00  0.00     0.088 H 
ENDROOT
BRANCH   1   3
ATOM      3  N   PHE d   1       5.030  -0.476   6.555  0.00  0.00    -0.346 N 
ATOM      4  C   PHE d   1       5.647  -0.769   7.712  0.00  0.00     0.241 C 
ATOM      5  O   PHE d   1       6.089  -1.881   7.992  0.00  0.00    -0.271 OA
ATOM      6  H   PHE d   1       4.699   0.478   6.415  0.00  0.00     0.163 HD
BRANCH   4   7
ATOM      7  CA  PHE d   1       5.804   0.393   8.692  0.00  0.00     0.093 C 
ATOM      8  H   PHE d   1       6.320   0.063   9.594  0.00  0.00     0.088 H 
BRANCH   7   9
ATOM      9  N   PHE d   1       6.615   1.444   8.048  0.00  0.00    -0.346 N 
ATOM     10  C   PRO d   1       7.799   1.857   8.530  0.00  0.00     0.241 C 
ATOM     11  O   PRO d   1       8.206   1.538   9.657  0.00  0.00    -0.271 OA
ATOM     12  H   PHE d   1       6.260   1.878   7.196  0.00  0.00     0.163 HD
BRANCH  10  13
ATOM     13  CA  PRO d   1       8.628   2.802   7.631  0.00  0.00     0.091 C 
ATOM     14  N   PRO d   1       9.760   3.406   8.365  0.00  0.00    -0.337 N 
ATOM     15  C   GLU d   1       9.620   4.530   9.140  0.00  0.00     0.243 C 
ATOM     16  CD  PRO d   1      11.024   2.656   8.120  0.00  0.00    -0.001 C 
ATOM     17  O   GLU d   1       8.590   5.206   9.099  0.00  0.00    -0.271 OA
ATOM     18  CG  PRO d   1      10.669   1.648   7.033  0.00  0.00    -0.048 C 
ATOM     19  H   PRO d   1      11.390   2.169   9.024  0.00  0.00     0.064 H 
ATOM     20  H   PRO d   1      11.836   3.316   7.814  0.00  0.00     0.064 H 
ATOM     21  CB  PRO d   1       9.336   2.062   6.474  0.00  0.00    -0.036 C 
ATOM     22  H   PRO d   1      11.430   1.636   6.252  0.00  0.00     0.035 H 
ATOM     23  H   PRO d   1      10.621   0.639   7.442  0.00  0.00     0.035 H 
ATOM     24  H   PRO d   1       9.447   2.698   5.596  0.00  0.00     0.036 H 
ATOM     25  H   PRO d   1       8.758   1.204   6.131  0.00  0.00     0.036 H 
ATOM     26  H   PRO d   1       7.895   3.529   7.280  0.00  0.00     0.087 H 
BRANCH  15  27
ATOM     27  CA  GLU d   1      10.810   4.975  10.028  0.00  0.00     0.090 C 
ATOM     28  H   GLU d   1      11.324   4.069  10.349  0.00  0.00     0.087 H 
BRANCH  27  29
ATOM     29  N   GLU d   1      11.743   5.815   9.263  0.00  0.00    -0.346 N 
ATOM     30  C   THR d   1      13.010   5.482   9.025  0.00  0.00     0.243 C 
ATOM     31  O   THR d   1      13.537   4.448   9.463  0.00  0.00    -0.271 OA
ATOM     32  H   GLU d   1      11.401   6.702   8.894  0.00  0.00     0.163 HD
BRANCH  30  33
ATOM     33  CA  THR d   1      13.823   6.480   8.216  0.00  0.00     0.113 C 
ATOM     34  H   THR d   1      13.291   7.425   8.107  0.00  0.00     0.091 H 
BRANCH  33  35
ATOM     35  N   THR d   1      15.070   6.701   8.934  0.00  0.00    -0.344 N 
ATOM     36  C   GLY d   1      15.449   7.879   9.425  0.00  0.00     0.236 C 
ATOM     37  O   GLY d   1      14.887   8.940   9.148  0.00  0.00    -0.272 OA
ATOM     38  H   THR d   1      15.692   5.904   9.069  0.00  0.00     0.163 HD
BRANCH  36  39
ATOM     39  CA  GLY d   1      16.631   7.840  10.373  0.00  0.00     0.069 C 
ATOM     40  H   GLY d   1      17.421   7.240   9.921  0.00  0.00     0.078 H 
ATOM     41  H   GLY d   1      16.967   8.861  10.553  0.00  0.00     0.078 H 
BRANCH  39  42
ATOM     42  N   GLY d   1      16.260   7.235  11.658  0.00  0.00    -0.350 N 
ATOM     43  C   THR d   1      16.251   5.899  11.868  0.00  0.00     0.243 C 
ATOM     44  O   THR d   1      16.609   5.081  11.010  0.00  0.00    -0.271 OA
ATOM     45  H   GLY d   1      15.997   7.850  12.428  0.00  0.00     0.163 HD
BRANCH  43  46
ATOM     46  CA  THR d   1      15.790   5.420  13.269  0.00  0.00     0.113 C 
ATOM     47  H   THR d   1      16.661   5.017  13.786  0.00  0.00     0.091 H 
BRANCH  46  48
ATOM     48  N   THR d   1      15.260   6.543  14.069  0.00  0.00    -0.344 N 
ATOM     49  C   SER d   1      16.029   7.329  14.843  0.00  0.00     0.243 C 
ATOM     50  O   SER d   1      17.237   7.117  15.029  0.00  0.00    -0.271 OA
ATOM     51  H   THR d   1      14.258   6.732  14.032  0.00  0.00     0.163 HD
BRANCH  49  52
ATOM     52  CA  SER d   1      15.309   8.509  15.529  0.00  0.00     0.109 C 
ATOM     53  H   SER d   1      14.479   8.798  14.884  0.00  0.00     0.090 H 
BRANCH  52  54
ATOM     54  N   SER d   1      14.745   8.111  16.834  0.00  0.00    -0.344 N 
ATOM     55  C   GLN d   1      15.476   7.665  17.883  0.00  0.00     0.249 C 
ATOM     56  O   GLN d   1      16.697   7.460  17.840  0.00  0.00    -0.271 OA
ATOM     57  H   SER d   1      13.734   8.177  16.954  0.00  0.00     0.163 HD
BRANCH  55  58
ATOM     58  CA  GLN d   1      14.702   7.405  19.187  0.00  0.00     0.176 C 
ATOM     59  H   GLN d   1      15.425   7.172  19.969  0.00  0.00     0.099 H 
BRANCH  58  60
ATOM     60  N   GLN d   1      13.942   8.617  19.585  0.00  0.00    -0.066 N 
ATOM     61  H   GLN d   1      14.583   9.405  19.674  0.00  0.00     0.275 HD
ATOM     62  H   GLN d   1      13.241   8.826  18.874  0.00  0.00     0.275 HD
ATOM     63  H   GLN d   1      13.481   8.449  20.479  0.00  0.00     0.275 HD
ENDBRANCH  58  60
BRANCH  58  64
ATOM     64  CB  GLN d   1      13.750   6.185  19.043  0.00  0.00    -0.022 C 
ATOM     65  H   GLN d   1      14.364   5.329  18.764  0.00  0.00     0.037 H 
ATOM     66  H   GLN d   1      12.995   6.451  18.304  0.00  0.00     0.037 H 
BRANCH  64  67
ATOM     67  CG  GLN d   1      13.005   5.809  20.341  0.00  0.00     0.011 C 
ATOM     68  H   GLN d   1      12.438   6.687  20.649  0.00  0.00     0.047 H 
ATOM     69  H   GLN d   1      13.758   5.483  21.058  0.00  0.00     0.047 H 
BRANCH  67  70
ATOM     70  CD  GLN d   1      12.005   4.660  20.188  0.00  0.00     0.215 C 
ATOM     71  OE1 GLN d   1      11.434   4.446  19.115  0.00  0.00    -0.274 OA
ATOM     72  NE2 GLN d   1      11.769   3.925  21.267  0.00  0.00    -0.370 N 
ATOM     73  H   GLN d   1      11.099   3.157  21.224  0.00  0.00     0.159 HD
ATOM     74  H   GLN d   1      12.258   4.128  22.139  0.00  0.00     0.159 HD
ENDBRANCH  67  70
ENDBRANCH  64  67
ENDBRANCH  58  64
ENDBRANCH  55  58
ENDBRANCH  52  54
BRANCH  52  75
ATOM     75  CB  SER d   1      16.237   9.749  15.668  0.00  0.00     0.044 C 
ATOM     76  H   SER d   1      17.096   9.465  16.276  0.00  0.00     0.077 H 
ATOM     77  H   SER d   1      15.662  10.555  16.123  0.00  0.00     0.077 H 
BRANCH  75  78
ATOM     78  OG  SER d   1      16.714  10.200  14.410  0.00  0.00    -0.398 OA
ATOM     79  H   SER d   1      17.213   9.497  13.988  0.00  0.00     0.209 HD
ENDBRANCH  75  78
ENDBRANCH  52  75
ENDBRANCH  49  52
ENDBRANCH  46  48
BRANCH  46  80
ATOM     80  CB  THR d   1      14.711   4.282  13.140  0.00  0.00     0.060 C 
ATOM     81  H   THR d   1      15.117   3.523  12.471  0.00  0.00     0.086 H 
BRANCH  80  82
ATOM     82  OG1 THR d   1      13.489   4.811  12.591  0.00  0.00    -0.393 OA
ATOM     83  H   THR d   1      13.663   5.178  11.721  0.00  0.00     0.210 HD
ENDBRANCH  80  82
BRANCH  80  84
ATOM     84  CG2 THR d   1      14.415   3.621  14.505  0.00  0.00    -0.050 C 
ATOM     85  H   THR d   1      15.331   3.184  14.902  0.00  0.00     0.031 H 
ATOM     86  H   THR d   1      14.040   4.374  15.198  0.00  0.00     0.031 H 
ATOM     87  H   THR d   1      13.665   2.841  14.374  0.00  0.00     0.031 H 
ENDBRANCH  80  84
ENDBRANCH  46  80
ENDBRANCH  43  46
ENDBRANCH  39  42
ENDBRANCH  36  39
ENDBRANCH  33  35
BRANCH  33  88
ATOM     88  CB  THR d   1      14.063   5.948   6.767  0.00  0.00     0.060 C 
ATOM     89  H   THR d   1      13.104   5.595   6.387  0.00  0.00     0.086 H 
BRANCH  88  90
ATOM     90  OG1 THR d   1      15.009   4.876   6.792  0.00  0.00    -0.393 OA
ATOM     91  H   THR d   1      14.670   4.164   7.339  0.00  0.00     0.210 HD
ENDBRANCH  88  90
BRANCH  88  92
ATOM     92  CG2 THR d   1      14.571   7.049   5.828  0.00  0.00    -0.050 C 
ATOM     93  H   THR d   1      13.835   7.851   5.779  0.00  0.00     0.031 H 
ATOM     94  H   THR d   1      15.514   7.442   6.208  0.00  0.00     0.031 H 
ATOM     95  H   THR d   1      14.724   6.633   4.832  0.00  0.00     0.031 H 
ENDBRANCH  88  92
ENDBRANCH  33  88
ENDBRANCH  30  33
ENDBRANCH  27  29
BRANCH  27  96
ATOM     96  CB  GLU d   1      10.337   5.731  11.314  0.00  0.00    -0.029 C 
ATOM     97  H   GLU d   1      11.206   5.813  11.966  0.00  0.00     0.037 H 
ATOM     98  H   GLU d   1       9.502   5.162  11.723  0.00  0.00     0.037 H 
BRANCH  96  99
ATOM     99  CG  GLU d   1       9.821   7.168  11.080  0.00  0.00     0.018 C 
ATOM    100  H   GLU d   1       9.010   7.115  10.353  0.00  0.00     0.049 H 
ATOM    101  H   GLU d   1      10.663   7.771  10.738  0.00  0.00     0.049 H 
BRANCH  99 102
ATOM    102  CD  GLU d   1       9.265   7.822  12.351  0.00  0.00     0.172 C 
ATOM    103  OE1 GLU d   1      10.066   8.335  13.161  0.00  0.00    -0.648 OA
ATOM    104  OE2 GLU d   1       8.030   7.825  12.550  0.00  0.00    -0.648 OA
ENDBRANCH  99 102
ENDBRANCH  96  99
ENDBRANCH  27  96
ENDBRANCH  15  27
ENDBRANCH  10  13
ENDBRANCH   7   9
BRANCH   7 105
ATOM    105  CB  PHE d   1       4.415   0.912   9.148  0.00  0.00    -0.014 C 
ATOM    106  H   PHE d   1       3.873   1.235   8.259  0.00  0.00     0.043 H 
ATOM    107  H   PHE d   1       4.580   1.719   9.862  0.00  0.00     0.043 H 
BRANCH 105 108
ATOM    108  CG  PHE d   1       3.573  -0.165   9.845  0.00  0.00    -0.056 A 
ATOM    109  CD1 PHE d   1       3.900  -0.596  11.126  0.00  0.00    -0.077 A 
ATOM    110  CE1 PHE d   1       3.160  -1.579  11.757  0.00  0.00    -0.082 A 
ATOM    111  H   PHE d   1       4.752  -0.152  11.640  0.00  0.00     0.084 H 
ATOM    112  CZ  PHE d   1       2.083  -2.161  11.115  0.00  0.00    -0.083 A 
ATOM    113  H   PHE d   1       3.427  -1.896  12.765  0.00  0.00     0.083 H 
ATOM    114  CE2 PHE d   1       1.741  -1.755   9.843  0.00  0.00    -0.082 A 
ATOM    115  H   PHE d   1       1.505  -2.939  11.614  0.00  0.00     0.083 H 
ATOM    116  CD2 PHE d   1       2.479  -0.768   9.211  0.00  0.00    -0.077 A 
ATOM    117  H   PHE d   1       0.891  -2.210   9.335  0.00  0.00     0.083 H 
ATOM    118  H   PHE d   1       2.204  -0.455   8.204  0.00  0.00     0.084 H 
ENDBRANCH 105 108
ENDBRANCH   7 105
ENDBRANCH   4   7
ENDBRANCH   1   3
BRANCH   1 119
ATOM    119  C   PHE d   1       6.148  -2.058   5.042  0.00  0.00     0.241 C 
ATOM    120  O   PHE d   1       6.364  -3.266   5.142  0.00  0.00    -0.271 OA
ATOM    121  N   LYS d   1       7.037  -1.159   4.583  0.00  0.00    -0.346 N 
ATOM    122  H   LYS d   1       6.766  -0.176   4.591  0.00  0.00     0.163 HD
BRANCH 121 123
ATOM    123  CA  LYS d   1       8.374  -1.496   4.070  0.00  0.00     0.089 C 
ATOM    124  H   LYS d   1       8.278  -2.204   3.247  0.00  0.00     0.087 H 
BRANCH 123 125
ATOM    125  C   LYS d   1       9.226  -2.172   5.160  0.00  0.00     0.241 C 
ATOM    126  O   LYS d   1       9.967  -3.131   4.877  0.00  0.00    -0.271 OA
ATOM    127  N   GLN d   1       9.080  -1.673   6.407  0.00  0.00    -0.346 N 
ATOM    128  H   GLN d   1       8.449  -0.883   6.539  0.00  0.00     0.163 HD
BRANCH 127 129
ATOM    129  CA  GLN d   1       9.781  -2.206   7.585  0.00  0.00     0.090 C 
ATOM    130  H   GLN d   1      10.857  -2.091   7.455  0.00  0.00     0.087 H 
BRANCH 129 131
ATOM    131  C   GLN d   1       9.472  -3.700   7.735  0.00  0.00     0.241 C 
ATOM    132  O   GLN d   1      10.382  -4.517   7.729  0.00  0.00    -0.271 OA
ATOM    133  N   LYS d   1       8.171  -4.036   7.784  0.00  0.00    -0.346 N 
ATOM    134  H   LYS d   1       7.470  -3.300   7.697  0.00  0.00     0.163 HD
BRANCH 133 135
ATOM    135  CA  LYS d   1       7.718  -5.433   7.960  0.00  0.00     0.089 C 
ATOM    136  H   LYS d   1       8.229  -5.845   8.831  0.00  0.00     0.087 H 
BRANCH 135 137
ATOM    137  C   LYS d   1       8.075  -6.266   6.713  0.00  0.00     0.241 C 
ATOM    138  O   LYS d   1       8.476  -7.431   6.821  0.00  0.00    -0.271 OA
ATOM    139  N   SER d   1       7.979  -5.609   5.537  0.00  0.00    -0.344 N 
ATOM    140  H   SER d   1       7.713  -4.625   5.562  0.00  0.00     0.163 HD
BRANCH 139 141
ATOM    141  CA  SER d   1       8.233  -6.221   4.219  0.00  0.00     0.109 C 
ATOM    142  H   SER d   1       7.694  -7.167   4.168  0.00  0.00     0.090 H 
BRANCH 141 143
ATOM    143  C   SER d   1       9.740  -6.524   4.027  0.00  0.00     0.243 C 
ATOM    144  O   SER d   1      10.121  -7.192   3.057  0.00  0.00    -0.271 OA
ATOM    145  N   LEU d   1      10.594  -5.994   4.927  0.00  0.00    -0.346 N 
ATOM    146  H   LEU d   1      10.229  -5.327   5.607  0.00  0.00     0.163 HD
BRANCH 145 147
ATOM    147  CA  LEU d   1      12.030  -6.330   4.977  0.00  0.00     0.089 C 
ATOM    148  H   LEU d   1      12.274  -6.973   4.131  0.00  0.00     0.087 H 
BRANCH 147 149
ATOM    149  C   LEU d   1      12.386  -7.132   6.266  0.00  0.00     0.241 C 
ATOM    150  O   LEU d   1      13.393  -7.848   6.293  0.00  0.00    -0.271 OA
ATOM    151  N   LEU d   1      11.545  -7.027   7.320  0.00  0.00    -0.346 N 
ATOM    152  H   LEU d   1      10.665  -6.529   7.188  0.00  0.00     0.163 HD
BRANCH 151 153
ATOM    153  CA  LEU d   1      11.835  -7.599   8.660  0.00  0.00     0.089 C 
ATOM    154  H   LEU d   1      12.908  -7.528   8.840  0.00  0.00     0.087 H 
BRANCH 153 155
ATOM    155  C   LEU d   1      11.486  -9.096   8.736  0.00  0.00     0.241 C 
ATOM    156  O   LEU d   1      12.160  -9.851   9.451  0.00  0.00    -0.271 OA
ATOM    157  N   LEU d   1      10.433  -9.500   7.997  0.00  0.00    -0.345 N 
ATOM    158  H   LEU d   1      10.007  -8.827   7.360  0.00  0.00     0.163 HD
BRANCH 157 159
ATOM    159  CA  LEU d   1       9.854 -10.874   8.057  0.00  0.00     0.096 C 
ATOM    160  H   LEU d   1       9.432 -10.967   9.057  0.00  0.00     0.089 H 
BRANCH 159 161
ATOM    161  C   LEU d   1      10.931 -12.001   7.894  0.00  0.00     0.196 C 
ATOM    162  O   LEU d   1      11.842 -11.870   7.038  0.00  0.00    -0.646 OA
ATOM    163  OXT LEU d   1      10.850 -13.020   8.614  0.00  0.00    -0.646 OA
ENDBRANCH 159 161
BRANCH 159 164
ATOM    164  CB  LEU d   1       8.713 -11.070   7.011  0.00  0.00    -0.034 C 
ATOM    165  H   LEU d   1       8.113 -10.162   7.058  0.00  0.00     0.037 H 
ATOM    166  H   LEU d   1       8.227 -12.008   7.279  0.00  0.00     0.037 H 
BRANCH 164 167
ATOM    167  CG  LEU d   1       9.129 -11.224   5.507  0.00  0.00    -0.059 C 
ATOM    168  H   LEU d   1       9.892 -12.002   5.470  0.00  0.00     0.038 H 
BRANCH 167 169
ATOM    169  CD1 LEU d   1       7.946 -11.673   4.644  0.00  0.00    -0.073 C 
ATOM    170  H   LEU d   1       7.580 -12.635   5.003  0.00  0.00     0.028 H 
ATOM    171  H   LEU d   1       7.149 -10.933   4.709  0.00  0.00     0.028 H 
ATOM    172  H   LEU d   1       8.270 -11.770   3.608  0.00  0.00     0.028 H 
ENDBRANCH 167 169
BRANCH 167 173
ATOM    173  CD2 LEU d   1       9.758  -9.937   4.945  0.00  0.00    -0.073 C 
ATOM    174  H   LEU d   1       9.039  -9.121   5.017  0.00  0.00     0.028 H 
ATOM    175  H   LEU d   1      10.650  -9.689   5.521  0.00  0.00     0.028 H 
ATOM    176  H   LEU d   1      10.030 -10.093   3.901  0.00  0.00     0.028 H 
ENDBRANCH 167 173
ENDBRANCH 164 167
ENDBRANCH 159 164
ENDBRANCH 157 159
ENDBRANCH 153 155
BRANCH 153 177
ATOM    177  CB  LEU d   1      11.081  -6.767   9.764  0.00  0.00    -0.035 C 
ATOM    178  H   LEU d   1      10.041  -7.088   9.698  0.00  0.00     0.037 H 
ATOM    179  H   LEU d   1      11.325  -5.727   9.549  0.00  0.00     0.037 H 
BRANCH 177 180
ATOM    180  CG  LEU d   1      11.477  -6.975  11.276  0.00  0.00    -0.059 C 
ATOM    181  H   LEU d   1      11.077  -6.122  11.824  0.00  0.00     0.038 H 
BRANCH 180 182
ATOM    182  CD1 LEU d   1      10.826  -8.226  11.914  0.00  0.00    -0.073 C 
ATOM    183  H   LEU d   1       9.741  -8.133  11.868  0.00  0.00     0.028 H 
ATOM    184  H   LEU d   1      11.139  -9.116  11.367  0.00  0.00     0.028 H 
ATOM    185  H   LEU d   1      11.142  -8.308  12.954  0.00  0.00     0.028 H 
ENDBRANCH 180 182
BRANCH 180 186
ATOM    186  CD2 LEU d   1      13.011  -6.993  11.438  0.00  0.00    -0.073 C 
ATOM    187  H   LEU d   1      13.428  -7.809  10.848  0.00  0.00     0.028 H 
ATOM    188  H   LEU d   1      13.423  -6.045  11.092  0.00  0.00     0.028 H 
ATOM    189  H   LEU d   1      13.262  -7.138  12.489  0.00  0.00     0.028 H 
ENDBRANCH 180 186
ENDBRANCH 177 180
ENDBRANCH 153 177
ENDBRANCH 151 153
ENDBRANCH 147 149
BRANCH 147 190
ATOM    190  CB  LEU d   1      12.860  -5.016   4.884  0.00  0.00    -0.035 C 
ATOM    191  H   LEU d   1      12.746  -4.517   5.846  0.00  0.00     0.037 H 
ATOM    192  H   LEU d   1      12.483  -4.481   4.013  0.00  0.00     0.037 H 
BRANCH 190 193
ATOM    193  CG  LEU d   1      14.400  -5.180   4.660  0.00  0.00    -0.059 C 
ATOM    194  H   LEU d   1      14.780  -5.804   5.469  0.00  0.00     0.038 H 
BRANCH 193 195
ATOM    195  CD1 LEU d   1      14.707  -5.905   3.330  0.00  0.00    -0.073 C 
ATOM    196  H   LEU d   1      14.253  -6.896   3.345  0.00  0.00     0.028 H 
ATOM    197  H   LEU d   1      14.297  -5.329   2.501  0.00  0.00     0.028 H 
ATOM    198  H   LEU d   1      15.786  -6.000   3.210  0.00  0.00     0.028 H 
ENDBRANCH 193 195
BRANCH 193 199
ATOM    199  CD2 LEU d   1      15.127  -3.818   4.732  0.00  0.00    -0.073 C 
ATOM    200  H   LEU d   1      14.733  -3.156   3.961  0.00  0.00     0.028 H 
ATOM    201  H   LEU d   1      14.964  -3.372   5.713  0.00  0.00     0.028 H 
ATOM    202  H   LEU d   1      16.195  -3.969   4.572  0.00  0.00     0.028 H 
ENDBRANCH 193 199
ENDBRANCH 190 193
ENDBRANCH 147 190
ENDBRANCH 145 147
ENDBRANCH 141 143
BRANCH 141 203
ATOM    203  CB  SER d   1       7.717  -5.285   3.092  0.00  0.00     0.044 C 
ATOM    204  H   SER d   1       8.402  -4.440   3.017  0.00  0.00     0.077 H 
ATOM    205  H   SER d   1       6.703  -4.979   3.347  0.00  0.00     0.077 H 
BRANCH 203 206
ATOM    206  OG  SER d   1       7.675  -5.930   1.826  0.00  0.00    -0.398 OA
ATOM    207  H   SER d   1       8.558  -6.222   1.587  0.00  0.00     0.209 HD
ENDBRANCH 203 206
ENDBRANCH 141 203
ENDBRANCH 139 141
ENDBRANCH 135 137
BRANCH 135 208
ATOM    208  CB  LYS d   1       6.192  -5.501   8.217  0.00  0.00    -0.038 C 
ATOM    209  H   LYS d   1       5.971  -6.536   8.476  0.00  0.00     0.036 H 
ATOM    210  H   LYS d   1       5.712  -5.123   7.314  0.00  0.00     0.036 H 
BRANCH 208 211
ATOM    211  CG  LYS d   1       5.665  -4.639   9.383  0.00  0.00    -0.061 C 
ATOM    212  H   LYS d   1       4.604  -4.860   9.500  0.00  0.00     0.033 H 
ATOM    213  H   LYS d   1       5.869  -3.597   9.137  0.00  0.00     0.033 H 
BRANCH 211 214
ATOM    214  CD  LYS d   1       6.351  -4.939  10.731  0.00  0.00    -0.043 C 
ATOM    215  H   LYS d   1       7.426  -4.817  10.597  0.00  0.00     0.035 H 
ATOM    216  H   LYS d   1       6.081  -5.952  11.028  0.00  0.00     0.035 H 
BRANCH 214 217
ATOM    217  CE  LYS d   1       5.900  -3.982  11.845  0.00  0.00     0.080 C 
ATOM    218  H   LYS d   1       4.838  -4.145  12.030  0.00  0.00     0.075 H 
ATOM    219  H   LYS d   1       6.099  -2.960  11.523  0.00  0.00     0.075 H 
BRANCH 217 220
ATOM    220  NZ  LYS d   1       6.635  -4.226  13.101  0.00  0.00    -0.079 N 
ATOM    221  H   LYS d   1       6.310  -3.575  13.816  0.00  0.00     0.274 HD
ATOM    222  H   LYS d   1       6.468  -5.183  13.411  0.00  0.00     0.274 HD
ATOM    223  H   LYS d   1       7.633  -4.088  12.942  0.00  0.00     0.274 HD
ENDBRANCH 217 220
ENDBRANCH 214 217
ENDBRANCH 211 214
ENDBRANCH 208 211
ENDBRANCH 135 208
ENDBRANCH 133 135
ENDBRANCH 129 131
BRANCH 129 224
ATOM    224  CB  GLN d   1       9.365  -1.410   8.858  0.00  0.00    -0.030 C 
ATOM    225  H   GLN d   1       8.430  -1.852   9.202  0.00  0.00     0.037 H 
ATOM    226  H   GLN d   1       9.321  -0.362   8.561  0.00  0.00     0.037 H 
BRANCH 224 227
ATOM    227  CG  GLN d   1      10.343  -1.479  10.058  0.00  0.00     0.011 C 
ATOM    228  H   GLN d   1      10.040  -0.693  10.750  0.00  0.00     0.047 H 
ATOM    229  H   GLN d   1      11.347  -1.381   9.646  0.00  0.00     0.047 H 
BRANCH 227 230
ATOM    230  CD  GLN d   1      10.324  -2.795  10.854  0.00  0.00     0.215 C 
ATOM    231  OE1 GLN d   1       9.294  -3.460  10.959  0.00  0.00    -0.274 OA
ATOM    232  NE2 GLN d   1      11.460  -3.167  11.428  0.00  0.00    -0.370 N 
ATOM    233  H   GLN d   1      11.497  -4.027  11.976  0.00  0.00     0.159 HD
ATOM    234  H   GLN d   1      12.297  -2.593  11.322  0.00  0.00     0.159 HD
ENDBRANCH 227 230
ENDBRANCH 224 227
ENDBRANCH 129 224
ENDBRANCH 127 129
ENDBRANCH 123 125
BRANCH 123 235
ATOM    235  CB  LYS d   1       9.057  -0.201   3.556  0.00  0.00    -0.038 C 
ATOM    236  H   LYS d   1       9.095   0.486   4.402  0.00  0.00     0.036 H 
ATOM    237  H   LYS d   1       8.474   0.138   2.700  0.00  0.00     0.036 H 
BRANCH 235 238
ATOM    238  CG  LYS d   1      10.511  -0.366   3.059  0.00  0.00    -0.061 C 
ATOM    239  H   LYS d   1      10.489  -0.964   2.148  0.00  0.00     0.033 H 
ATOM    240  H   LYS d   1      11.086  -0.838   3.855  0.00  0.00     0.033 H 
BRANCH 238 241
ATOM    241  CD  LYS d   1      11.181   0.987   2.725  0.00  0.00    -0.043 C 
ATOM    242  H   LYS d   1      11.137   1.612   3.617  0.00  0.00     0.035 H 
ATOM    243  H   LYS d   1      10.650   1.425   1.879  0.00  0.00     0.035 H 
BRANCH 241 244
ATOM    244  CE  LYS d   1      12.658   0.833   2.328  0.00  0.00     0.080 C 
ATOM    245  H   LYS d   1      13.167   0.300   3.131  0.00  0.00     0.075 H 
ATOM    246  H   LYS d   1      13.066   1.830   2.161  0.00  0.00     0.075 H 
BRANCH 244 247
ATOM    247  NZ  LYS d   1      12.837   0.049   1.074  0.00  0.00    -0.079 N 
ATOM    248  H   LYS d   1      13.831  -0.022   0.858  0.00  0.00     0.274 HD
ATOM    249  H   LYS d   1      12.447  -0.885   1.200  0.00  0.00     0.274 HD
ATOM    250  H   LYS d   1      12.354   0.519   0.308  0.00  0.00     0.274 HD
ENDBRANCH 244 247
ENDBRANCH 241 244
ENDBRANCH 238 241
ENDBRANCH 235 238
ENDBRANCH 123 235
ENDBRANCH 121 123
ENDBRANCH   1 119
BRANCH   1 251
ATOM    251  CB  PHE d   1       4.145  -0.746   4.273  0.00  0.00    -0.014 C 
ATOM    252  H   PHE d   1       4.941  -0.184   3.785  0.00  0.00     0.043 H 
ATOM    253  H   PHE d   1       3.317  -0.169   4.684  0.00  0.00     0.043 H 
BRANCH 251 254
ATOM    254  CG  PHE d   1       3.537  -1.640   3.189  0.00  0.00    -0.056 A 
ATOM    255  CD1 PHE d   1       4.286  -2.570   2.471  0.00  0.00    -0.077 A 
ATOM    256  CE1 PHE d   1       3.693  -3.348   1.497  0.00  0.00    -0.082 A 
ATOM    257  H   PHE d   1       5.350  -2.684   2.680  0.00  0.00     0.084 H 
ATOM    258  CZ  PHE d   1       2.358  -3.196   1.226  0.00  0.00    -0.083 A 
ATOM    259  H   PHE d   1       4.284  -4.080   0.946  0.00  0.00     0.083 H 
ATOM    260  CE2 PHE d   1       1.617  -2.291   1.921  0.00  0.00    -0.082 A 
ATOM    261  H   PHE d   1       1.889  -3.802   0.451  0.00  0.00     0.083 H 
ATOM    262  CD2 PHE d   1       2.205  -1.525   2.885  0.00  0.00    -0.077 A 
ATOM    263  H   PHE d   1       0.554  -2.178   1.708  0.00  0.00     0.083 H 
ATOM    264  H   PHE d   1       1.598  -0.801   3.429  0.00  0.00     0.084 H 
ENDBRANCH 251 254
ENDBRANCH   1 251
TORSDOF 76
