REMARK WARNING: 32 MAX_TORS EXCEEDED!!!
REMARK  72 active torsions:
REMARK  status: ('A' for Active; 'I' for Inactive)
REMARK    1  A    between atoms: CA_2  and  N_1 
REMARK    2  A    between atoms: C_3  and  CA_2 
REMARK    3  A    between atoms: CA_2  and  CB_5 
REMARK       I    between atoms: N_12  and  C_3 
REMARK    4  A    between atoms: CB_5  and  CG_6 
REMARK    5  A    between atoms: CG_6  and  CD_7 
REMARK    6  A    between atoms: CD_7  and  NE_8 
REMARK       I    between atoms: NE_8  and  CZ_9 
REMARK       I    between atoms: CZ_9  and  NH1_10 
REMARK    7  A    between atoms: CA_13  and  N_12 
REMARK    8  A    between atoms: C_14  and  CA_13 
REMARK    9  A    between atoms: CA_13  and  CB_16 
REMARK       I    between atoms: N_19  and  C_14 
REMARK   10  A    between atoms: CB_16  and  OG1_17 
REMARK   11  A    between atoms: CB_16  and  CG2_18 
REMARK   12  A    between atoms: CA_20  and  N_19 
REMARK   13  A    between atoms: C_21  and  CA_20 
REMARK   14  A    between atoms: CA_20  and  CB_23 
REMARK       I    between atoms: N_31  and  C_21 
REMARK   15  A    between atoms: CB_23  and  CG_24 
REMARK   16  A    between atoms: CZ_29  and  OH_30 
REMARK   17  A    between atoms: CA_32  and  N_31 
REMARK   18  A    between atoms: C_33  and  CA_32 
REMARK   19  A    between atoms: CA_32  and  CB_35 
REMARK       I    between atoms: N_40  and  C_33 
REMARK   20  A    between atoms: CB_35  and  CG_36 
REMARK   21  A    between atoms: CG_36  and  CD_37 
REMARK   22  A    between atoms: CA_41  and  N_40 
REMARK   23  A    between atoms: C_42  and  CA_41 
REMARK   24  A    between atoms: CA_41  and  CB_44 
REMARK       I    between atoms: N_47  and  C_42 
REMARK   25  A    between atoms: CB_44  and  OG1_45 
REMARK   26  A    between atoms: CB_44  and  CG2_46 
REMARK   27  A    between atoms: CA_48  and  N_47 
REMARK   28  A    between atoms: C_49  and  CA_48 
REMARK   29  A    between atoms: CA_48  and  CB_51 
REMARK       I    between atoms: N_67  and  C_49 
REMARK   30  A    between atoms: CB_51  and  CG_52 
REMARK   31  A    between atoms: CH_59  and  CH3_60 
REMARK       I    between atoms: NZ_61  and  CH_59 
REMARK   32  A    between atoms: CE_62  and  NZ_61 
REMARK   33  A    between atoms: CD_63  and  CE_62 
REMARK   34  A    between atoms: CG_64  and  CD_63 
REMARK   35  A    between atoms: CB_65  and  CG_64 
REMARK   36  A    between atoms: CA_66  and  CB_65 
REMARK   37  A    between atoms: CA_66  and  N_67 
REMARK   38  A    between atoms: CA_66  and  C_68 
REMARK       I    between atoms: C_68  and  N_70 
REMARK   39  A    between atoms: N_70  and  CA_71 
REMARK   40  A    between atoms: CA_71  and  C_72 
REMARK   41  A    between atoms: CA_71  and  CB_74 
REMARK       I    between atoms: C_72  and  N_76 
REMARK   42  A    between atoms: CB_74  and  OG_75 
REMARK   43  A    between atoms: N_76  and  CA_77 
REMARK   44  A    between atoms: CA_77  and  C_78 
REMARK   45  A    between atoms: CA_77  and  CB_80 
REMARK       I    between atoms: C_78  and  N_84 
REMARK   46  A    between atoms: CB_80  and  CG1_81 
REMARK   47  A    between atoms: CB_80  and  CG2_82 
REMARK   48  A    between atoms: CG1_81  and  CD1_83 
REMARK   49  A    between atoms: N_84  and  CA_85 
REMARK   50  A    between atoms: CA_85  and  C_86 
REMARK   51  A    between atoms: CA_85  and  CB_88 
REMARK       I    between atoms: C_86  and  N_92 
REMARK   52  A    between atoms: CB_88  and  CG_89 
REMARK   53  A    between atoms: CG_89  and  SD_90 
REMARK   54  A    between atoms: SD_90  and  CE_91 
REMARK   55  A    between atoms: N_92  and  CA_93 
REMARK   56  A    between atoms: CA_93  and  C_94 
REMARK   57  A    between atoms: CA_93  and  CB_96 
REMARK       I    between atoms: C_94  and  N_101 
REMARK   58  A    between atoms: CB_96  and  CG_97 
REMARK   59  A    between atoms: CG_97  and  CD_98 
REMARK   60  A    between atoms: CD_98  and  CE_99 
REMARK   61  A    between atoms: CE_99  and  NZ_100 
REMARK   62  A    between atoms: N_101  and  CA_102 
REMARK   63  A    between atoms: CA_102  and  C_103 
REMARK   64  A    between atoms: CA_102  and  CB_105 
REMARK       I    between atoms: C_103  and  N_110 
REMARK   65  A    between atoms: CB_105  and  CG_106 
REMARK   66  A    between atoms: CG_106  and  CD_107 
REMARK   67  A    between atoms: CD_107  and  CE_108 
REMARK   68  A    between atoms: CE_108  and  NZ_109 
REMARK   69  A    between atoms: N_110  and  CA_111 
REMARK   70  A    between atoms: CA_111  and  C_112 
REMARK   71  A    between atoms: CA_111  and  CB_114 
REMARK   72  A    between atoms: CB_114  and  OG_115 
ROOT
ATOM      1  CA  ALY d   1      15.523  -2.139  -0.433  0.00  0.00     0.089 C 
ATOM      2  H66 ALY d   1      15.718  -2.857  -1.244  0.00  0.00     0.087 H 
ENDROOT
BRANCH   1   3
ATOM      3  CB  ALY d   1      14.034  -1.748  -0.489  0.00  0.00    -0.038 C 
ATOM      4  H64 ALY d   1      13.763  -1.283   0.470  0.00  0.00     0.036 H 
ATOM      5  H65 ALY d   1      13.899  -1.019  -1.302  0.00  0.00     0.036 H 
BRANCH   3   6
ATOM      6  CG  ALY d   1      13.091  -2.922  -0.736  0.00  0.00    -0.061 C 
ATOM      7  H62 ALY d   1      12.532  -2.735  -1.665  0.00  0.00     0.033 H 
ATOM      8  H63 ALY d   1      13.690  -3.838  -0.847  0.00  0.00     0.033 H 
BRANCH   6   9
ATOM      9  CD  ALY d   1      12.103  -3.123   0.393  0.00  0.00    -0.050 C 
ATOM     10  H60 ALY d   1      12.399  -4.008   0.975  0.00  0.00     0.035 H 
ATOM     11  H61 ALY d   1      12.117  -2.236   1.043  0.00  0.00     0.035 H 
BRANCH   9  12
ATOM     12  CE  ALY d   1      10.687  -3.328  -0.137  0.00  0.00    -0.005 C 
ATOM     13  H58 ALY d   1      10.717  -4.060  -0.957  0.00  0.00     0.064 H 
ATOM     14  H59 ALY d   1      10.056  -3.715   0.677  0.00  0.00     0.064 H 
BRANCH  12  15
ATOM     15  NZ  ALY d   1      10.103  -2.082  -0.637  0.00  0.00    -0.361 N 
ATOM     16  CH  ALY d   1       9.862  -1.055   0.150  0.00  0.00     0.213 C 
ATOM     17  OH  ALY d   1      10.125  -1.097   1.352  0.00  0.00    -0.274 OA
ATOM     18  H57 ALY d   1       9.880  -2.009  -1.609  0.00  0.00     0.162 HD
BRANCH  16  19
ATOM     19  CH3 ALY d   1       9.250   0.212  -0.440  0.00  0.00    -0.003 C 
ATOM     20  H54 ALY d   1       9.083   0.071  -1.518  0.00  0.00     0.040 H 
ATOM     21  H55 ALY d   1       9.935   1.058  -0.282  0.00  0.00     0.040 H 
ATOM     22  H56 ALY d   1       8.290   0.420   0.055  0.00  0.00     0.040 H 
ENDBRANCH  16  19
ENDBRANCH  12  15
ENDBRANCH   9  12
ENDBRANCH   6   9
ENDBRANCH   3   6
ENDBRANCH   1   3
BRANCH   1  23
ATOM     23  N   ALY d   1      15.899  -2.765   0.831  0.00  0.00    -0.346 N 
ATOM     24  C   PHE d   1      17.110  -3.305   0.971  0.00  0.00     0.241 C 
ATOM     25  O   PHE d   1      17.893  -3.411   0.028  0.00  0.00    -0.271 OA
ATOM     26  H67 ALY d   1      15.249  -2.789   1.591  0.00  0.00     0.163 HD
BRANCH  24  27
ATOM     27  CA  PHE d   1      17.516  -3.842   2.338  0.00  0.00     0.093 C 
ATOM     28  H46 PHE d   1      16.720  -4.499   2.718  0.00  0.00     0.088 H 
BRANCH  27  29
ATOM     29  N   PHE d   1      18.729  -4.614   2.161  0.00  0.00    -0.346 N 
ATOM     30  C   THR d   1      18.952  -5.763   2.777  0.00  0.00     0.243 C 
ATOM     31  O   THR d   1      18.277  -6.171   3.727  0.00  0.00    -0.271 OA
ATOM     32  H45 PHE d   1      19.432  -4.261   1.543  0.00  0.00     0.163 HD
BRANCH  30  33
ATOM     33  CA  THR d   1      20.136  -6.566   2.243  0.00  0.00     0.113 C 
ATOM     34  H39 THR d   1      20.961  -5.874   2.019  0.00  0.00     0.091 H 
BRANCH  33  35
ATOM     35  N   THR d   1      20.607  -7.541   3.207  0.00  0.00    -0.344 N 
ATOM     36  C   GLU d   1      21.630  -7.293   4.008  0.00  0.00     0.241 C 
ATOM     37  O   GLU d   1      22.178  -6.190   4.081  0.00  0.00    -0.271 OA
ATOM     38  H38 THR d   1      20.145  -8.426   3.268  0.00  0.00     0.163 HD
BRANCH  36  39
ATOM     39  CA  GLU d   1      22.086  -8.461   4.874  0.00  0.00     0.090 C 
ATOM     40  H33 GLU d   1      22.460  -8.071   5.832  0.00  0.00     0.087 H 
BRANCH  39  41
ATOM     41  N   GLU d   1      20.975  -9.362   5.125  0.00  0.00    -0.346 N 
ATOM     42  C   TYR d   1      20.015  -9.092   5.992  0.00  0.00     0.241 C 
ATOM     43  O   TYR d   1      19.992  -8.077   6.691  0.00  0.00    -0.271 OA
ATOM     44  H32 GLU d   1      20.935 -10.224   4.620  0.00  0.00     0.163 HD
BRANCH  42  45
ATOM     45  CA  TYR d   1      18.927 -10.152   6.088  0.00  0.00     0.093 C 
ATOM     46  H24 TYR d   1      18.706 -10.504   5.069  0.00  0.00     0.088 H 
BRANCH  45  47
ATOM     47  N   TYR d   1      19.379 -11.290   6.874  0.00  0.00    -0.346 N 
ATOM     48  C   THR d   1      20.161 -12.221   6.354  0.00  0.00     0.243 C 
ATOM     49  O   THR d   1      20.613 -12.151   5.208  0.00  0.00    -0.271 OA
ATOM     50  H23 TYR d   1      19.092 -11.370   7.829  0.00  0.00     0.163 HD
BRANCH  48  51
ATOM     51  CA  THR d   1      20.475 -13.419   7.240  0.00  0.00     0.113 C 
ATOM     52  H17 THR d   1      19.718 -13.480   8.035  0.00  0.00     0.091 H 
BRANCH  51  53
ATOM     53  N   THR d   1      20.417 -14.636   6.455  0.00  0.00    -0.344 N 
ATOM     54  C   ARG d   1      19.259 -15.164   6.087  0.00  0.00     0.249 C 
ATOM     55  O   ARG d   1      18.174 -14.741   6.490  0.00  0.00    -0.271 OA
ATOM     56  H16 THR d   1      21.268 -15.086   6.186  0.00  0.00     0.163 HD
BRANCH  54  57
ATOM     57  CA  ARG d   1      19.324 -16.348   5.132  0.00  0.00     0.176 C 
ATOM     58  H4  ARG d   1      19.788 -17.203   5.646  0.00  0.00     0.099 H 
BRANCH  57  59
ATOM     59  N   ARG d   1      17.955 -16.727   4.712  0.00  0.00    -0.067 N 
ATOM     60  H1  ARG d   1      18.002 -17.511   4.080  0.00  0.00     0.275 HD
ATOM     61  H2  ARG d   1      17.518 -15.947   4.247  0.00  0.00     0.275 HD
ATOM     62  H3  ARG d   1      17.413 -16.982   5.523  0.00  0.00     0.275 HD
ENDBRANCH  57  59
BRANCH  57  63
ATOM     63  CB  ARG d   1      20.183 -15.967   3.922  0.00  0.00    -0.029 C 
ATOM     64  H5  ARG d   1      21.214 -15.805   4.270  0.00  0.00     0.036 H 
ATOM     65  H6  ARG d   1      19.787 -15.031   3.501  0.00  0.00     0.036 H 
BRANCH  63  66
ATOM     66  CG  ARG d   1      20.215 -17.008   2.817  0.00  0.00    -0.047 C 
ATOM     67  H7  ARG d   1      19.192 -17.173   2.447  0.00  0.00     0.035 H 
ATOM     68  H8  ARG d   1      20.615 -17.950   3.221  0.00  0.00     0.035 H 
BRANCH  66  69
ATOM     69  CD  ARG d   1      21.093 -16.547   1.664  0.00  0.00     0.009 C 
ATOM     70  H9  ARG d   1      22.137 -16.507   2.010  0.00  0.00     0.064 H 
ATOM     71  H10 ARG d   1      20.770 -15.542   1.355  0.00  0.00     0.064 H 
BRANCH  69  72
ATOM     72  NE  ARG d   1      21.016 -17.440   0.508  0.00  0.00    -0.227 N 
ATOM     73  CZ  ARG d   1      21.824 -17.358  -0.550  0.00  0.00     0.665 C 
ATOM     74  NH1 ARG d   1      22.768 -16.426  -0.600  0.00  0.00    -0.235 N 
ATOM     75  NH2 ARG d   1      21.678 -18.199  -1.565  0.00  0.00    -0.235 N 
ATOM     76  H12 ARG d   1      23.390 -16.366  -1.419  0.00  0.00     0.174 HD
ATOM     77  H13 ARG d   1      22.879 -15.763   0.180  0.00  0.00     0.174 HD
ATOM     78  H14 ARG d   1      20.947 -18.924  -1.532  0.00  0.00     0.174 HD
ATOM     79  H15 ARG d   1      22.295 -18.127  -2.386  0.00  0.00     0.174 HD
ATOM     80  H11 ARG d   1      20.295 -18.176   0.511  0.00  0.00     0.177 HD
ENDBRANCH  69  72
ENDBRANCH  66  69
ENDBRANCH  63  66
ENDBRANCH  57  63
ENDBRANCH  54  57
ENDBRANCH  51  53
BRANCH  51  81
ATOM     81  CB  THR d   1      21.856 -13.242   7.895  0.00  0.00     0.060 C 
ATOM     82  H18 THR d   1      21.936 -12.212   8.273  0.00  0.00     0.086 H 
BRANCH  81  83
ATOM     83  OG1 THR d   1      22.889 -13.461   6.924  0.00  0.00    -0.393 OA
ATOM     84  H19 THR d   1      22.795 -12.834   6.216  0.00  0.00     0.210 HD
ENDBRANCH  81  83
BRANCH  81  85
ATOM     85  CG2 THR d   1      22.032 -14.202   9.060  0.00  0.00    -0.050 C 
ATOM     86  H20 THR d   1      23.025 -14.055   9.509  0.00  0.00     0.031 H 
ATOM     87  H21 THR d   1      21.943 -15.237   8.699  0.00  0.00     0.031 H 
ATOM     88  H22 THR d   1      21.256 -14.009   9.815  0.00  0.00     0.031 H 
ENDBRANCH  81  85
ENDBRANCH  51  81
ENDBRANCH  48  51
ENDBRANCH  45  47
BRANCH  45  89
ATOM     89  CB  TYR d   1      17.640  -9.580   6.681  0.00  0.00    -0.014 C 
ATOM     90  H25 TYR d   1      17.276  -8.775   6.026  0.00  0.00     0.043 H 
ATOM     91  H26 TYR d   1      17.860  -9.171   7.678  0.00  0.00     0.043 H 
BRANCH  89  92
ATOM     92  CG  TYR d   1      16.558 -10.627   6.813  0.00  0.00    -0.056 A 
ATOM     93  CD1 TYR d   1      16.064 -11.280   5.693  0.00  0.00    -0.074 A 
ATOM     94  CE1 TYR d   1      15.094 -12.252   5.805  0.00  0.00    -0.051 A 
ATOM     95  H27 TYR d   1      16.448 -11.021   4.713  0.00  0.00     0.084 H 
ATOM     96  CZ  TYR d   1      14.598 -12.582   7.044  0.00  0.00     0.065 A 
ATOM     97  H29 TYR d   1      14.723 -12.755   4.919  0.00  0.00     0.087 H 
ATOM     98  CE2 TYR d   1      15.069 -11.948   8.173  0.00  0.00    -0.051 A 
ATOM     99  CD2 TYR d   1      16.046 -10.978   8.055  0.00  0.00    -0.074 A 
ATOM    100  H30 TYR d   1      14.675 -12.209   9.149  0.00  0.00     0.087 H 
ATOM    101  H28 TYR d   1      16.418 -10.484   8.945  0.00  0.00     0.084 H 
BRANCH  96 102
ATOM    102  OH  TYR d   1      13.631 -13.556   7.153  0.00  0.00    -0.361 OA
ATOM    103  H31 TYR d   1      13.420 -13.889   6.289  0.00  0.00     0.217 HD
ENDBRANCH  96 102
ENDBRANCH  89  92
ENDBRANCH  45  89
ENDBRANCH  42  45
ENDBRANCH  39  41
BRANCH  39 104
ATOM    104  CB  GLU d   1      23.206  -9.237   4.173  0.00  0.00    -0.029 C 
ATOM    105  H34 GLU d   1      22.798  -9.665   3.245  0.00  0.00     0.037 H 
ATOM    106  H35 GLU d   1      23.530 -10.050   4.840  0.00  0.00     0.037 H 
BRANCH 104 107
ATOM    107  CG  GLU d   1      24.426  -8.405   3.814  0.00  0.00     0.018 C 
ATOM    108  H36 GLU d   1      24.889  -8.036   4.741  0.00  0.00     0.049 H 
ATOM    109  H37 GLU d   1      24.105  -7.551   3.199  0.00  0.00     0.049 H 
BRANCH 107 110
ATOM    110  CD  GLU d   1      25.452  -9.206   3.041  0.00  0.00     0.172 C 
ATOM    111  OE1 GLU d   1      25.279  -9.375   1.814  0.00  0.00    -0.648 OA
ATOM    112  OE2 GLU d   1      26.427  -9.685   3.656  0.00  0.00    -0.648 OA
ENDBRANCH 107 110
ENDBRANCH 104 107
ENDBRANCH  39 104
ENDBRANCH  36  39
ENDBRANCH  33  35
BRANCH  33 113
ATOM    113  CB  THR d   1      19.697  -7.263   0.941  0.00  0.00     0.060 C 
ATOM    114  H40 THR d   1      18.699  -7.699   1.095  0.00  0.00     0.086 H 
BRANCH 113 115
ATOM    115  OG1 THR d   1      20.617  -8.312   0.614  0.00  0.00    -0.393 OA
ATOM    116  H41 THR d   1      20.634  -8.948   1.320  0.00  0.00     0.210 HD
ENDBRANCH 113 115
BRANCH 113 117
ATOM    117  CG2 THR d   1      19.623  -6.267  -0.209  0.00  0.00    -0.050 C 
ATOM    118  H42 THR d   1      19.308  -6.788  -1.125  0.00  0.00     0.031 H 
ATOM    119  H43 THR d   1      20.613  -5.814  -0.366  0.00  0.00     0.031 H 
ATOM    120  H44 THR d   1      18.894  -5.480   0.034  0.00  0.00     0.031 H 
ENDBRANCH 113 117
ENDBRANCH  33 113
ENDBRANCH  30  33
ENDBRANCH  27  29
BRANCH  27 121
ATOM    121  CB  PHE d   1      17.732  -2.705   3.348  0.00  0.00    -0.014 C 
ATOM    122  H47 PHE d   1      18.000  -3.156   4.315  0.00  0.00     0.043 H 
ATOM    123  H48 PHE d   1      16.784  -2.157   3.450  0.00  0.00     0.043 H 
BRANCH 121 124
ATOM    124  CG  PHE d   1      18.808  -1.711   2.983  0.00  0.00    -0.056 A 
ATOM    125  CD1 PHE d   1      18.543  -0.670   2.109  0.00  0.00    -0.077 A 
ATOM    126  CE1 PHE d   1      19.506   0.266   1.803  0.00  0.00    -0.082 A 
ATOM    127  H49 PHE d   1      17.561  -0.590   1.658  0.00  0.00     0.084 H 
ATOM    128  CZ  PHE d   1      20.759   0.171   2.366  0.00  0.00    -0.083 A 
ATOM    129  H51 PHE d   1      19.278   1.076   1.120  0.00  0.00     0.083 H 
ATOM    130  CE2 PHE d   1      21.045  -0.862   3.240  0.00  0.00    -0.082 A 
ATOM    131  H53 PHE d   1      21.520   0.904   2.125  0.00  0.00     0.083 H 
ATOM    132  CD2 PHE d   1      20.070  -1.793   3.548  0.00  0.00    -0.077 A 
ATOM    133  H52 PHE d   1      22.031  -0.942   3.683  0.00  0.00     0.083 H 
ATOM    134  H50 PHE d   1      20.296  -2.596   4.240  0.00  0.00     0.084 H 
ENDBRANCH 121 124
ENDBRANCH  27 121
ENDBRANCH  24  27
ENDBRANCH   1  23
BRANCH   1 135
ATOM    135  C   ALY d   1      16.392  -0.901  -0.651  0.00  0.00     0.241 C 
ATOM    136  O   ALY d   1      16.094   0.167  -0.115  0.00  0.00    -0.271 OA
ATOM    137  N   SER d   1      17.492  -1.074  -1.383  0.00  0.00    -0.344 N 
ATOM    138  H68 SER d   1      17.667  -1.974  -1.782  0.00  0.00     0.163 HD
BRANCH 137 139
ATOM    139  CA  SER d   1      18.451   0.000  -1.625  0.00  0.00     0.109 C 
ATOM    140  H69 SER d   1      18.873   0.312  -0.658  0.00  0.00     0.090 H 
BRANCH 139 141
ATOM    141  C   SER d   1      17.784   1.211  -2.266  0.00  0.00     0.243 C 
ATOM    142  O   SER d   1      17.150   1.106  -3.319  0.00  0.00    -0.271 OA
ATOM    143  N   ILE d   1      17.940   2.362  -1.630  0.00  0.00    -0.346 N 
ATOM    144  H73 ILE d   1      18.559   2.407  -0.846  0.00  0.00     0.163 HD
BRANCH 143 145
ATOM    145  CA  ILE d   1      17.235   3.556  -2.043  0.00  0.00     0.092 C 
ATOM    146  H74 ILE d   1      16.574   3.295  -2.882  0.00  0.00     0.088 H 
BRANCH 145 147
ATOM    147  C   ILE d   1      18.191   4.642  -2.514  0.00  0.00     0.241 C 
ATOM    148  O   ILE d   1      18.954   5.195  -1.721  0.00  0.00    -0.271 OA
ATOM    149  N   MET d   1      18.140   4.918  -3.818  0.00  0.00    -0.346 N 
ATOM    150  H84 MET d   1      17.531   4.376  -4.397  0.00  0.00     0.163 HD
BRANCH 149 151
ATOM    151  CA  MET d   1      18.934   5.976  -4.439  0.00  0.00     0.090 C 
ATOM    152  H85 MET d   1      18.689   5.998  -5.511  0.00  0.00     0.087 H 
BRANCH 151 153
ATOM    153  C   MET d   1      20.429   5.707  -4.303  0.00  0.00     0.241 C 
ATOM    154  O   MET d   1      21.010   5.878  -3.231  0.00  0.00    -0.271 OA
ATOM    155  N   LYS d   1      21.042   5.280  -5.398  0.00  0.00    -0.346 N 
ATOM    156  H93 LYS d   1      20.501   5.101  -6.220  0.00  0.00     0.163 HD
BRANCH 155 157
ATOM    157  CA  LYS d   1      22.480   5.064  -5.438  0.00  0.00     0.089 C 
ATOM    158  H94 LYS d   1      22.760   4.382  -4.622  0.00  0.00     0.087 H 
BRANCH 157 159
ATOM    159  C   LYS d   1      23.211   6.390  -5.245  0.00  0.00     0.241 C 
ATOM    160  O   LYS d   1      23.512   7.098  -6.210  0.00  0.00    -0.271 OA
ATOM    161  N   LYS d   1      23.463   6.730  -3.990  0.00  0.00    -0.346 N 
ATOM    162 6H10 LYS d   1      23.187   6.111  -3.255  0.00  0.00     0.163 HD
BRANCH 161 163
ATOM    163  CA  LYS d   1      24.128   7.975  -3.651  0.00  0.00     0.089 C 
ATOM    164 7H10 LYS d   1      23.876   8.732  -4.409  0.00  0.00     0.087 H 
BRANCH 163 165
ATOM    165  C   LYS d   1      25.636   7.772  -3.641  0.00  0.00     0.241 C 
ATOM    166  O   LYS d   1      26.406   8.719  -3.792  0.00  0.00    -0.271 OA
ATOM    167  N   SER d   1      26.046   6.527  -3.463  0.00  0.00    -0.343 N 
ATOM    168 9H11 SER d   1      25.368   5.804  -3.335  0.00  0.00     0.163 HD
BRANCH 167 169
ATOM    169  CA  SER d   1      27.454   6.186  -3.449  0.00  0.00     0.116 C 
ATOM    170 0H12 SER d   1      28.009   6.988  -2.940  0.00  0.00     0.093 H 
BRANCH 169 171
ATOM    171  C   SER d   1      27.976   6.061  -4.878  0.00  0.00     0.198 C 
ATOM    172  O   SER d   1      28.442   7.078  -5.434  0.00  0.00    -0.646 OA
ATOM    173  OXT SER d   1      27.900   4.954  -5.447  0.00  0.00    -0.646 OA
ENDBRANCH 169 171
BRANCH 169 174
ATOM    174  CB  SER d   1      27.662   4.881  -2.680  0.00  0.00     0.045 C 
ATOM    175 1H12 SER d   1      28.741   4.686  -2.586  0.00  0.00     0.077 H 
ATOM    176 2H12 SER d   1      27.188   4.057  -3.234  0.00  0.00     0.077 H 
BRANCH 174 177
ATOM    177  OG  SER d   1      27.088   4.960  -1.381  0.00  0.00    -0.398 OA
ATOM    178 3H12 SER d   1      27.229   4.140  -0.923  0.00  0.00     0.209 HD
ENDBRANCH 174 177
ENDBRANCH 169 174
ENDBRANCH 167 169
ENDBRANCH 163 165
BRANCH 163 179
ATOM    179  CB  LYS d   1      23.653   8.469  -2.281  0.00  0.00    -0.038 C 
ATOM    180 8H10 LYS d   1      24.087   7.817  -1.509  0.00  0.00     0.036 H 
ATOM    181 9H10 LYS d   1      22.556   8.396  -2.248  0.00  0.00     0.036 H 
BRANCH 179 182
ATOM    182  CG  LYS d   1      24.045   9.904  -1.970  0.00  0.00    -0.061 C 
ATOM    183 0H11 LYS d   1      25.124  10.026  -2.146  0.00  0.00     0.033 H 
ATOM    184 1H11 LYS d   1      23.820  10.116  -0.914  0.00  0.00     0.033 H 
BRANCH 182 185
ATOM    185  CD  LYS d   1      23.287  10.889  -2.844  0.00  0.00    -0.043 C 
ATOM    186 2H11 LYS d   1      22.207  10.745  -2.690  0.00  0.00     0.035 H 
ATOM    187 3H11 LYS d   1      23.536  10.696  -3.898  0.00  0.00     0.035 H 
BRANCH 185 188
ATOM    188  CE  LYS d   1      23.645  12.327  -2.509  0.00  0.00     0.080 C 
ATOM    189 4H11 LYS d   1      23.491  12.489  -1.432  0.00  0.00     0.075 H 
ATOM    190 5H11 LYS d   1      22.986  12.999  -3.079  0.00  0.00     0.075 H 
BRANCH 188 191
ATOM    191  NZ  LYS d   1      25.058  12.644  -2.844  0.00  0.00    -0.079 N 
ATOM    192 6H11 LYS d   1      25.252  13.604  -2.607  0.00  0.00     0.274 HD
ATOM    193 7H11 LYS d   1      25.209  12.505  -3.831  0.00  0.00     0.274 HD
ATOM    194 8H11 LYS d   1      25.671  12.038  -2.322  0.00  0.00     0.274 HD
ENDBRANCH 188 191
ENDBRANCH 185 188
ENDBRANCH 182 185
ENDBRANCH 179 182
ENDBRANCH 163 179
ENDBRANCH 161 163
ENDBRANCH 157 159
BRANCH 157 195
ATOM    195  CB  LYS d   1      22.878   4.426  -6.772  0.00  0.00    -0.038 C 
ATOM    196  H95 LYS d   1      22.584   5.109  -7.583  0.00  0.00     0.036 H 
ATOM    197  H96 LYS d   1      22.334   3.476  -6.877  0.00  0.00     0.036 H 
BRANCH 195 198
ATOM    198  CG  LYS d   1      24.366   4.141  -6.904  0.00  0.00    -0.061 C 
ATOM    199  H97 LYS d   1      24.653   3.376  -6.167  0.00  0.00     0.033 H 
ATOM    200  H98 LYS d   1      24.928   5.066  -6.710  0.00  0.00     0.033 H 
BRANCH 198 201
ATOM    201  CD  LYS d   1      24.701   3.639  -8.297  0.00  0.00    -0.043 C 
ATOM    202  H99 LYS d   1      24.311   4.354  -9.036  0.00  0.00     0.035 H 
ATOM    203 0H10 LYS d   1      24.223   2.660  -8.447  0.00  0.00     0.035 H 
BRANCH 201 204
ATOM    204  CE  LYS d   1      26.199   3.490  -8.500  0.00  0.00     0.080 C 
ATOM    205 1H10 LYS d   1      26.577   2.718  -7.814  0.00  0.00     0.075 H 
ATOM    206 2H10 LYS d   1      26.687   4.450  -8.276  0.00  0.00     0.075 H 
BRANCH 204 207
ATOM    207  NZ  LYS d   1      26.526   3.097  -9.896  0.00  0.00    -0.079 N 
ATOM    208 3H10 LYS d   1      27.525   3.007  -9.995  0.00  0.00     0.274 HD
ATOM    209 4H10 LYS d   1      26.188   3.802 -10.532  0.00  0.00     0.274 HD
ATOM    210 5H10 LYS d   1      26.087   2.215 -10.108  0.00  0.00     0.274 HD
ENDBRANCH 204 207
ENDBRANCH 201 204
ENDBRANCH 198 201
ENDBRANCH 195 198
ENDBRANCH 157 195
ENDBRANCH 155 157
ENDBRANCH 151 153
BRANCH 151 211
ATOM    211  CB  MET d   1      18.584   7.345  -3.841  0.00  0.00    -0.030 C 
ATOM    212  H86 MET d   1      18.795   7.317  -2.762  0.00  0.00     0.037 H 
ATOM    213  H87 MET d   1      17.511   7.530  -4.000  0.00  0.00     0.037 H 
BRANCH 211 214
ATOM    214  CG  MET d   1      19.367   8.496  -4.455  0.00  0.00    -0.021 C 
ATOM    215  H88 MET d   1      19.181   8.509  -5.539  0.00  0.00     0.049 H 
ATOM    216  H89 MET d   1      20.439   8.331  -4.269  0.00  0.00     0.049 H 
BRANCH 214 217
ATOM    217  SD  MET d   1      18.903  10.099  -3.771  0.00  0.00    -0.173 SA
BRANCH 217 218
ATOM    218  CE  MET d   1      19.971  11.185  -4.717  0.00  0.00    -0.035 C 
ATOM    219  H90 MET d   1      19.802  12.227  -4.407  0.00  0.00     0.041 H 
ATOM    220  H91 MET d   1      19.745  11.080  -5.788  0.00  0.00     0.041 H 
ATOM    221  H92 MET d   1      21.022  10.915  -4.536  0.00  0.00     0.041 H 
ENDBRANCH 217 218
ENDBRANCH 214 217
ENDBRANCH 211 214
ENDBRANCH 151 211
ENDBRANCH 149 151
ENDBRANCH 145 147
BRANCH 145 222
ATOM    222  CB  ILE d   1      16.373   4.062  -0.880  0.00  0.00    -0.030 C 
ATOM    223  H75 ILE d   1      16.980   4.025   0.037  0.00  0.00     0.043 H 
BRANCH 222 224
ATOM    224  CG1 ILE d   1      15.168   3.139  -0.695  0.00  0.00    -0.063 C 
ATOM    225  H76 ILE d   1      14.805   3.245   0.338  0.00  0.00     0.033 H 
ATOM    226  H77 ILE d   1      15.496   2.103  -0.864  0.00  0.00     0.033 H 
BRANCH 224 227
ATOM    227  CD1 ILE d   1      14.027   3.435  -1.633  0.00  0.00    -0.076 C 
ATOM    228  H81 ILE d   1      13.202   2.733  -1.440  0.00  0.00     0.027 H 
ATOM    229  H82 ILE d   1      14.368   3.322  -2.673  0.00  0.00     0.027 H 
ATOM    230  H83 ILE d   1      13.677   4.465  -1.471  0.00  0.00     0.027 H 
ENDBRANCH 224 227
ENDBRANCH 222 224
BRANCH 222 231
ATOM    231  CG2 ILE d   1      15.929   5.505  -1.087  0.00  0.00    -0.071 C 
ATOM    232  H78 ILE d   1      16.814   6.146  -1.217  0.00  0.00     0.028 H 
ATOM    233  H79 ILE d   1      15.358   5.842  -0.210  0.00  0.00     0.028 H 
ATOM    234  H80 ILE d   1      15.295   5.569  -1.984  0.00  0.00     0.028 H 
ENDBRANCH 222 231
ENDBRANCH 145 222
ENDBRANCH 143 145
ENDBRANCH 139 141
BRANCH 139 235
ATOM    235  CB  SER d   1      19.586  -0.511  -2.508  0.00  0.00     0.044 C 
ATOM    236  H70 SER d   1      20.336   0.285  -2.628  0.00  0.00     0.077 H 
ATOM    237  H71 SER d   1      19.181  -0.785  -3.493  0.00  0.00     0.077 H 
BRANCH 235 238
ATOM    238  OG  SER d   1      20.203  -1.648  -1.926  0.00  0.00    -0.398 OA
ATOM    239  H72 SER d   1      19.559  -2.339  -1.823  0.00  0.00     0.209 HD
ENDBRANCH 235 238
ENDBRANCH 139 235
ENDBRANCH 137 139
ENDBRANCH   1 135
TORSDOF 72
