REMARK WARNING: 32 MAX_TORS EXCEEDED!!!
REMARK  87 active torsions:
REMARK  status: ('A' for Active; 'I' for Inactive)
REMARK    1  A    between atoms: N_1  and  CA_2 
REMARK    2  A    between atoms: CA_2  and  C_3 
REMARK       I    between atoms: C_3  and  N_5 
REMARK    3  A    between atoms: N_5  and  CA_6 
REMARK    4  A    between atoms: CA_6  and  C_7 
REMARK    5  A    between atoms: CA_6  and  CB_9 
REMARK       I    between atoms: C_7  and  N_11 
REMARK    6  A    between atoms: CB_9  and  OG_10 
REMARK    7  A    between atoms: N_11  and  CA_12 
REMARK    8  A    between atoms: CA_12  and  C_13 
REMARK    9  A    between atoms: CA_12  and  CB_15 
REMARK       I    between atoms: C_13  and  N_19 
REMARK   10  A    between atoms: CB_15  and  CG_16 
REMARK   11  A    between atoms: CG_16  and  CD1_17 
REMARK   12  A    between atoms: CG_16  and  CD2_18 
REMARK   13  A    between atoms: N_19  and  CA_20 
REMARK   14  A    between atoms: CA_20  and  C_21 
REMARK   15  A    between atoms: CA_20  and  CB_23 
REMARK       I    between atoms: C_21  and  N_27 
REMARK   16  A    between atoms: CB_23  and  CG_24 
REMARK   17  A    between atoms: CG_24  and  CD1_25 
REMARK   18  A    between atoms: CG_24  and  CD2_26 
REMARK   19  A    between atoms: N_27  and  CA_28 
REMARK   20  A    between atoms: CA_28  and  C_29 
REMARK   21  A    between atoms: CA_28  and  CB_31 
REMARK       I    between atoms: C_29  and  N_36 
REMARK   22  A    between atoms: CB_31  and  CG_32 
REMARK   23  A    between atoms: CG_32  and  CD_33 
REMARK   24  A    between atoms: CD_33  and  CE_34 
REMARK   25  A    between atoms: CE_34  and  NZ_35 
REMARK   26  A    between atoms: N_36  and  CA_37 
REMARK   27  A    between atoms: CA_37  and  C_38 
REMARK   28  A    between atoms: CA_37  and  CB_40 
REMARK       I    between atoms: C_38  and  N_45 
REMARK   29  A    between atoms: CB_40  and  CG_41 
REMARK   30  A    between atoms: CG_41  and  CD_42 
REMARK   31  A    between atoms: N_45  and  CA_46 
REMARK   32  A    between atoms: CA_46  and  C_47 
REMARK   33  A    between atoms: CA_46  and  CB_49 
REMARK       I    between atoms: C_47  and  N_52 
REMARK   34  A    between atoms: CB_49  and  CG1_50 
REMARK   35  A    between atoms: CB_49  and  CG2_51 
REMARK   36  A    between atoms: N_52  and  CA_53 
REMARK   37  A    between atoms: CA_53  and  C_54 
REMARK   38  A    between atoms: CA_53  and  CB_56 
REMARK       I    between atoms: C_54  and  N_60 
REMARK   39  A    between atoms: CB_56  and  CG_57 
REMARK   40  A    between atoms: CG_57  and  CD1_58 
REMARK   41  A    between atoms: CG_57  and  CD2_59 
REMARK   42  A    between atoms: N_60  and  CA_61 
REMARK   43  A    between atoms: CA_61  and  C_62 
REMARK   44  A    between atoms: CA_61  and  CB_64 
REMARK       I    between atoms: C_62  and  N_69 
REMARK   45  A    between atoms: CB_64  and  CG_65 
REMARK   46  A    between atoms: CG_65  and  CD_66 
REMARK   47  A    between atoms: N_69  and  CA_70 
REMARK   48  A    between atoms: CA_70  and  C_71 
REMARK   49  A    between atoms: CA_70  and  CB_73 
REMARK       I    between atoms: C_71  and  N_77 
REMARK   50  A    between atoms: CB_73  and  CG_74 
REMARK   51  A    between atoms: N_77  and  CA_78 
REMARK   52  A    between atoms: CA_78  and  C_79 
REMARK   53  A    between atoms: CA_78  and  CB_81 
REMARK       I    between atoms: C_79  and  N_89 
REMARK   54  A    between atoms: CB_81  and  CG_82 
REMARK   55  A    between atoms: CZ_87  and  OH_88 
REMARK   56  A    between atoms: N_89  and  CA_90 
REMARK   57  A    between atoms: CA_90  and  C_91 
REMARK   58  A    between atoms: CA_90  and  CB_93 
REMARK       I    between atoms: C_91  and  N_97 
REMARK   59  A    between atoms: CB_93  and  CG_94 
REMARK   60  A    between atoms: CG_94  and  CD1_95 
REMARK   61  A    between atoms: CG_94  and  CD2_96 
REMARK   62  A    between atoms: N_97  and  CA_98 
REMARK   63  A    between atoms: CA_98  and  C_99 
REMARK   64  A    between atoms: CA_98  and  CB_101 
REMARK       I    between atoms: C_99  and  N_108 
REMARK   65  A    between atoms: CB_101  and  CG_102 
REMARK   66  A    between atoms: CG_102  and  CD_103 
REMARK   67  A    between atoms: CD_103  and  NE_104 
REMARK       I    between atoms: NE_104  and  CZ_105 
REMARK       I    between atoms: CZ_105  and  NH1_106 
REMARK   68  A    between atoms: N_108  and  CA_109 
REMARK   69  A    between atoms: CA_109  and  C_110 
REMARK   70  A    between atoms: CA_109  and  CB_112 
REMARK       I    between atoms: C_110  and  N_116 
REMARK   71  A    between atoms: CB_112  and  CG_113 
REMARK   72  A    between atoms: CG_113  and  CD1_114 
REMARK   73  A    between atoms: CG_113  and  CD2_115 
REMARK   74  A    between atoms: N_116  and  CA_117 
REMARK   75  A    between atoms: CA_117  and  C_118 
REMARK   76  A    between atoms: CA_117  and  CB_120 
REMARK       I    between atoms: C_118  and  N_125 
REMARK   77  A    between atoms: CB_120  and  CG_121 
REMARK   78  A    between atoms: CG_121  and  CD_122 
REMARK   79  A    between atoms: CD_122  and  CE_123 
REMARK   80  A    between atoms: CE_123  and  NZ_124 
REMARK   81  A    between atoms: N_125  and  CA_126 
REMARK   82  A    between atoms: CA_126  and  C_127 
REMARK   83  A    between atoms: CA_126  and  CB_129 
REMARK   84  A    between atoms: CB_129  and  CG_130 
REMARK   85  A    between atoms: CG_130  and  CD_131 
REMARK   86  A    between atoms: CD_131  and  CE_132 
REMARK   87  A    between atoms: CE_132  and  NZ_133 
ROOT
ATOM      1  CA  GLU d   1      -5.181  -3.518   9.592  0.00  0.00     0.090 C 
ATOM      2  H   GLU d   1      -4.319  -4.037  10.011  0.00  0.00     0.087 H 
ENDROOT
BRANCH   1   3
ATOM      3  N   GLU d   1      -4.700  -2.548   8.616  0.00  0.00    -0.346 N 
ATOM      4  C   LEU d   1      -3.892  -2.901   7.622  0.00  0.00     0.241 C 
ATOM      5  O   LEU d   1      -3.496  -4.054   7.454  0.00  0.00    -0.271 OA
ATOM      6  H   GLU d   1      -4.991  -1.574   8.698  0.00  0.00     0.163 HD
BRANCH   4   7
ATOM      7  CA  LEU d   1      -3.475  -1.782   6.675  0.00  0.00     0.089 C 
ATOM      8  H   LEU d   1      -3.066  -2.210   5.760  0.00  0.00     0.087 H 
BRANCH   7   9
ATOM      9  N   LEU d   1      -4.635  -0.974   6.303  0.00  0.00    -0.346 N 
ATOM     10  C   VAL d   1      -5.648  -1.501   5.619  0.00  0.00     0.241 C 
ATOM     11  O   VAL d   1      -5.670  -2.681   5.264  0.00  0.00    -0.271 OA
ATOM     12  H   LEU d   1      -4.669   0.009   6.572  0.00  0.00     0.163 HD
BRANCH  10  13
ATOM     13  CA  VAL d   1      -6.814  -0.570   5.296  0.00  0.00     0.092 C 
ATOM     14  H   VAL d   1      -7.721  -1.163   5.177  0.00  0.00     0.088 H 
BRANCH  13  15
ATOM     15  N   VAL d   1      -7.066   0.361   6.390  0.00  0.00    -0.346 N 
ATOM     16  C   GLU d   1      -7.547  -0.057   7.555  0.00  0.00     0.241 C 
ATOM     17  O   GLU d   1      -7.807  -1.237   7.786  0.00  0.00    -0.271 OA
ATOM     18  H   VAL d   1      -6.869   1.353   6.258  0.00  0.00     0.163 HD
BRANCH  16  19
ATOM     19  CA  GLU d   1      -7.775   1.015   8.613  0.00  0.00     0.090 C 
ATOM     20  H   GLU d   1      -7.821   0.533   9.589  0.00  0.00     0.087 H 
BRANCH  19  21
ATOM     21  N   GLU d   1      -6.671   1.969   8.639  0.00  0.00    -0.346 N 
ATOM     22  C   LYS d   1      -5.441   1.599   8.978  0.00  0.00     0.241 C 
ATOM     23  O   LYS d   1      -5.151   0.444   9.288  0.00  0.00    -0.271 OA
ATOM     24  H   GLU d   1      -6.848   2.942   8.391  0.00  0.00     0.163 HD
BRANCH  22  25
ATOM     25  CA  LYS d   1      -4.378   2.694   8.967  0.00  0.00     0.089 C 
ATOM     26  H   LYS d   1      -3.412   2.233   8.761  0.00  0.00     0.087 H 
BRANCH  25  27
ATOM     27  N   LYS d   1      -4.643   3.673   7.918  0.00  0.00    -0.346 N 
ATOM     28  C   LEU d   1      -4.759   3.320   6.641  0.00  0.00     0.241 C 
ATOM     29  O   LEU d   1      -4.655   2.156   6.252  0.00  0.00    -0.271 OA
ATOM     30  H   LYS d   1      -4.742   4.656   8.171  0.00  0.00     0.163 HD
BRANCH  28  31
ATOM     31  CA  LEU d   1      -5.040   4.449   5.658  0.00  0.00     0.089 C 
ATOM     32  H   LEU d   1      -5.263   4.015   4.683  0.00  0.00     0.087 H 
BRANCH  31  33
ATOM     33  N   LEU d   1      -6.196   5.228   6.088  0.00  0.00    -0.346 N 
ATOM     34  C   LEU d   1      -7.372   4.654   6.322  0.00  0.00     0.241 C 
ATOM     35  O   LEU d   1      -7.561   3.443   6.194  0.00  0.00    -0.271 OA
ATOM     36  H   LEU d   1      -6.100   6.236   6.212  0.00  0.00     0.163 HD
BRANCH  34  37
ATOM     37  CA  LEU d   1      -8.496   5.582   6.772  0.00  0.00     0.089 C 
ATOM     38  H   LEU d   1      -9.259   4.983   7.269  0.00  0.00     0.087 H 
BRANCH  37  39
ATOM     39  N   LEU d   1      -8.002   6.572   7.723  0.00  0.00    -0.346 N 
ATOM     40  C   SER d   1      -7.679   6.241   8.968  0.00  0.00     0.243 C 
ATOM     41  O   SER d   1      -7.772   5.092   9.402  0.00  0.00    -0.271 OA
ATOM     42  H   LEU d   1      -7.902   7.542   7.424  0.00  0.00     0.163 HD
BRANCH  40  43
ATOM     43  CA  SER d   1      -7.173   7.371   9.857  0.00  0.00     0.109 C 
ATOM     44  H   SER d   1      -6.596   8.059   9.239  0.00  0.00     0.090 H 
BRANCH  43  45
ATOM     45  N   SER d   1      -8.283   8.115  10.445  0.00  0.00    -0.344 N 
ATOM     46  C   GLY d   1      -9.220   7.510  11.171  0.00  0.00     0.243 C 
ATOM     47  O   GLY d   1      -9.217   6.300  11.393  0.00  0.00    -0.272 OA
ATOM     48  H   SER d   1      -8.342   9.122  10.296  0.00  0.00     0.163 HD
BRANCH  46  49
ATOM     49  CA  GLY d   1     -10.321   8.394  11.728  0.00  0.00     0.152 C 
ATOM     50  H   GLY d   1     -11.273   7.894  11.551  0.00  0.00     0.090 H 
ATOM     51  H   GLY d   1     -10.118   8.553  12.787  0.00  0.00     0.090 H 
BRANCH  49  52
ATOM     52  N   GLY d   1     -10.376   9.695  11.086  0.00  0.00    -0.071 N 
ATOM     53  H   GLY d   1     -11.130  10.244  11.498  0.00  0.00     0.274 HD
ATOM     54  H   GLY d   1      -9.488  10.178  11.223  0.00  0.00     0.274 HD
ATOM     55  H   GLY d   1     -10.548   9.573  10.088  0.00  0.00     0.274 HD
ENDBRANCH  49  52
ENDBRANCH  46  49
ENDBRANCH  43  45
BRANCH  43  56
ATOM     56  CB  SER d   1      -6.273   6.807  10.957  0.00  0.00     0.044 C 
ATOM     57  H   SER d   1      -6.542   5.764  11.127  0.00  0.00     0.077 H 
ATOM     58  H   SER d   1      -6.413   7.401  11.860  0.00  0.00     0.077 H 
BRANCH  56  59
ATOM     59  OG  SER d   1      -4.907   6.868  10.581  0.00  0.00    -0.398 OA
ATOM     60  H   SER d   1      -4.365   6.509  11.287  0.00  0.00     0.209 HD
ENDBRANCH  56  59
ENDBRANCH  43  56
ENDBRANCH  40  43
ENDBRANCH  37  39
BRANCH  37  61
ATOM     61  CB  LEU d   1      -9.119   6.277   5.560  0.00  0.00    -0.035 C 
ATOM     62  H   LEU d   1      -9.009   5.596   4.716  0.00  0.00     0.037 H 
ATOM     63  H   LEU d   1      -8.609   7.234   5.449  0.00  0.00     0.037 H 
BRANCH  61  64
ATOM     64  CG  LEU d   1     -10.611   6.584   5.689  0.00  0.00    -0.059 C 
ATOM     65  H   LEU d   1     -10.790   7.011   6.676  0.00  0.00     0.038 H 
BRANCH  64  66
ATOM     66  CD1 LEU d   1     -11.040   7.600   4.643  0.00  0.00    -0.073 C 
ATOM     67  H   LEU d   1     -10.476   8.522   4.781  0.00  0.00     0.028 H 
ATOM     68  H   LEU d   1     -10.846   7.199   3.648  0.00  0.00     0.028 H 
ATOM     69  H   LEU d   1     -12.105   7.804   4.752  0.00  0.00     0.028 H 
ENDBRANCH  64  66
BRANCH  64  70
ATOM     70  CD2 LEU d   1     -11.430   5.307   5.561  0.00  0.00    -0.073 C 
ATOM     71  H   LEU d   1     -11.244   4.853   4.588  0.00  0.00     0.028 H 
ATOM     72  H   LEU d   1     -11.141   4.611   6.349  0.00  0.00     0.028 H 
ATOM     73  H   LEU d   1     -12.489   5.545   5.655  0.00  0.00     0.028 H 
ENDBRANCH  64  70
ENDBRANCH  61  64
ENDBRANCH  37  61
ENDBRANCH  34  37
ENDBRANCH  31  33
BRANCH  31  74
ATOM     74  CB  LEU d   1      -3.810   5.350   5.531  0.00  0.00    -0.035 C 
ATOM     75  H   LEU d   1      -3.577   5.708   6.534  0.00  0.00     0.037 H 
ATOM     76  H   LEU d   1      -4.063   6.129   4.811  0.00  0.00     0.037 H 
BRANCH  74  77
ATOM     77  CG  LEU d   1      -2.551   4.656   5.006  0.00  0.00    -0.059 C 
ATOM     78  H   LEU d   1      -2.551   3.626   5.362  0.00  0.00     0.038 H 
BRANCH  77  79
ATOM     79  CD1 LEU d   1      -2.549   4.638   3.485  0.00  0.00    -0.073 C 
ATOM     80  H   LEU d   1      -3.427   4.099   3.128  0.00  0.00     0.028 H 
ATOM     81  H   LEU d   1      -2.573   5.662   3.111  0.00  0.00     0.028 H 
ATOM     82  H   LEU d   1      -1.646   4.141   3.130  0.00  0.00     0.028 H 
ENDBRANCH  77  79
BRANCH  77  83
ATOM     83  CD2 LEU d   1      -1.301   5.346   5.535  0.00  0.00    -0.073 C 
ATOM     84  H   LEU d   1      -1.295   6.386   5.208  0.00  0.00     0.028 H 
ATOM     85  H   LEU d   1      -1.299   5.307   6.624  0.00  0.00     0.028 H 
ATOM     86  H   LEU d   1      -0.417   4.838   5.151  0.00  0.00     0.028 H 
ENDBRANCH  77  83
ENDBRANCH  74  77
ENDBRANCH  31  74
ENDBRANCH  28  31
ENDBRANCH  25  27
BRANCH  25  87
ATOM     87  CB  LYS d   1      -4.329   3.383  10.333  0.00  0.00    -0.038 C 
ATOM     88  H   LYS d   1      -5.357   3.581  10.636  0.00  0.00     0.036 H 
ATOM     89  H   LYS d   1      -3.725   4.284  10.223  0.00  0.00     0.036 H 
BRANCH  87  90
ATOM     90  CG  LYS d   1      -3.689   2.535  11.419  0.00  0.00    -0.061 C 
ATOM     91  H   LYS d   1      -3.025   3.170  12.006  0.00  0.00     0.033 H 
ATOM     92  H   LYS d   1      -3.146   1.718  10.944  0.00  0.00     0.033 H 
BRANCH  90  93
ATOM     93  CD  LYS d   1      -4.734   1.940  12.351  0.00  0.00    -0.043 C 
ATOM     94  H   LYS d   1      -4.266   1.145  12.932  0.00  0.00     0.035 H 
ATOM     95  H   LYS d   1      -5.559   1.561  11.748  0.00  0.00     0.035 H 
BRANCH  93  96
ATOM     96  CE  LYS d   1      -5.279   2.982  13.313  0.00  0.00     0.080 C 
ATOM     97  H   LYS d   1      -6.305   2.713  13.563  0.00  0.00     0.075 H 
ATOM     98  H   LYS d   1      -5.220   3.957  12.829  0.00  0.00     0.075 H 
BRANCH  96  99
ATOM     99  NZ  LYS d   1      -4.491   3.039  14.576  0.00  0.00    -0.079 N 
ATOM    100  H   LYS d   1      -4.889   3.748  15.192  0.00  0.00     0.274 HD
ATOM    101  H   LYS d   1      -4.524   2.130  15.037  0.00  0.00     0.274 HD
ATOM    102  H   LYS d   1      -3.523   3.278  14.361  0.00  0.00     0.274 HD
ENDBRANCH  96  99
ENDBRANCH  93  96
ENDBRANCH  90  93
ENDBRANCH  87  90
ENDBRANCH  25  87
ENDBRANCH  22  25
ENDBRANCH  19  21
BRANCH  19 103
ATOM    103  CB  GLU d   1      -9.100   1.733   8.350  0.00  0.00    -0.029 C 
ATOM    104  H   GLU d   1      -9.833   0.975   8.074  0.00  0.00     0.037 H 
ATOM    105  H   GLU d   1      -8.921   2.473   7.570  0.00  0.00     0.037 H 
BRANCH 103 106
ATOM    106  CG  GLU d   1      -9.644   2.472   9.562  0.00  0.00     0.018 C 
ATOM    107  H   GLU d   1     -10.603   2.909   9.286  0.00  0.00     0.049 H 
ATOM    108  H   GLU d   1      -8.910   3.223   9.854  0.00  0.00     0.049 H 
BRANCH 106 109
ATOM    109  CD  GLU d   1      -9.873   1.556  10.749  0.00  0.00     0.172 C 
ATOM    110  OE1 GLU d   1      -9.989   0.330  10.539  0.00  0.00    -0.648 OA
ATOM    111  OE2 GLU d   1      -9.936   2.064  11.888  0.00  0.00    -0.648 OA
ENDBRANCH 106 109
ENDBRANCH 103 106
ENDBRANCH  19 103
ENDBRANCH  16  19
ENDBRANCH  13  15
BRANCH  13 112
ATOM    112  CB  VAL d   1      -6.535   0.164   3.969  0.00  0.00    -0.033 C 
ATOM    113  H   VAL d   1      -5.574   0.672   4.049  0.00  0.00     0.042 H 
BRANCH 112 114
ATOM    114  CG1 VAL d   1      -6.455  -0.827   2.818  0.00  0.00    -0.071 C 
ATOM    115  H   VAL d   1      -5.649  -1.537   3.007  0.00  0.00     0.028 H 
ATOM    116  H   VAL d   1      -7.401  -1.363   2.735  0.00  0.00     0.028 H 
ATOM    117  H   VAL d   1      -6.258  -0.289   1.891  0.00  0.00     0.028 H 
ENDBRANCH 112 114
BRANCH 112 118
ATOM    118  CG2 VAL d   1      -7.608   1.208   3.705  0.00  0.00    -0.071 C 
ATOM    119  H   VAL d   1      -8.581   0.720   3.644  0.00  0.00     0.028 H 
ATOM    120  H   VAL d   1      -7.615   1.934   4.518  0.00  0.00     0.028 H 
ATOM    121  H   VAL d   1      -7.395   1.716   2.764  0.00  0.00     0.028 H 
ENDBRANCH 112 118
ENDBRANCH  13 112
ENDBRANCH  10  13
ENDBRANCH   7   9
BRANCH   7 122
ATOM    122  CB  LEU d   1      -2.386  -0.929   7.340  0.00  0.00    -0.035 C 
ATOM    123  H   LEU d   1      -1.432  -1.379   7.066  0.00  0.00     0.037 H 
ATOM    124  H   LEU d   1      -2.614  -0.914   8.406  0.00  0.00     0.037 H 
BRANCH 122 125
ATOM    125  CG  LEU d   1      -2.319   0.532   6.892  0.00  0.00    -0.059 C 
ATOM    126  H   LEU d   1      -3.202   1.047   7.270  0.00  0.00     0.038 H 
BRANCH 125 127
ATOM    127  CD1 LEU d   1      -1.083   1.209   7.467  0.00  0.00    -0.073 C 
ATOM    128  H   LEU d   1      -1.124   1.173   8.556  0.00  0.00     0.028 H 
ATOM    129  H   LEU d   1      -0.190   0.690   7.118  0.00  0.00     0.028 H 
ATOM    130  H   LEU d   1      -1.053   2.248   7.137  0.00  0.00     0.028 H 
ENDBRANCH 125 127
BRANCH 125 131
ATOM    131  CD2 LEU d   1      -2.324   0.630   5.373  0.00  0.00    -0.073 C 
ATOM    132  H   LEU d   1      -1.461   0.098   4.973  0.00  0.00     0.028 H 
ATOM    133  H   LEU d   1      -3.239   0.183   4.984  0.00  0.00     0.028 H 
ATOM    134  H   LEU d   1      -2.276   1.678   5.078  0.00  0.00     0.028 H 
ENDBRANCH 125 131
ENDBRANCH 122 125
ENDBRANCH   7 122
ENDBRANCH   4   7
ENDBRANCH   1   3
BRANCH   1 135
ATOM    135  C   GLU d   1      -6.090  -4.544   8.926  0.00  0.00     0.241 C 
ATOM    136  O   GLU d   1      -6.085  -5.720   9.287  0.00  0.00    -0.271 OA
ATOM    137  N   ASP d   1      -6.867  -4.089   7.950  0.00  0.00    -0.346 N 
ATOM    138  H   ASP d   1      -6.824  -3.101   7.699  0.00  0.00     0.163 HD
BRANCH 137 139
ATOM    139  CA  ASP d   1      -7.780  -4.967   7.228  0.00  0.00     0.098 C 
ATOM    140  H   ASP d   1      -8.464  -5.417   7.948  0.00  0.00     0.088 H 
BRANCH 139 141
ATOM    141  C   ASP d   1      -7.009  -6.077   6.526  0.00  0.00     0.241 C 
ATOM    142  O   ASP d   1      -7.427  -7.235   6.521  0.00  0.00    -0.271 OA
ATOM    143  N   TYR d   1      -5.877  -5.714   5.936  0.00  0.00    -0.346 N 
ATOM    144  H   TYR d   1      -5.588  -4.737   5.976  0.00  0.00     0.163 HD
BRANCH 143 145
ATOM    145  CA  TYR d   1      -5.036  -6.674   5.233  0.00  0.00     0.093 C 
ATOM    146  H   TYR d   1      -5.662  -7.231   4.536  0.00  0.00     0.088 H 
BRANCH 145 147
ATOM    147  C   TYR d   1      -4.407  -7.658   6.212  0.00  0.00     0.241 C 
ATOM    148  O   TYR d   1      -4.527  -8.876   6.057  0.00  0.00    -0.271 OA
ATOM    149  N   LEU d   1      -3.741  -7.118   7.226  0.00  0.00    -0.346 N 
ATOM    150  H   LEU d   1      -3.684  -6.102   7.297  0.00  0.00     0.163 HD
BRANCH 149 151
ATOM    151  CA  LEU d   1      -3.089  -7.937   8.241  0.00  0.00     0.089 C 
ATOM    152  H   LEU d   1      -2.259  -8.462   7.769  0.00  0.00     0.087 H 
BRANCH 151 153
ATOM    153  C   LEU d   1      -4.055  -8.971   8.808  0.00  0.00     0.241 C 
ATOM    154  O   LEU d   1      -3.671 -10.105   9.090  0.00  0.00    -0.271 OA
ATOM    155  N   ARG d   1      -5.313  -8.573   8.960  0.00  0.00    -0.346 N 
ATOM    156  H   ARG d   1      -5.569  -7.619   8.707  0.00  0.00     0.163 HD
BRANCH 155 157
ATOM    157  CA  ARG d   1      -6.333  -9.472   9.480  0.00  0.00     0.089 C 
ATOM    158  H   ARG d   1      -5.904 -10.032  10.311  0.00  0.00     0.087 H 
BRANCH 157 159
ATOM    159  C   ARG d   1      -6.772 -10.453   8.405  0.00  0.00     0.241 C 
ATOM    160  O   ARG d   1      -7.027 -11.624   8.684  0.00  0.00    -0.271 OA
ATOM    161  N   LEU d   1      -6.834  -9.971   7.171  0.00  0.00    -0.346 N 
ATOM    162  H   LEU d   1      -6.608  -8.990   7.005  0.00  0.00     0.163 HD
BRANCH 161 163
ATOM    163  CA  LEU d   1      -7.218 -10.812   6.050  0.00  0.00     0.089 C 
ATOM    164  H   LEU d   1      -8.143 -11.329   6.306  0.00  0.00     0.087 H 
BRANCH 163 165
ATOM    165  C   LEU d   1      -6.134 -11.852   5.773  0.00  0.00     0.241 C 
ATOM    166  O   LEU d   1      -6.352 -12.804   5.021  0.00  0.00    -0.271 OA
ATOM    167  N   LYS d   1      -4.964 -11.667   6.386  0.00  0.00    -0.346 N 
ATOM    168  H   LYS d   1      -4.843 -10.858   6.995  0.00  0.00     0.163 HD
BRANCH 167 169
ATOM    169  CA  LYS d   1      -3.852 -12.595   6.205  0.00  0.00     0.089 C 
ATOM    170  H   LYS d   1      -3.827 -12.890   5.156  0.00  0.00     0.087 H 
BRANCH 169 171
ATOM    171  C   LYS d   1      -4.045 -13.844   7.058  0.00  0.00     0.241 C 
ATOM    172  O   LYS d   1      -4.420 -14.903   6.554  0.00  0.00    -0.271 OA
ATOM    173  N   LYS d   1      -3.785 -13.710   8.352  0.00  0.00    -0.345 N 
ATOM    174  H   LYS d   1      -3.477 -12.804   8.705  0.00  0.00     0.163 HD
BRANCH 173 175
ATOM    175  CA  LYS d   1      -3.928 -14.824   9.283  0.00  0.00     0.096 C 
ATOM    176  H   LYS d   1      -3.619 -14.482  10.271  0.00  0.00     0.089 H 
BRANCH 175 177
ATOM    177  C   LYS d   1      -3.032 -15.992   8.878  0.00  0.00     0.196 C 
ATOM    178  O   LYS d   1      -2.340 -15.873   7.844  0.00  0.00    -0.646 OA
ATOM    179  OXT LYS d   1      -3.031 -17.013   9.596  0.00  0.00    -0.646 OA
ENDBRANCH 175 177
BRANCH 175 180
ATOM    180  CB  LYS d   1      -5.388 -15.278   9.348  0.00  0.00    -0.037 C 
ATOM    181  H   LYS d   1      -5.399 -16.361   9.229  0.00  0.00     0.036 H 
ATOM    182  H   LYS d   1      -5.931 -14.748   8.566  0.00  0.00     0.036 H 
BRANCH 180 183
ATOM    183  CG  LYS d   1      -6.066 -14.958  10.670  0.00  0.00    -0.061 C 
ATOM    184  H   LYS d   1      -6.244 -13.883  10.716  0.00  0.00     0.033 H 
ATOM    185  H   LYS d   1      -5.417 -15.291  11.480  0.00  0.00     0.033 H 
BRANCH 183 186
ATOM    186  CD  LYS d   1      -7.401 -15.672  10.799  0.00  0.00    -0.043 C 
ATOM    187  H   LYS d   1      -7.241 -16.609  11.333  0.00  0.00     0.035 H 
ATOM    188  H   LYS d   1      -7.798 -15.845   9.799  0.00  0.00     0.035 H 
BRANCH 186 189
ATOM    189  CE  LYS d   1      -8.406 -14.839  11.579  0.00  0.00     0.080 C 
ATOM    190  H   LYS d   1      -7.936 -14.517  12.508  0.00  0.00     0.075 H 
ATOM    191  H   LYS d   1      -9.289 -15.451  11.762  0.00  0.00     0.075 H 
BRANCH 189 192
ATOM    192  NZ  LYS d   1      -8.826 -13.627  10.824  0.00  0.00    -0.079 N 
ATOM    193  H   LYS d   1      -9.498 -13.098  11.380  0.00  0.00     0.274 HD
ATOM    194  H   LYS d   1      -8.009 -13.047  10.633  0.00  0.00     0.274 HD
ATOM    195  H   LYS d   1      -9.258 -13.909   9.944  0.00  0.00     0.274 HD
ENDBRANCH 189 192
ENDBRANCH 186 189
ENDBRANCH 183 186
ENDBRANCH 180 183
ENDBRANCH 175 180
ENDBRANCH 173 175
ENDBRANCH 169 171
BRANCH 169 196
ATOM    196  CB  LYS d   1      -2.526 -11.919   6.562  0.00  0.00    -0.038 C 
ATOM    197  H   LYS d   1      -1.763 -12.697   6.591  0.00  0.00     0.036 H 
ATOM    198  H   LYS d   1      -2.670 -11.405   7.513  0.00  0.00     0.036 H 
BRANCH 196 199
ATOM    199  CG  LYS d   1      -2.071 -10.877   5.549  0.00  0.00    -0.061 C 
ATOM    200  H   LYS d   1      -1.032 -10.625   5.761  0.00  0.00     0.033 H 
ATOM    201  H   LYS d   1      -2.724 -10.008   5.634  0.00  0.00     0.033 H 
BRANCH 199 202
ATOM    202  CD  LYS d   1      -2.155 -11.400   4.124  0.00  0.00    -0.043 C 
ATOM    203  H   LYS d   1      -3.127 -11.128   3.713  0.00  0.00     0.035 H 
ATOM    204  H   LYS d   1      -2.018 -12.481   4.145  0.00  0.00     0.035 H 
BRANCH 202 205
ATOM    205  CE  LYS d   1      -1.073 -10.794   3.242  0.00  0.00     0.080 C 
ATOM    206  H   LYS d   1      -0.115 -10.910   3.748  0.00  0.00     0.075 H 
ATOM    207  H   LYS d   1      -1.319  -9.746   3.071  0.00  0.00     0.075 H 
BRANCH 205 208
ATOM    208  NZ  LYS d   1      -0.988 -11.474   1.921  0.00  0.00    -0.079 N 
ATOM    209  H   LYS d   1      -0.254 -11.039   1.363  0.00  0.00     0.274 HD
ATOM    210  H   LYS d   1      -0.771 -12.461   2.061  0.00  0.00     0.274 HD
ATOM    211  H   LYS d   1      -1.881 -11.387   1.437  0.00  0.00     0.274 HD
ENDBRANCH 205 208
ENDBRANCH 202 205
ENDBRANCH 199 202
ENDBRANCH 196 199
ENDBRANCH 169 196
ENDBRANCH 167 169
ENDBRANCH 163 165
BRANCH 163 212
ATOM    212  CB  LEU d   1      -7.465  -9.960   4.801  0.00  0.00    -0.035 C 
ATOM    213  H   LEU d   1      -6.902 -10.421   3.989  0.00  0.00     0.037 H 
ATOM    214  H   LEU d   1      -7.164  -8.942   5.049  0.00  0.00     0.037 H 
BRANCH 212 215
ATOM    215  CG  LEU d   1      -8.924  -9.891   4.345  0.00  0.00    -0.059 C 
ATOM    216  H   LEU d   1      -9.440 -10.780   4.708  0.00  0.00     0.038 H 
BRANCH 215 217
ATOM    217  CD1 LEU d   1      -9.610  -8.668   4.932  0.00  0.00    -0.073 C 
ATOM    218  H   LEU d   1      -9.582  -8.724   6.020  0.00  0.00     0.028 H 
ATOM    219  H   LEU d   1      -9.092  -7.768   4.600  0.00  0.00     0.028 H 
ATOM    220  H   LEU d   1     -10.646  -8.638   4.596  0.00  0.00     0.028 H 
ENDBRANCH 215 217
BRANCH 215 221
ATOM    221  CD2 LEU d   1      -9.009  -9.877   2.825  0.00  0.00    -0.073 C 
ATOM    222  H   LEU d   1      -8.476  -9.007   2.441  0.00  0.00     0.028 H 
ATOM    223  H   LEU d   1      -8.557 -10.786   2.429  0.00  0.00     0.028 H 
ATOM    224  H   LEU d   1     -10.055  -9.828   2.521  0.00  0.00     0.028 H 
ENDBRANCH 215 221
ENDBRANCH 212 215
ENDBRANCH 163 212
ENDBRANCH 161 163
ENDBRANCH 157 159
BRANCH 157 225
ATOM    225  CB  ARG d   1      -7.536  -8.681   9.999  0.00  0.00    -0.036 C 
ATOM    226  H   ARG d   1      -8.413  -9.321   9.902  0.00  0.00     0.036 H 
ATOM    227  H   ARG d   1      -7.598  -7.762   9.416  0.00  0.00     0.036 H 
BRANCH 225 228
ATOM    228  CG  ARG d   1      -7.421  -8.285  11.461  0.00  0.00    -0.048 C 
ATOM    229  H   ARG d   1      -8.261  -7.637  11.711  0.00  0.00     0.035 H 
ATOM    230  H   ARG d   1      -6.468  -7.777  11.607  0.00  0.00     0.035 H 
BRANCH 228 231
ATOM    231  CD  ARG d   1      -7.463  -9.501  12.372  0.00  0.00     0.009 C 
ATOM    232  H   ARG d   1      -6.541 -10.065  12.230  0.00  0.00     0.064 H 
ATOM    233  H   ARG d   1      -8.345 -10.088  12.116  0.00  0.00     0.064 H 
BRANCH 231 234
ATOM    234  NE  ARG d   1      -7.557  -9.127  13.783  0.00  0.00    -0.227 N 
ATOM    235  CZ  ARG d   1      -8.687  -8.742  14.374  0.00  0.00     0.665 C 
ATOM    236  NH1 ARG d   1      -9.818  -8.685  13.683  0.00  0.00    -0.235 N 
ATOM    237  NH2 ARG d   1      -8.684  -8.418  15.659  0.00  0.00    -0.235 N 
ATOM    238  H   ARG d   1      -9.825  -8.937  12.694  0.00  0.00     0.174 HD
ATOM    239  H   ARG d   1     -10.681  -8.390  14.140  0.00  0.00     0.174 HD
ATOM    240  H   ARG d   1      -7.817  -8.464  16.194  0.00  0.00     0.174 HD
ATOM    241  H   ARG d   1      -9.549  -8.123  16.113  0.00  0.00     0.174 HD
ATOM    242  H   ARG d   1      -6.708  -9.163  14.347  0.00  0.00     0.177 HD
ENDBRANCH 231 234
ENDBRANCH 228 231
ENDBRANCH 225 228
ENDBRANCH 157 225
ENDBRANCH 155 157
ENDBRANCH 151 153
BRANCH 151 243
ATOM    243  CB  LEU d   1      -2.545  -7.057   9.368  0.00  0.00    -0.035 C 
ATOM    244  H   LEU d   1      -2.365  -7.712  10.220  0.00  0.00     0.037 H 
ATOM    245  H   LEU d   1      -3.282  -6.272   9.538  0.00  0.00     0.037 H 
BRANCH 243 246
ATOM    246  CG  LEU d   1      -1.219  -6.359   9.060  0.00  0.00    -0.059 C 
ATOM    247  H   LEU d   1      -1.234  -6.029   8.021  0.00  0.00     0.038 H 
BRANCH 246 248
ATOM    248  CD1 LEU d   1      -1.042  -5.136   9.947  0.00  0.00    -0.073 C 
ATOM    249  H   LEU d   1      -1.860  -4.438   9.769  0.00  0.00     0.028 H 
ATOM    250  H   LEU d   1      -1.046  -5.444  10.993  0.00  0.00     0.028 H 
ATOM    251  H   LEU d   1      -0.093  -4.653   9.713  0.00  0.00     0.028 H 
ENDBRANCH 246 248
BRANCH 246 252
ATOM    252  CD2 LEU d   1      -0.057  -7.324   9.240  0.00  0.00    -0.073 C 
ATOM    253  H   LEU d   1      -0.040  -7.682  10.270  0.00  0.00     0.028 H 
ATOM    254  H   LEU d   1      -0.180  -8.169   8.562  0.00  0.00     0.028 H 
ATOM    255  H   LEU d   1       0.878  -6.810   9.017  0.00  0.00     0.028 H 
ENDBRANCH 246 252
ENDBRANCH 243 246
ENDBRANCH 151 243
ENDBRANCH 149 151
ENDBRANCH 145 147
BRANCH 145 256
ATOM    256  CB  TYR d   1      -3.942  -5.945   4.448  0.00  0.00    -0.014 C 
ATOM    257  H   TYR d   1      -2.999  -6.451   4.657  0.00  0.00     0.043 H 
ATOM    258  H   TYR d   1      -3.957  -4.901   4.760  0.00  0.00     0.043 H 
BRANCH 256 259
ATOM    259  CG  TYR d   1      -4.148  -5.972   2.951  0.00  0.00    -0.056 A 
ATOM    260  CD1 TYR d   1      -4.118  -7.169   2.248  0.00  0.00    -0.074 A 
ATOM    261  CE1 TYR d   1      -4.305  -7.198   0.879  0.00  0.00    -0.051 A 
ATOM    262  H   TYR d   1      -3.944  -8.101   2.785  0.00  0.00     0.084 H 
ATOM    263  CZ  TYR d   1      -4.527  -6.020   0.195  0.00  0.00     0.065 A 
ATOM    264  H   TYR d   1      -4.277  -8.146   0.342  0.00  0.00     0.087 H 
ATOM    265  CE2 TYR d   1      -4.563  -4.819   0.872  0.00  0.00    -0.051 A 
ATOM    266  CD2 TYR d   1      -4.374  -4.799   2.240  0.00  0.00    -0.074 A 
ATOM    267  H   TYR d   1      -4.740  -3.890   0.330  0.00  0.00     0.087 H 
ATOM    268  H   TYR d   1      -4.402  -3.848   2.771  0.00  0.00     0.084 H 
BRANCH 263 269
ATOM    269  OH  TYR d   1      -4.714  -6.044  -1.168  0.00  0.00    -0.361 OA
ATOM    270  H   TYR d   1      -4.659  -6.950  -1.482  0.00  0.00     0.217 HD
ENDBRANCH 263 269
ENDBRANCH 256 259
ENDBRANCH 145 256
ENDBRANCH 143 145
ENDBRANCH 139 141
BRANCH 139 271
ATOM    271  CB  ASP d   1      -8.593  -4.168   6.207  0.00  0.00     0.043 C 
ATOM    272  H   ASP d   1      -8.864  -4.840   5.392  0.00  0.00     0.052 H 
ATOM    273  H   ASP d   1      -7.982  -3.331   5.870  0.00  0.00     0.052 H 
BRANCH 271 274
ATOM    274  CG  ASP d   1      -9.872  -3.607   6.797  0.00  0.00     0.175 C 
ATOM    275  OD1 ASP d   1     -10.434  -4.246   7.711  0.00  0.00    -0.648 OA
ATOM    276  OD2 ASP d   1     -10.312  -2.530   6.344  0.00  0.00    -0.648 OA
ENDBRANCH 271 274
ENDBRANCH 139 271
ENDBRANCH 137 139
ENDBRANCH   1 135
BRANCH   1 277
ATOM    277  CB  GLU d   1      -5.929  -2.810  10.723  0.00  0.00    -0.029 C 
ATOM    278  H   GLU d   1      -6.928  -2.573  10.357  0.00  0.00     0.037 H 
ATOM    279  H   GLU d   1      -5.348  -1.931  11.000  0.00  0.00     0.037 H 
BRANCH 277 280
ATOM    280  CG  GLU d   1      -6.090  -3.664  11.971  0.00  0.00     0.018 C 
ATOM    281  H   GLU d   1      -6.128  -4.708  11.660  0.00  0.00     0.049 H 
ATOM    282  H   GLU d   1      -6.999  -3.345  12.481  0.00  0.00     0.049 H 
BRANCH 280 283
ATOM    283  CD  GLU d   1      -4.933  -3.507  12.938  0.00  0.00     0.172 C 
ATOM    284  OE1 GLU d   1      -3.861  -4.096  12.682  0.00  0.00    -0.648 OA
ATOM    285  OE2 GLU d   1      -5.099  -2.797  13.952  0.00  0.00    -0.648 OA
ENDBRANCH 280 283
ENDBRANCH 277 280
ENDBRANCH   1 277
TORSDOF 87
