REMARK WARNING: 32 MAX_TORS EXCEEDED!!!
REMARK  42 active torsions:
REMARK  status: ('A' for Active; 'I' for Inactive)
REMARK    1  A    between atoms: N_1  and  CA_2 
REMARK    2  A    between atoms: CA_2  and  C_3 
REMARK    3  A    between atoms: CA_2  and  CB_5 
REMARK       I    between atoms: C_3  and  N_6 
REMARK    4  A    between atoms: N_6  and  CA_7 
REMARK    5  A    between atoms: CA_7  and  C_8 
REMARK    6  A    between atoms: CA_7  and  CB_10 
REMARK       I    between atoms: C_8  and  N_14 
REMARK    7  A    between atoms: CB_10  and  CG_11 
REMARK    8  A    between atoms: N_14  and  CA_15 
REMARK    9  A    between atoms: CA_15  and  C_16 
REMARK   10  A    between atoms: CA_15  and  CB_18 
REMARK       I    between atoms: C_16  and  N_21 
REMARK   11  A    between atoms: CB_18  and  OG1_19 
REMARK   12  A    between atoms: CB_18  and  CG2_20 
REMARK   13  A    between atoms: N_21  and  CA_22 
REMARK   14  A    between atoms: CA_22  and  C_23 
REMARK   15  A    between atoms: CA_22  and  CB_25 
REMARK       I    between atoms: C_23  and  N_30 
REMARK   16  A    between atoms: CB_25  and  CG_26 
REMARK   17  A    between atoms: CG_26  and  CD_27 
REMARK   18  A    between atoms: N_30  and  CA_31 
REMARK   19  A    between atoms: CA_31  and  C_32 
REMARK   20  A    between atoms: CA_31  and  CB_34 
REMARK       I    between atoms: C_32  and  N_38 
REMARK   21  A    between atoms: CB_34  and  CG_35 
REMARK   22  A    between atoms: CG_35  and  SD_36 
REMARK   23  A    between atoms: SD_36  and  CE_37 
REMARK   24  A    between atoms: N_38  and  CA_39 
REMARK   25  A    between atoms: CA_39  and  C_40 
REMARK   26  A    between atoms: CA_39  and  CB_42 
REMARK       I    between atoms: C_40  and  N_47 
REMARK   27  A    between atoms: CB_42  and  CG_43 
REMARK   28  A    between atoms: CG_43  and  CD_44 
REMARK   29  A    between atoms: N_47  and  CA_48 
REMARK   30  A    between atoms: CA_48  and  C_49 
REMARK   31  A    between atoms: CA_48  and  CB_51 
REMARK       I    between atoms: C_49  and  N_56 
REMARK   32  A    between atoms: CB_51  and  CG_52 
REMARK   33  A    between atoms: CG_52  and  CD_53 
REMARK   34  A    between atoms: N_56  and  CA_57 
REMARK   35  A    between atoms: CA_57  and  C_58 
REMARK   36  A    between atoms: CA_57  and  CB_60 
REMARK       I    between atoms: C_58  and  N_63 
REMARK   37  A    between atoms: CB_60  and  CG1_61 
REMARK   38  A    between atoms: CB_60  and  CG2_62 
REMARK   39  A    between atoms: N_63  and  CA_64 
REMARK   40  A    between atoms: CA_64  and  C_65 
REMARK   41  A    between atoms: CA_64  and  CB_67 
REMARK   42  A    between atoms: CB_67  and  CG_68 
ROOT
ATOM      1  CA  MET d   1      13.148  13.095 -12.797  0.00  0.00     0.090 C 
ATOM      2  H26 MET d   1      12.533  12.418 -12.186  0.00  0.00     0.087 H 
ENDROOT
BRANCH   1   3
ATOM      3  N   MET d   1      14.239  13.621 -11.993  0.00  0.00    -0.346 N 
ATOM      4  C   GLU d   1      15.180  12.915 -11.346  0.00  0.00     0.241 C 
ATOM      5  O   GLU d   1      15.234  11.690 -11.370  0.00  0.00    -0.271 OA
ATOM      6  H25 MET d   1      14.295  14.616 -11.913  0.00  0.00     0.163 HD
BRANCH   4   7
ATOM      7  CA  GLU d   1      16.212  13.733 -10.564  0.00  0.00     0.090 C 
ATOM      8  H20 GLU d   1      17.226  13.402 -10.832  0.00  0.00     0.087 H 
BRANCH   7   9
ATOM      9  N   GLU d   1      16.008  15.100 -10.992  0.00  0.00    -0.346 N 
ATOM     10  C   THR d   1      16.878  15.791 -11.723  0.00  0.00     0.243 C 
ATOM     11  O   THR d   1      18.076  15.531 -11.813  0.00  0.00    -0.271 OA
ATOM     12  H19 GLU d   1      15.159  15.554 -10.721  0.00  0.00     0.163 HD
BRANCH  10  13
ATOM     13  CA  THR d   1      16.238  16.954 -12.454  0.00  0.00     0.113 C 
ATOM     14  H13 THR d   1      15.375  17.329 -11.885  0.00  0.00     0.091 H 
BRANCH  13  15
ATOM     15  N   THR d   1      17.149  18.059 -12.712  0.00  0.00    -0.344 N 
ATOM     16  C   ASP d   1      16.745  19.331 -12.757  0.00  0.00     0.241 C 
ATOM     17  O   ASP d   1      15.600  19.673 -12.461  0.00  0.00    -0.271 OA
ATOM     18  H12 THR d   1      18.117  17.858 -12.862  0.00  0.00     0.163 HD
BRANCH  16  19
ATOM     19  CA  ASP d   1      17.779  20.361 -13.206  0.00  0.00     0.098 C 
ATOM     20  H9  ASP d   1      18.268  20.785 -12.316  0.00  0.00     0.088 H 
BRANCH  19  21
ATOM     21  N   ASP d   1      18.783  19.711 -14.037  0.00  0.00    -0.346 N 
ATOM     22  C   ALA d   1      20.081  20.018 -14.017  0.00  0.00     0.248 C 
ATOM     23  O   ALA d   1      20.555  20.867 -13.262  0.00  0.00    -0.271 OA
ATOM     24  H8  ASP d   1      18.481  18.990 -14.661  0.00  0.00     0.163 HD
BRANCH  22  25
ATOM     25  CA  ALA d   1      20.979  19.256 -14.986  0.00  0.00     0.172 C 
ATOM     26  H4  ALA d   1      20.641  19.473 -16.010  0.00  0.00     0.098 H 
BRANCH  25  27
ATOM     27  N   ALA d   1      22.379  19.702 -14.864  0.00  0.00    -0.067 N 
ATOM     28  H1  ALA d   1      22.954  19.186 -15.512  0.00  0.00     0.275 HD
ATOM     29  H2  ALA d   1      22.703  19.538 -13.924  0.00  0.00     0.275 HD
ATOM     30  H3  ALA d   1      22.438  20.686 -15.073  0.00  0.00     0.275 HD
ENDBRANCH  25  27
BRANCH  25  31
ATOM     31  CB  ALA d   1      20.858  17.747 -14.756  0.00  0.00    -0.042 C 
ATOM     32  H5  ALA d   1      19.805  17.445 -14.853  0.00  0.00     0.030 H 
ATOM     33  H6  ALA d   1      21.219  17.500 -13.747  0.00  0.00     0.030 H 
ATOM     34  H7  ALA d   1      21.463  17.212 -15.503  0.00  0.00     0.030 H 
ENDBRANCH  25  31
ENDBRANCH  22  25
ENDBRANCH  19  21
BRANCH  19  35
ATOM     35  CB  ASP d   1      17.115  21.496 -13.993  0.00  0.00     0.043 C 
ATOM     36  H10 ASP d   1      16.323  21.943 -13.374  0.00  0.00     0.052 H 
ATOM     37  H11 ASP d   1      16.673  21.082 -14.911  0.00  0.00     0.052 H 
BRANCH  35  38
ATOM     38  CG  ASP d   1      18.119  22.582 -14.373  0.00  0.00     0.175 C 
ATOM     39  OD1 ASP d   1      18.354  23.473 -13.524  0.00  0.00    -0.648 OA
ATOM     40  OD2 ASP d   1      18.648  22.516 -15.507  0.00  0.00    -0.648 OA
ENDBRANCH  35  38
ENDBRANCH  19  35
ENDBRANCH  16  19
ENDBRANCH  13  15
BRANCH  13  41
ATOM     41  CB  THR d   1      15.791  16.331 -13.787  0.00  0.00     0.060 C 
ATOM     42  H14 THR d   1      15.363  15.342 -13.564  0.00  0.00     0.086 H 
BRANCH  41  43
ATOM     43  OG1 THR d   1      16.908  16.162 -14.641  0.00  0.00    -0.393 OA
ATOM     44  H15 THR d   1      17.540  15.589 -14.224  0.00  0.00     0.210 HD
ENDBRANCH  41  43
BRANCH  41  45
ATOM     45  CG2 THR d   1      14.740  17.138 -14.532  0.00  0.00    -0.050 C 
ATOM     46  H16 THR d   1      14.479  16.624 -15.469  0.00  0.00     0.031 H 
ATOM     47  H17 THR d   1      15.139  18.137 -14.761  0.00  0.00     0.031 H 
ATOM     48  H18 THR d   1      13.841  17.237 -13.905  0.00  0.00     0.031 H 
ENDBRANCH  41  45
ENDBRANCH  13  41
ENDBRANCH  10  13
ENDBRANCH   7   9
BRANCH   7  49
ATOM     49  CB  GLU d   1      16.046  13.606  -9.047  0.00  0.00    -0.029 C 
ATOM     50  H21 GLU d   1      16.773  14.265  -8.551  0.00  0.00     0.037 H 
ATOM     51  H22 GLU d   1      16.236  12.563  -8.752  0.00  0.00     0.037 H 
BRANCH  49  52
ATOM     52  CG  GLU d   1      14.637  13.999  -8.606  0.00  0.00     0.018 C 
ATOM     53  H23 GLU d   1      13.911  13.321  -9.078  0.00  0.00     0.049 H 
ATOM     54  H24 GLU d   1      14.435  15.032  -8.926  0.00  0.00     0.049 H 
BRANCH  52  55
ATOM     55  CD  GLU d   1      14.492  13.909  -7.091  0.00  0.00     0.172 C 
ATOM     56  OE1 GLU d   1      14.295  12.773  -6.596  0.00  0.00    -0.648 OA
ATOM     57  OE2 GLU d   1      14.577  14.969  -6.434  0.00  0.00    -0.648 OA
ENDBRANCH  52  55
ENDBRANCH  49  52
ENDBRANCH   7  49
ENDBRANCH   4   7
ENDBRANCH   1   3
BRANCH   1  58
ATOM     58  C   MET d   1      13.663  12.359 -14.022  0.00  0.00     0.241 C 
ATOM     59  O   MET d   1      12.929  11.582 -14.635  0.00  0.00    -0.271 OA
ATOM     60  N   GLU d   1      14.924  12.609 -14.369  0.00  0.00    -0.346 N 
ATOM     61  H34 GLU d   1      15.469  13.202 -13.776  0.00  0.00     0.163 HD
BRANCH  60  62
ATOM     62  CA  GLU d   1      15.550  12.069 -15.558  0.00  0.00     0.090 C 
ATOM     63  H35 GLU d   1      14.856  11.360 -16.033  0.00  0.00     0.087 H 
BRANCH  62  64
ATOM     64  C   GLU d   1      16.792  11.275 -15.138  0.00  0.00     0.241 C 
ATOM     65  O   GLU d   1      17.720  11.049 -15.911  0.00  0.00    -0.271 OA
ATOM     66  N   GLU d   1      16.778  10.850 -13.871  0.00  0.00    -0.346 N 
ATOM     67  H40 GLU d   1      16.063  11.216 -13.275  0.00  0.00     0.163 HD
BRANCH  66  68
ATOM     68  CA  GLU d   1      17.711   9.903 -13.283  0.00  0.00     0.090 C 
ATOM     69  H41 GLU d   1      18.496   9.642 -14.008  0.00  0.00     0.087 H 
BRANCH  68  70
ATOM     70  C   GLU d   1      16.888   8.665 -12.933  0.00  0.00     0.241 C 
ATOM     71  O   GLU d   1      15.656   8.708 -12.982  0.00  0.00    -0.271 OA
ATOM     72  N   VAL d   1      17.529   7.550 -12.581  0.00  0.00    -0.346 N 
ATOM     73  H46 VAL d   1      18.503   7.576 -12.357  0.00  0.00     0.163 HD
BRANCH  72  74
ATOM     74  CA  VAL d   1      16.794   6.293 -12.526  0.00  0.00     0.092 C 
ATOM     75  H47 VAL d   1      15.936   6.406 -13.205  0.00  0.00     0.088 H 
BRANCH  74  76
ATOM     76  C   VAL d   1      16.201   5.968 -11.155  0.00  0.00     0.241 C 
ATOM     77  O   VAL d   1      14.978   5.895 -11.034  0.00  0.00    -0.271 OA
ATOM     78  N   ASP d   1      17.023   5.771 -10.123  0.00  0.00    -0.344 N 
ATOM     79  H55 ASP d   1      18.006   5.895 -10.257  0.00  0.00     0.163 HD
BRANCH  78  80
ATOM     80  CA  ASP d   1      16.534   5.381  -8.806  0.00  0.00     0.105 C 
ATOM     81  H56 ASP d   1      15.620   4.786  -8.945  0.00  0.00     0.090 H 
BRANCH  80  82
ATOM     82  C   ASP d   1      16.183   6.600  -7.950  0.00  0.00     0.197 C 
ATOM     83  O   ASP d   1      15.689   6.392  -6.821  0.00  0.00    -0.646 OA
ATOM     84  OXT ASP d   1      16.410   7.736  -8.431  0.00  0.00    -0.646 OA
ENDBRANCH  80  82
BRANCH  80  85
ATOM     85  CB  ASP d   1      17.568   4.514  -8.080  0.00  0.00     0.044 C 
ATOM     86  H57 ASP d   1      17.692   3.574  -8.638  0.00  0.00     0.053 H 
ATOM     87  H58 ASP d   1      17.194   4.294  -7.069  0.00  0.00     0.053 H 
BRANCH  85  88
ATOM     88  CG  ASP d   1      18.934   5.195  -7.959  0.00  0.00     0.175 C 
ATOM     89  OD1 ASP d   1      19.580   5.404  -9.009  0.00  0.00    -0.648 OA
ATOM     90  OD2 ASP d   1      19.318   5.502  -6.808  0.00  0.00    -0.648 OA
ENDBRANCH  85  88
ENDBRANCH  80  85
ENDBRANCH  78  80
ENDBRANCH  74  76
BRANCH  74  91
ATOM     91  CB  VAL d   1      17.651   5.154 -13.086  0.00  0.00    -0.033 C 
ATOM     92  H48 VAL d   1      16.976   4.319 -13.325  0.00  0.00     0.042 H 
BRANCH  91  93
ATOM     93  CG1 VAL d   1      18.350   5.612 -14.362  0.00  0.00    -0.071 C 
ATOM     94  H49 VAL d   1      18.964   4.790 -14.759  0.00  0.00     0.028 H 
ATOM     95  H50 VAL d   1      18.994   6.475 -14.138  0.00  0.00     0.028 H 
ATOM     96  H51 VAL d   1      17.596   5.901 -15.109  0.00  0.00     0.028 H 
ENDBRANCH  91  93
BRANCH  91  97
ATOM     97  CG2 VAL d   1      18.731   4.632 -12.146  0.00  0.00    -0.071 C 
ATOM     98  H52 VAL d   1      18.267   4.290 -11.209  0.00  0.00     0.028 H 
ATOM     99  H53 VAL d   1      19.448   5.437 -11.928  0.00  0.00     0.028 H 
ATOM    100  H54 VAL d   1      19.257   3.792 -12.623  0.00  0.00     0.028 H 
ENDBRANCH  91  97
ENDBRANCH  74  91
ENDBRANCH  72  74
ENDBRANCH  68  70
BRANCH  68 101
ATOM    101  CB  GLU d   1      18.358  10.506 -12.033  0.00  0.00    -0.029 C 
ATOM    102  H42 GLU d   1      18.966   9.734 -11.539  0.00  0.00     0.037 H 
ATOM    103  H43 GLU d   1      17.565  10.843 -11.349  0.00  0.00     0.037 H 
BRANCH 101 104
ATOM    104  CG  GLU d   1      19.255  11.698 -12.377  0.00  0.00     0.018 C 
ATOM    105  H44 GLU d   1      19.632  12.139 -11.443  0.00  0.00     0.049 H 
ATOM    106  H45 GLU d   1      18.658  12.445 -12.920  0.00  0.00     0.049 H 
BRANCH 104 107
ATOM    107  CD  GLU d   1      20.443  11.293 -13.244  0.00  0.00     0.172 C 
ATOM    108  OE1 GLU d   1      20.914  10.140 -13.097  0.00  0.00    -0.648 OA
ATOM    109  OE2 GLU d   1      20.883  12.139 -14.053  0.00  0.00    -0.648 OA
ENDBRANCH 104 107
ENDBRANCH 101 104
ENDBRANCH  68 101
ENDBRANCH  66  68
ENDBRANCH  62  64
BRANCH  62 110
ATOM    110  CB  GLU d   1      15.774  13.217 -16.549  0.00  0.00    -0.029 C 
ATOM    111  H36 GLU d   1      16.600  13.849 -16.191  0.00  0.00     0.037 H 
ATOM    112  H37 GLU d   1      14.856  13.819 -16.621  0.00  0.00     0.037 H 
BRANCH 110 113
ATOM    113  CG  GLU d   1      16.125  12.664 -17.934  0.00  0.00     0.018 C 
ATOM    114  H38 GLU d   1      15.368  11.919 -18.219  0.00  0.00     0.049 H 
ATOM    115  H39 GLU d   1      17.113  12.182 -17.883  0.00  0.00     0.049 H 
BRANCH 113 116
ATOM    116  CD  GLU d   1      16.166  13.755 -19.001  0.00  0.00     0.172 C 
ATOM    117  OE1 GLU d   1      16.802  14.805 -18.751  0.00  0.00    -0.648 OA
ATOM    118  OE2 GLU d   1      15.554  13.525 -20.071  0.00  0.00    -0.648 OA
ENDBRANCH 113 116
ENDBRANCH 110 113
ENDBRANCH  62 110
ENDBRANCH  60  62
ENDBRANCH   1  58
BRANCH   1 119
ATOM    119  CB  MET d   1      12.304  14.277 -13.305  0.00  0.00    -0.030 C 
ATOM    120  H27 MET d   1      11.378  13.869 -13.737  0.00  0.00     0.037 H 
ATOM    121  H28 MET d   1      12.880  14.789 -14.090  0.00  0.00     0.037 H 
BRANCH 119 122
ATOM    122  CG  MET d   1      11.911  15.321 -12.255  0.00  0.00    -0.021 C 
ATOM    123  H29 MET d   1      11.799  16.289 -12.765  0.00  0.00     0.049 H 
ATOM    124  H30 MET d   1      12.727  15.386 -11.520  0.00  0.00     0.049 H 
BRANCH 122 125
ATOM    125  SD  MET d   1      10.378  14.982 -11.358  0.00  0.00    -0.173 SA
BRANCH 125 126
ATOM    126  CE  MET d   1      10.729  13.273 -10.914  0.00  0.00    -0.035 C 
ATOM    127  H31 MET d   1       9.886  12.863 -10.339  0.00  0.00     0.041 H 
ATOM    128  H32 MET d   1      11.643  13.233 -10.303  0.00  0.00     0.041 H 
ATOM    129  H33 MET d   1      10.873  12.679 -11.828  0.00  0.00     0.041 H 
ENDBRANCH 125 126
ENDBRANCH 122 125
ENDBRANCH 119 122
ENDBRANCH   1 119
TORSDOF 42
