REMARK WARNING: 32 MAX_TORS EXCEEDED!!!
REMARK  39 active torsions:
REMARK  status: ('A' for Active; 'I' for Inactive)
REMARK    1  A    between atoms: N_1  and  CA_2 
REMARK    2  A    between atoms: CA_2  and  C_3 
REMARK    3  A    between atoms: CA_2  and  CB_5 
REMARK       I    between atoms: C_3  and  N_7 
REMARK    4  A    between atoms: CB_5  and  OG_6 
REMARK    5  A    between atoms: CA_8  and  C_9 
REMARK       I    between atoms: C_9  and  N_14 
REMARK    6  A    between atoms: CA_15  and  C_16 
REMARK       I    between atoms: C_16  and  N_21 
REMARK    7  A    between atoms: CA_22  and  C_23 
REMARK       I    between atoms: C_23  and  N_28 
REMARK    8  A    between atoms: CA_29  and  C_30 
REMARK       I    between atoms: C_30  and  N_35 
REMARK    9  A    between atoms: N_35  and  CA_36 
REMARK   10  A    between atoms: CA_36  and  C_37 
REMARK   11  A    between atoms: CA_36  and  CB_39 
REMARK       I    between atoms: C_37  and  N_47 
REMARK   12  A    between atoms: CB_39  and  CG_40 
REMARK   13  A    between atoms: CZ_45  and  OH_46 
REMARK   14  A    between atoms: N_47  and  CA_48 
REMARK   15  A    between atoms: CA_48  and  C_49 
REMARK   16  A    between atoms: CA_48  and  CB_51 
REMARK       I    between atoms: C_49  and  N_53 
REMARK   17  A    between atoms: CB_51  and  OG_52 
REMARK   18  A    between atoms: N_53  and  CA_54 
REMARK   19  A    between atoms: CA_54  and  C_55 
REMARK   20  A    between atoms: CA_54  and  CB_57 
REMARK       I    between atoms: C_55  and  N_64 
REMARK   21  A    between atoms: CB_57  and  CG_58 
REMARK   22  A    between atoms: CG_58  and  CD_59 
REMARK   23  A    between atoms: CD_59  and  NE_60 
REMARK       I    between atoms: NE_60  and  CZ_61 
REMARK       I    between atoms: CZ_61  and  NH1_62 
REMARK   24  A    between atoms: N_64  and  CA_65 
REMARK   25  A    between atoms: CA_65  and  C_66 
REMARK   26  A    between atoms: CA_65  and  CB_68 
REMARK       I    between atoms: C_66  and  N_76 
REMARK   27  A    between atoms: CB_68  and  CG_69 
REMARK   28  A    between atoms: CZ_74  and  OH_75 
REMARK   29  A    between atoms: CA_77  and  C_78 
REMARK       I    between atoms: C_78  and  N_83 
REMARK   30  A    between atoms: N_83  and  CA_84 
REMARK   31  A    between atoms: CA_84  and  C_85 
REMARK   32  A    between atoms: CA_84  and  CB_87 
REMARK       I    between atoms: C_85  and  N_91 
REMARK   33  A    between atoms: CB_87  and  CG_88 
REMARK   34  A    between atoms: CG_88  and  SD_89 
REMARK   35  A    between atoms: SD_89  and  CE_90 
REMARK   36  A    between atoms: N_91  and  CA_92 
REMARK   37  A    between atoms: CA_92  and  C_93 
REMARK   38  A    between atoms: CA_92  and  CB_95 
REMARK   39  A    between atoms: CB_95  and  CG_96 
ROOT
ATOM      1  CA  SER d   1      -7.637  -2.449   8.382  0.00  0.00     0.109 C 
ATOM      2  H   SER d   1      -6.916  -2.626   9.180  0.00  0.00     0.090 H 
ENDROOT
BRANCH   1   3
ATOM      3  N   SER d   1      -7.072  -1.464   7.470  0.00  0.00    -0.344 N 
ATOM      4  C   TYR d   1      -5.918  -1.669   6.843  0.00  0.00     0.241 C 
ATOM      5  O   TYR d   1      -5.290  -2.725   6.940  0.00  0.00    -0.271 OA
ATOM      6  H   SER d   1      -7.576  -0.592   7.308  0.00  0.00     0.163 HD
BRANCH   4   7
ATOM      7  CA  TYR d   1      -5.407  -0.525   5.949  0.00  0.00     0.093 C 
ATOM      8  H   TYR d   1      -5.187  -0.993   4.989  0.00  0.00     0.088 H 
BRANCH   7   9
ATOM      9  N   TYR d   1      -6.411   0.521   5.765  0.00  0.00    -0.346 N 
ATOM     10  C   PRO d   1      -7.585   0.311   5.189  0.00  0.00     0.241 C 
ATOM     11  O   PRO d   1      -7.967  -0.791   4.800  0.00  0.00    -0.271 OA
ATOM     12  H   TYR d   1      -6.197   1.461   6.097  0.00  0.00     0.163 HD
BRANCH  10  13
ATOM     13  CA  PRO d   1      -8.471   1.544   5.052  0.00  0.00     0.091 C 
ATOM     14  N   PRO d   1      -8.921   1.756   3.675  0.00  0.00    -0.337 N 
ATOM     15  C   PRO d   1      -8.083   1.762   2.624  0.00  0.00     0.243 C 
ATOM     16  CD  PRO d   1     -10.382   1.953   3.599  0.00  0.00    -0.001 C 
ATOM     17  O   PRO d   1      -6.862   1.611   2.745  0.00  0.00    -0.271 OA
ATOM     18  CG  PRO d   1     -10.791   2.102   5.036  0.00  0.00    -0.048 C 
ATOM     19  H   PRO d   1     -10.890   1.125   3.104  0.00  0.00     0.064 H 
ATOM     20  H   PRO d   1     -10.656   2.818   2.995  0.00  0.00     0.064 H 
ATOM     21  CB  PRO d   1      -9.775   1.354   5.827  0.00  0.00    -0.036 C 
ATOM     22  H   PRO d   1     -10.829   3.151   5.331  0.00  0.00     0.035 H 
ATOM     23  H   PRO d   1     -11.793   1.709   5.206  0.00  0.00     0.035 H 
ATOM     24  H   PRO d   1      -9.700   1.724   6.850  0.00  0.00     0.036 H 
ATOM     25  H   PRO d   1     -10.036   0.301   5.936  0.00  0.00     0.036 H 
ATOM     26  H   PRO d   1      -7.862   2.373   5.413  0.00  0.00     0.087 H 
BRANCH  15  27
ATOM     27  CA  PRO d   1      -8.711   1.956   1.248  0.00  0.00     0.092 C 
ATOM     28  N   PRO d   1      -7.838   2.685   0.317  0.00  0.00    -0.337 N 
ATOM     29  C   PRO d   1      -7.229   3.845   0.610  0.00  0.00     0.243 C 
ATOM     30  CD  PRO d   1      -7.734   1.980  -0.962  0.00  0.00    -0.001 C 
ATOM     31  O   PRO d   1      -7.349   4.406   1.703  0.00  0.00    -0.271 OA
ATOM     32  CG  PRO d   1      -7.922   0.555  -0.551  0.00  0.00    -0.048 C 
ATOM     33  H   PRO d   1      -6.790   2.159  -1.477  0.00  0.00     0.064 H 
ATOM     34  H   PRO d   1      -8.463   2.315  -1.699  0.00  0.00     0.064 H 
ATOM     35  CB  PRO d   1      -8.911   0.592   0.565  0.00  0.00    -0.036 C 
ATOM     36  H   PRO d   1      -8.277  -0.057  -1.380  0.00  0.00     0.035 H 
ATOM     37  H   PRO d   1      -6.982   0.101  -0.238  0.00  0.00     0.035 H 
ATOM     38  H   PRO d   1      -9.931   0.475   0.198  0.00  0.00     0.036 H 
ATOM     39  H   PRO d   1      -8.756  -0.230   1.263  0.00  0.00     0.036 H 
ATOM     40  H   PRO d   1      -9.636   2.503   1.433  0.00  0.00     0.087 H 
BRANCH  29  41
ATOM     41  CA  PRO d   1      -6.370   4.460  -0.489  0.00  0.00     0.092 C 
ATOM     42  N   PRO d   1      -6.615   5.891  -0.632  0.00  0.00    -0.337 N 
ATOM     43  C   PRO d   1      -7.765   6.374  -1.127  0.00  0.00     0.243 C 
ATOM     44  CD  PRO d   1      -5.479   6.682  -0.149  0.00  0.00    -0.001 C 
ATOM     45  O   PRO d   1      -8.709   5.630  -1.413  0.00  0.00    -0.271 OA
ATOM     46  CG  PRO d   1      -4.329   5.742  -0.344  0.00  0.00    -0.048 C 
ATOM     47  H   PRO d   1      -5.594   7.011   0.884  0.00  0.00     0.064 H 
ATOM     48  H   PRO d   1      -5.356   7.625  -0.681  0.00  0.00     0.064 H 
ATOM     49  CB  PRO d   1      -4.879   4.370  -0.135  0.00  0.00    -0.036 C 
ATOM     50  H   PRO d   1      -3.898   5.847  -1.339  0.00  0.00     0.035 H 
ATOM     51  H   PRO d   1      -3.522   5.955   0.357  0.00  0.00     0.035 H 
ATOM     52  H   PRO d   1      -4.366   3.638  -0.759  0.00  0.00     0.036 H 
ATOM     53  H   PRO d   1      -4.734   4.037   0.893  0.00  0.00     0.036 H 
ATOM     54  H   PRO d   1      -6.625   3.909  -1.395  0.00  0.00     0.087 H 
BRANCH  43  55
ATOM     55  CA  PRO d   1      -7.888   7.884  -1.338  0.00  0.00     0.092 C 
ATOM     56  N   PRO d   1      -8.595   8.160  -2.589  0.00  0.00    -0.337 N 
ATOM     57  C   SER d   1      -8.044   7.917  -3.786  0.00  0.00     0.253 C 
ATOM     58  CD  PRO d   1      -9.934   8.733  -2.357  0.00  0.00    -0.001 C 
ATOM     59  O   SER d   1      -6.849   7.666  -3.910  0.00  0.00    -0.271 OA
ATOM     60  CG  PRO d   1     -10.144   8.555  -0.879  0.00  0.00    -0.048 C 
ATOM     61  H   PRO d   1     -10.706   8.242  -2.950  0.00  0.00     0.064 H 
ATOM     62  H   PRO d   1     -10.000   9.777  -2.664  0.00  0.00     0.064 H 
ATOM     63  CB  PRO d   1      -8.785   8.518  -0.270  0.00  0.00    -0.036 C 
ATOM     64  H   PRO d   1     -10.739   9.369  -0.465  0.00  0.00     0.035 H 
ATOM     65  H   PRO d   1     -10.696   7.639  -0.667  0.00  0.00     0.035 H 
ATOM     66  H   PRO d   1      -8.440   9.514   0.008  0.00  0.00     0.036 H 
ATOM     67  H   PRO d   1      -8.774   7.946   0.658  0.00  0.00     0.036 H 
ATOM     68  H   PRO d   1      -6.872   8.279  -1.317  0.00  0.00     0.087 H 
BRANCH  57  69
ATOM     69  CA  SER d   1      -8.948   7.974  -5.012  0.00  0.00     0.196 C 
ATOM     70  H   SER d   1      -9.796   8.624  -4.797  0.00  0.00     0.102 H 
BRANCH  69  71
ATOM     71  N   SER d   1      -8.216   8.520  -6.174  0.00  0.00    -0.064 N 
ATOM     72  H   SER d   1      -7.892   9.463  -5.958  0.00  0.00     0.275 HD
ATOM     73  H   SER d   1      -7.415   7.923  -6.381  0.00  0.00     0.275 HD
ATOM     74  H   SER d   1      -8.837   8.549  -6.982  0.00  0.00     0.275 HD
ENDBRANCH  69  71
BRANCH  69  75
ATOM     75  CB  SER d   1      -9.431   6.562  -5.339  0.00  0.00     0.051 C 
ATOM     76  H   SER d   1     -10.073   6.219  -4.528  0.00  0.00     0.077 H 
ATOM     77  H   SER d   1      -8.560   5.917  -5.457  0.00  0.00     0.077 H 
BRANCH  75  78
ATOM     78  OG  SER d   1     -10.177   6.537  -6.546  0.00  0.00    -0.398 OA
ATOM     79  H   SER d   1     -10.466   5.639  -6.724  0.00  0.00     0.209 HD
ENDBRANCH  75  78
ENDBRANCH  69  75
ENDBRANCH  57  69
ENDBRANCH  43  55
ENDBRANCH  29  41
ENDBRANCH  15  27
ENDBRANCH  10  13
ENDBRANCH   7   9
BRANCH   7  80
ATOM     80  CB  TYR d   1      -4.123   0.127   6.498  0.00  0.00    -0.014 C 
ATOM     81  H   TYR d   1      -4.445   0.969   7.111  0.00  0.00     0.043 H 
ATOM     82  H   TYR d   1      -3.510   0.374   5.631  0.00  0.00     0.043 H 
BRANCH  80  83
ATOM     83  CG  TYR d   1      -3.266  -0.744   7.389  0.00  0.00    -0.056 A 
ATOM     84  CD1 TYR d   1      -2.474  -1.760   6.871  0.00  0.00    -0.074 A 
ATOM     85  CE1 TYR d   1      -1.688  -2.539   7.697  0.00  0.00    -0.051 A 
ATOM     86  H   TYR d   1      -2.473  -1.945   5.797  0.00  0.00     0.084 H 
ATOM     87  CZ  TYR d   1      -1.687  -2.305   9.057  0.00  0.00     0.065 A 
ATOM     88  H   TYR d   1      -1.072  -3.334   7.277  0.00  0.00     0.087 H 
ATOM     89  CE2 TYR d   1      -2.464  -1.301   9.589  0.00  0.00    -0.051 A 
ATOM     90  CD2 TYR d   1      -3.244  -0.530   8.757  0.00  0.00    -0.074 A 
ATOM     91  H   TYR d   1      -2.462  -1.117  10.663  0.00  0.00     0.087 H 
ATOM     92  H   TYR d   1      -3.856   0.265   9.183  0.00  0.00     0.084 H 
BRANCH  87  93
ATOM     93  OH  TYR d   1      -0.905  -3.076   9.886  0.00  0.00    -0.361 OA
ATOM     94  H   TYR d   1      -0.429  -3.725   9.363  0.00  0.00     0.217 HD
ENDBRANCH  87  93
ENDBRANCH  80  83
ENDBRANCH   7  80
ENDBRANCH   4   7
ENDBRANCH   1   3
BRANCH   1  95
ATOM     95  C   SER d   1      -7.894  -3.786   7.675  0.00  0.00     0.243 C 
ATOM     96  O   SER d   1      -7.724  -4.855   8.270  0.00  0.00    -0.271 OA
ATOM     97  N   ARG d   1      -8.344  -3.731   6.423  0.00  0.00    -0.346 N 
ATOM     98  H   ARG d   1      -8.580  -2.828   6.012  0.00  0.00     0.163 HD
BRANCH  97  99
ATOM     99  CA  ARG d   1      -8.503  -4.943   5.633  0.00  0.00     0.089 C 
ATOM    100  H   ARG d   1      -7.728  -5.633   5.968  0.00  0.00     0.087 H 
BRANCH  99 101
ATOM    101  C   ARG d   1      -8.310  -4.661   4.148  0.00  0.00     0.241 C 
ATOM    102  O   ARG d   1      -8.343  -3.513   3.713  0.00  0.00    -0.271 OA
ATOM    103  N   TYR d   1      -8.130  -5.727   3.377  0.00  0.00    -0.346 N 
ATOM    104  H   TYR d   1      -8.206  -6.654   3.795  0.00  0.00     0.163 HD
BRANCH 103 105
ATOM    105  CA  TYR d   1      -7.829  -5.621   1.958  0.00  0.00     0.093 C 
ATOM    106  H   TYR d   1      -7.275  -4.696   1.796  0.00  0.00     0.088 H 
BRANCH 105 107
ATOM    107  C   TYR d   1      -9.123  -5.601   1.152  0.00  0.00     0.243 C 
ATOM    108  O   TYR d   1      -9.972  -6.483   1.307  0.00  0.00    -0.271 OA
ATOM    109  N   PRO d   1      -9.293  -4.591   0.290  0.00  0.00    -0.337 N 
ATOM    110  CA  PRO d   1     -10.445  -4.506  -0.609  0.00  0.00     0.091 C 
ATOM    111  CD  PRO d   1      -8.377  -3.451   0.126  0.00  0.00    -0.001 C 
ATOM    112  CB  PRO d   1     -10.243  -3.169  -1.334  0.00  0.00    -0.036 C 
ATOM    113  H   PRO d   1     -11.392  -4.566  -0.072  0.00  0.00     0.087 H 
ATOM    114  CG  PRO d   1      -8.791  -2.867  -1.193  0.00  0.00    -0.048 C 
ATOM    115  H   PRO d   1     -10.862  -2.381  -0.906  0.00  0.00     0.036 H 
ATOM    116  H   PRO d   1     -10.543  -3.228  -2.380  0.00  0.00     0.036 H 
ATOM    117  H   PRO d   1      -8.604  -1.794  -1.227  0.00  0.00     0.035 H 
ATOM    118  H   PRO d   1      -8.216  -3.295  -2.014  0.00  0.00     0.035 H 
ATOM    119  H   PRO d   1      -7.328  -3.748   0.144  0.00  0.00     0.064 H 
ATOM    120  H   PRO d   1      -8.447  -2.734   0.944  0.00  0.00     0.064 H 
BRANCH 110 121
ATOM    121  C   PRO d   1     -10.466  -5.660  -1.609  0.00  0.00     0.241 C 
ATOM    122  O   PRO d   1      -9.448  -5.990  -2.218  0.00  0.00    -0.271 OA
ATOM    123  N   MET d   1     -11.628  -6.275  -1.771  0.00  0.00    -0.346 N 
ATOM    124  H   MET d   1     -12.438  -5.962  -1.236  0.00  0.00     0.163 HD
BRANCH 123 125
ATOM    125  CA  MET d   1     -11.774  -7.390  -2.698  0.00  0.00     0.090 C 
ATOM    126  H   MET d   1     -10.799  -7.847  -2.869  0.00  0.00     0.087 H 
BRANCH 125 127
ATOM    127  C   MET d   1     -12.314  -6.887  -4.036  0.00  0.00     0.241 C 
ATOM    128  O   MET d   1     -12.641  -7.667  -4.934  0.00  0.00    -0.271 OA
ATOM    129  N   ASP d   1     -12.382  -5.571  -4.161  0.00  0.00    -0.344 N 
ATOM    130  H   ASP d   1     -12.069  -4.986  -3.387  0.00  0.00     0.163 HD
BRANCH 129 131
ATOM    131  CA  ASP d   1     -12.888  -4.932  -5.365  0.00  0.00     0.105 C 
ATOM    132  H   ASP d   1     -12.901  -5.673  -6.164  0.00  0.00     0.090 H 
BRANCH 131 133
ATOM    133  C   ASP d   1     -11.985  -3.779  -5.771  0.00  0.00     0.197 C 
ATOM    134  O   ASP d   1     -10.813  -4.035  -6.109  0.00  0.00    -0.646 OA
ATOM    135  OXT ASP d   1     -12.457  -2.627  -5.768  0.00  0.00    -0.646 OA
ENDBRANCH 131 133
BRANCH 131 136
ATOM    136  CB  ASP d   1     -14.315  -4.418  -5.144  0.00  0.00     0.044 C 
ATOM    137  H   ASP d   1     -14.544  -3.713  -5.943  0.00  0.00     0.053 H 
ATOM    138  H   ASP d   1     -14.357  -3.962  -4.155  0.00  0.00     0.053 H 
BRANCH 136 139
ATOM    139  CG  ASP d   1     -15.346  -5.520  -5.190  0.00  0.00     0.175 C 
ATOM    140  OD1 ASP d   1     -15.759  -5.899  -6.309  0.00  0.00    -0.648 OA
ATOM    141  OD2 ASP d   1     -15.755  -6.012  -4.113  0.00  0.00    -0.648 OA
ENDBRANCH 136 139
ENDBRANCH 131 136
ENDBRANCH 129 131
ENDBRANCH 125 127
BRANCH 125 142
ATOM    142  CB  MET d   1     -12.708  -8.446  -2.100  0.00  0.00    -0.030 C 
ATOM    143  H   MET d   1     -13.730  -8.097  -2.245  0.00  0.00     0.037 H 
ATOM    144  H   MET d   1     -12.433  -8.570  -1.053  0.00  0.00     0.037 H 
BRANCH 142 145
ATOM    145  CG  MET d   1     -12.593  -9.808  -2.765  0.00  0.00    -0.021 C 
ATOM    146  H   MET d   1     -12.834  -9.688  -3.821  0.00  0.00     0.049 H 
ATOM    147  H   MET d   1     -13.275 -10.489  -2.256  0.00  0.00     0.049 H 
BRANCH 145 148
ATOM    148  SD  MET d   1     -10.927 -10.496  -2.648  0.00  0.00    -0.173 SA
BRANCH 148 149
ATOM    149  CE  MET d   1     -10.718 -10.600  -0.869  0.00  0.00    -0.035 C 
ATOM    150  H   MET d   1     -10.808  -9.604  -0.435  0.00  0.00     0.041 H 
ATOM    151  H   MET d   1     -11.487 -11.250  -0.452  0.00  0.00     0.041 H 
ATOM    152  H   MET d   1      -9.733 -11.008  -0.643  0.00  0.00     0.041 H 
ENDBRANCH 148 149
ENDBRANCH 145 148
ENDBRANCH 142 145
ENDBRANCH 125 142
ENDBRANCH 123 125
ENDBRANCH 110 121
ENDBRANCH 105 107
BRANCH 105 153
ATOM    153  CB  TYR d   1      -6.972  -6.814   1.494  0.00  0.00    -0.014 C 
ATOM    154  H   TYR d   1      -6.627  -6.574   0.488  0.00  0.00     0.043 H 
ATOM    155  H   TYR d   1      -7.603  -7.699   1.578  0.00  0.00     0.043 H 
BRANCH 153 156
ATOM    156  CG  TYR d   1      -5.726  -7.092   2.323  0.00  0.00    -0.056 A 
ATOM    157  CD1 TYR d   1      -5.487  -6.436   3.521  0.00  0.00    -0.074 A 
ATOM    158  CE1 TYR d   1      -4.384  -6.715   4.286  0.00  0.00    -0.051 A 
ATOM    159  H   TYR d   1      -6.194  -5.680   3.863  0.00  0.00     0.084 H 
ATOM    160  CZ  TYR d   1      -3.482  -7.663   3.861  0.00  0.00     0.065 A 
ATOM    161  H   TYR d   1      -4.222  -6.188   5.226  0.00  0.00     0.087 H 
ATOM    162  CE2 TYR d   1      -3.687  -8.331   2.673  0.00  0.00    -0.051 A 
ATOM    163  CD2 TYR d   1      -4.806  -8.049   1.914  0.00  0.00    -0.074 A 
ATOM    164  H   TYR d   1      -2.970  -9.078   2.334  0.00  0.00     0.087 H 
ATOM    165  H   TYR d   1      -4.970  -8.586   0.980  0.00  0.00     0.084 H 
BRANCH 160 166
ATOM    166  OH  TYR d   1      -2.376  -7.950   4.630  0.00  0.00    -0.361 OA
ATOM    167  H   TYR d   1      -2.384  -7.401   5.417  0.00  0.00     0.217 HD
ENDBRANCH 160 166
ENDBRANCH 153 156
ENDBRANCH 105 153
ENDBRANCH 103 105
ENDBRANCH  99 101
BRANCH  99 168
ATOM    168  CB  ARG d   1      -9.853  -5.613   5.863  0.00  0.00    -0.036 C 
ATOM    169  H   ARG d   1     -10.582  -5.166   5.188  0.00  0.00     0.036 H 
ATOM    170  H   ARG d   1     -10.140  -5.469   6.905  0.00  0.00     0.036 H 
BRANCH 168 171
ATOM    171  CG  ARG d   1      -9.782  -7.103   5.582  0.00  0.00    -0.048 C 
ATOM    172  H   ARG d   1      -9.122  -7.264   4.729  0.00  0.00     0.035 H 
ATOM    173  H   ARG d   1     -10.789  -7.466   5.377  0.00  0.00     0.035 H 
BRANCH 171 174
ATOM    174  CD  ARG d   1      -9.227  -7.863   6.774  0.00  0.00     0.009 C 
ATOM    175  H   ARG d   1      -8.493  -7.229   7.272  0.00  0.00     0.064 H 
ATOM    176  H   ARG d   1      -8.784  -8.790   6.412  0.00  0.00     0.064 H 
BRANCH 174 177
ATOM    177  NE  ARG d   1     -10.269  -8.200   7.737  0.00  0.00    -0.227 N 
ATOM    178  CZ  ARG d   1     -10.322  -7.738   8.986  0.00  0.00     0.665 C 
ATOM    179  NH1 ARG d   1      -9.423  -6.861   9.424  0.00  0.00    -0.235 N 
ATOM    180  NH2 ARG d   1     -11.287  -8.153   9.794  0.00  0.00    -0.235 N 
ATOM    181  H   ARG d   1      -8.683  -6.535   8.802  0.00  0.00     0.174 HD
ATOM    182  H   ARG d   1      -9.473  -6.514  10.382  0.00  0.00     0.174 HD
ATOM    183  H   ARG d   1     -11.981  -8.821   9.458  0.00  0.00     0.174 HD
ATOM    184  H   ARG d   1     -11.335  -7.805  10.752  0.00  0.00     0.174 HD
ATOM    185  H   ARG d   1     -11.009  -8.833   7.434  0.00  0.00     0.177 HD
ENDBRANCH 174 177
ENDBRANCH 171 174
ENDBRANCH 168 171
ENDBRANCH  99 168
ENDBRANCH  97  99
ENDBRANCH   1  95
BRANCH   1 186
ATOM    186  CB  SER d   1      -8.940  -1.914   8.974  0.00  0.00     0.044 C 
ATOM    187  H   SER d   1      -9.184  -2.492   9.865  0.00  0.00     0.077 H 
ATOM    188  H   SER d   1      -9.728  -2.003   8.226  0.00  0.00     0.077 H 
BRANCH 186 189
ATOM    189  OG  SER d   1      -8.807  -0.548   9.338  0.00  0.00    -0.398 OA
ATOM    190  H   SER d   1      -9.636  -0.234   9.707  0.00  0.00     0.209 HD
ENDBRANCH 186 189
ENDBRANCH   1 186
TORSDOF 39
