REMARK WARNING: 32 MAX_TORS EXCEEDED!!!
REMARK  46 active torsions:
REMARK  status: ('A' for Active; 'I' for Inactive)
REMARK    1  A    between atoms: N_1  and  CA_2 
REMARK    2  A    between atoms: CA_2  and  C_3 
REMARK       I    between atoms: C_3  and  N_5 
REMARK    3  A    between atoms: N_5  and  CA_6 
REMARK    4  A    between atoms: CA_6  and  C_7 
REMARK    5  A    between atoms: CA_6  and  CB_9 
REMARK       I    between atoms: C_7  and  N_14 
REMARK    6  A    between atoms: CB_9  and  CG_10 
REMARK    7  A    between atoms: CG_10  and  CD_11 
REMARK    8  A    between atoms: N_14  and  CA_15 
REMARK    9  A    between atoms: CA_15  and  C_16 
REMARK   10  A    between atoms: CA_15  and  CB_18 
REMARK       I    between atoms: C_16  and  N_20 
REMARK   11  A    between atoms: CB_18  and  OG_19 
REMARK   12  A    between atoms: CA_21  and  C_22 
REMARK       I    between atoms: C_22  and  N_27 
REMARK   13  A    between atoms: CA_28  and  C_29 
REMARK       I    between atoms: C_29  and  N_34 
REMARK   14  A    between atoms: CA_35  and  C_36 
REMARK       I    between atoms: C_36  and  N_41 
REMARK   15  A    between atoms: CA_42  and  C_43 
REMARK       I    between atoms: C_43  and  N_48 
REMARK   16  A    between atoms: N_48  and  CA_49 
REMARK   17  A    between atoms: CA_49  and  C_50 
REMARK   18  A    between atoms: CA_49  and  CB_52 
REMARK       I    between atoms: C_50  and  N_60 
REMARK   19  A    between atoms: CB_52  and  CG_53 
REMARK   20  A    between atoms: CZ_58  and  OH_59 
REMARK   21  A    between atoms: N_60  and  CA_61 
REMARK   22  A    between atoms: CA_61  and  C_62 
REMARK   23  A    between atoms: CA_61  and  CB_64 
REMARK       I    between atoms: C_62  and  N_66 
REMARK   24  A    between atoms: CB_64  and  OG_65 
REMARK   25  A    between atoms: N_66  and  CA_67 
REMARK   26  A    between atoms: CA_67  and  C_68 
REMARK   27  A    between atoms: CA_67  and  CB_70 
REMARK       I    between atoms: C_68  and  N_77 
REMARK   28  A    between atoms: CB_70  and  CG_71 
REMARK   29  A    between atoms: CG_71  and  CD_72 
REMARK   30  A    between atoms: CD_72  and  NE_73 
REMARK       I    between atoms: NE_73  and  CZ_74 
REMARK       I    between atoms: CZ_74  and  NH1_75 
REMARK   31  A    between atoms: N_77  and  CA_78 
REMARK   32  A    between atoms: CA_78  and  C_79 
REMARK   33  A    between atoms: CA_78  and  CB_81 
REMARK       I    between atoms: C_79  and  N_89 
REMARK   34  A    between atoms: CB_81  and  CG_82 
REMARK   35  A    between atoms: CZ_87  and  OH_88 
REMARK   36  A    between atoms: CA_90  and  C_91 
REMARK       I    between atoms: C_91  and  N_96 
REMARK   37  A    between atoms: N_96  and  CA_97 
REMARK   38  A    between atoms: CA_97  and  C_98 
REMARK   39  A    between atoms: CA_97  and  CB_100 
REMARK       I    between atoms: C_98  and  N_104 
REMARK   40  A    between atoms: CB_100  and  CG_101 
REMARK   41  A    between atoms: CG_101  and  SD_102 
REMARK   42  A    between atoms: SD_102  and  CE_103 
REMARK   43  A    between atoms: N_104  and  CA_105 
REMARK   44  A    between atoms: CA_105  and  C_106 
REMARK   45  A    between atoms: CA_105  and  CB_108 
REMARK   46  A    between atoms: CB_108  and  CG_109 
ROOT
ATOM      1  CA  TYR d   1      -6.910   3.845  -4.720  0.00  0.00     0.093 C 
ATOM      2  H   TYR d   1      -6.194   3.616  -3.930  0.00  0.00     0.088 H 
ENDROOT
BRANCH   1   3
ATOM      3  N   TYR d   1      -7.897   2.772  -4.691  0.00  0.00    -0.346 N 
ATOM      4  C   PRO d   1      -8.480   2.383  -3.570  0.00  0.00     0.241 C 
ATOM      5  O   PRO d   1      -8.325   2.966  -2.495  0.00  0.00    -0.271 OA
ATOM      6  H   TYR d   1      -8.146   2.307  -5.564  0.00  0.00     0.163 HD
BRANCH   4   7
ATOM      7  CA  PRO d   1      -9.400   1.169  -3.668  0.00  0.00     0.091 C 
ATOM      8  N   PRO d   1      -9.188   0.276  -2.534  0.00  0.00    -0.337 N 
ATOM      9  C   PRO d   1      -8.050  -0.406  -2.355  0.00  0.00     0.243 C 
ATOM     10  CD  PRO d   1     -10.359   0.228  -1.650  0.00  0.00    -0.001 C 
ATOM     11  O   PRO d   1      -7.170  -0.458  -3.219  0.00  0.00    -0.271 OA
ATOM     12  CG  PRO d   1     -11.476   0.648  -2.559  0.00  0.00    -0.048 C 
ATOM     13  H   PRO d   1     -10.258   0.871  -0.775  0.00  0.00     0.064 H 
ATOM     14  H   PRO d   1     -10.518  -0.755  -1.208  0.00  0.00     0.064 H 
ATOM     15  CB  PRO d   1     -10.870   1.596  -3.538  0.00  0.00    -0.036 C 
ATOM     16  H   PRO d   1     -11.921  -0.210  -3.062  0.00  0.00     0.035 H 
ATOM     17  H   PRO d   1     -12.285   1.119  -2.001  0.00  0.00     0.035 H 
ATOM     18  H   PRO d   1     -11.383   1.559  -4.499  0.00  0.00     0.036 H 
ATOM     19  H   PRO d   1     -10.957   2.629  -3.200  0.00  0.00     0.036 H 
ATOM     20  H   PRO d   1      -9.184   0.693  -4.624  0.00  0.00     0.087 H 
BRANCH   9  21
ATOM     21  CA  PRO d   1      -7.871  -1.115  -1.015  0.00  0.00     0.092 C 
ATOM     22  N   PRO d   1      -7.252  -2.447  -1.129  0.00  0.00    -0.337 N 
ATOM     23  C   PRO d   1      -7.658  -3.384  -1.997  0.00  0.00     0.243 C 
ATOM     24  CD  PRO d   1      -6.153  -2.589  -0.181  0.00  0.00    -0.001 C 
ATOM     25  O   PRO d   1      -8.614  -3.195  -2.761  0.00  0.00    -0.271 OA
ATOM     26  CG  PRO d   1      -5.646  -1.189  -0.099  0.00  0.00    -0.048 C 
ATOM     27  H   PRO d   1      -5.397  -3.308  -0.495  0.00  0.00     0.064 H 
ATOM     28  H   PRO d   1      -6.458  -2.999   0.782  0.00  0.00     0.064 H 
ATOM     29  CB  PRO d   1      -6.852  -0.323  -0.187  0.00  0.00    -0.036 C 
ATOM     30  H   PRO d   1      -5.098  -1.017   0.827  0.00  0.00     0.035 H 
ATOM     31  H   PRO d   1      -4.940  -0.973  -0.901  0.00  0.00     0.035 H 
ATOM     32  H   PRO d   1      -7.243  -0.084   0.802  0.00  0.00     0.036 H 
ATOM     33  H   PRO d   1      -6.620   0.635  -0.652  0.00  0.00     0.036 H 
ATOM     34  H   PRO d   1      -8.870  -1.194  -0.586  0.00  0.00     0.087 H 
BRANCH  23  35
ATOM     35  CA  PRO d   1      -6.916  -4.730  -2.006  0.00  0.00     0.092 C 
ATOM     36  N   PRO d   1      -7.487  -5.606  -3.006  0.00  0.00    -0.337 N 
ATOM     37  C   PRO d   1      -8.459  -6.500  -2.770  0.00  0.00     0.243 C 
ATOM     38  CD  PRO d   1      -6.877  -5.239  -4.270  0.00  0.00    -0.001 C 
ATOM     39  O   PRO d   1      -9.124  -6.485  -1.731  0.00  0.00    -0.271 OA
ATOM     40  CG  PRO d   1      -5.445  -5.232  -3.877  0.00  0.00    -0.048 C 
ATOM     41  H   PRO d   1      -7.234  -4.296  -4.684  0.00  0.00     0.064 H 
ATOM     42  H   PRO d   1      -7.113  -5.912  -5.095  0.00  0.00     0.064 H 
ATOM     43  CB  PRO d   1      -5.444  -4.595  -2.516  0.00  0.00    -0.036 C 
ATOM     44  H   PRO d   1      -5.015  -6.234  -3.864  0.00  0.00     0.035 H 
ATOM     45  H   PRO d   1      -4.824  -4.687  -4.588  0.00  0.00     0.035 H 
ATOM     46  H   PRO d   1      -4.737  -5.080  -1.843  0.00  0.00     0.036 H 
ATOM     47  H   PRO d   1      -5.124  -3.554  -2.557  0.00  0.00     0.036 H 
ATOM     48  H   PRO d   1      -6.981  -5.092  -0.980  0.00  0.00     0.087 H 
BRANCH  37  49
ATOM     49  CA  PRO d   1      -8.747  -7.523  -3.864  0.00  0.00     0.092 C 
ATOM     50  N   PRO d   1      -8.887  -8.888  -3.330  0.00  0.00    -0.337 N 
ATOM     51  C   SER d   1      -8.001  -9.436  -2.474  0.00  0.00     0.245 C 
ATOM     52  CD  PRO d   1     -10.096  -9.538  -3.839  0.00  0.00    -0.001 C 
ATOM     53  O   SER d   1      -7.125  -8.775  -1.930  0.00  0.00    -0.271 OA
ATOM     54  CG  PRO d   1     -11.000  -8.372  -4.106  0.00  0.00    -0.048 C 
ATOM     55  H   PRO d   1     -10.521 -10.258  -3.140  0.00  0.00     0.064 H 
ATOM     56  H   PRO d   1      -9.914 -10.149  -4.723  0.00  0.00     0.064 H 
ATOM     57  CB  PRO d   1     -10.112  -7.240  -4.511  0.00  0.00    -0.036 C 
ATOM     58  H   PRO d   1     -11.721  -8.605  -4.889  0.00  0.00     0.035 H 
ATOM     59  H   PRO d   1     -11.584  -8.117  -3.221  0.00  0.00     0.035 H 
ATOM     60  H   PRO d   1     -10.029  -7.171  -5.596  0.00  0.00     0.036 H 
ATOM     61  H   PRO d   1     -10.516  -6.283  -4.181  0.00  0.00     0.036 H 
ATOM     62  H   PRO d   1      -7.910  -7.447  -4.558  0.00  0.00     0.087 H 
BRANCH  51  63
ATOM     63  CA  SER d   1      -8.122 -10.920  -2.153  0.00  0.00     0.109 C 
ATOM     64  H   SER d   1      -8.576 -11.441  -2.996  0.00  0.00     0.090 H 
BRANCH  63  65
ATOM     65  N   SER d   1      -6.791 -11.433  -1.887  0.00  0.00    -0.344 N 
ATOM     66  C   GLU d   1      -6.030 -11.920  -2.849  0.00  0.00     0.241 C 
ATOM     67  O   GLU d   1      -6.425 -12.073  -4.008  0.00  0.00    -0.271 OA
ATOM     68  H   SER d   1      -6.434 -11.417  -0.932  0.00  0.00     0.163 HD
BRANCH  66  69
ATOM     69  CA  GLU d   1      -4.603 -12.275  -2.463  0.00  0.00     0.090 C 
ATOM     70  H   GLU d   1      -4.553 -12.601  -1.424  0.00  0.00     0.087 H 
BRANCH  69  71
ATOM     71  N   GLU d   1      -4.137 -13.368  -3.298  0.00  0.00    -0.346 N 
ATOM     72  C   GLY d   1      -4.223 -14.629  -2.903  0.00  0.00     0.243 C 
ATOM     73  O   GLY d   1      -4.755 -14.969  -1.845  0.00  0.00    -0.272 OA
ATOM     74  H   GLU d   1      -3.733 -13.159  -4.211  0.00  0.00     0.163 HD
BRANCH  72  75
ATOM     75  CA  GLY d   1      -3.625 -15.657  -3.833  0.00  0.00     0.152 C 
ATOM     76  H   GLY d   1      -4.125 -16.610  -3.659  0.00  0.00     0.090 H 
ATOM     77  H   GLY d   1      -3.760 -15.313  -4.858  0.00  0.00     0.090 H 
BRANCH  75  78
ATOM     78  N   GLY d   1      -2.177 -15.838  -3.589  0.00  0.00    -0.071 N 
ATOM     79  H   GLY d   1      -1.810 -16.538  -4.234  0.00  0.00     0.274 HD
ATOM     80  H   GLY d   1      -1.695 -14.951  -3.737  0.00  0.00     0.274 HD
ATOM     81  H   GLY d   1      -2.032 -16.149  -2.629  0.00  0.00     0.274 HD
ENDBRANCH  75  78
ENDBRANCH  72  75
ENDBRANCH  69  71
BRANCH  69  82
ATOM     82  CB  GLU d   1      -3.724 -11.026  -2.628  0.00  0.00    -0.029 C 
ATOM     83  H   GLU d   1      -3.832 -10.451  -1.709  0.00  0.00     0.037 H 
ATOM     84  H   GLU d   1      -4.060 -10.532  -3.540  0.00  0.00     0.037 H 
BRANCH  82  85
ATOM     85  CG  GLU d   1      -2.227 -11.283  -2.803  0.00  0.00     0.018 C 
ATOM     86  H   GLU d   1      -1.717 -10.334  -2.638  0.00  0.00     0.049 H 
ATOM     87  H   GLU d   1      -2.088 -11.700  -3.800  0.00  0.00     0.049 H 
BRANCH  85  88
ATOM     88  CD  GLU d   1      -1.646 -12.278  -1.819  0.00  0.00     0.172 C 
ATOM     89  OE1 GLU d   1      -1.335 -11.888  -0.676  0.00  0.00    -0.648 OA
ATOM     90  OE2 GLU d   1      -1.456 -13.453  -2.204  0.00  0.00    -0.648 OA
ENDBRANCH  85  88
ENDBRANCH  82  85
ENDBRANCH  69  82
ENDBRANCH  66  69
ENDBRANCH  63  65
BRANCH  63  91
ATOM     91  CB  SER d   1      -9.011 -11.138  -0.923  0.00  0.00     0.044 C 
ATOM     92  H   SER d   1     -10.021 -10.799  -1.155  0.00  0.00     0.077 H 
ATOM     93  H   SER d   1      -8.596 -10.577  -0.086  0.00  0.00     0.077 H 
BRANCH  91  94
ATOM     94  OG  SER d   1      -9.060 -12.513  -0.572  0.00  0.00    -0.398 OA
ATOM     95  H   SER d   1      -9.621 -12.626   0.199  0.00  0.00     0.209 HD
ENDBRANCH  91  94
ENDBRANCH  63  91
ENDBRANCH  51  63
ENDBRANCH  37  49
ENDBRANCH  23  35
ENDBRANCH   9  21
ENDBRANCH   4   7
ENDBRANCH   1   3
BRANCH   1  96
ATOM     96  C   TYR d   1      -7.515   5.222  -4.401  0.00  0.00     0.241 C 
ATOM     97  O   TYR d   1      -6.778   6.174  -4.158  0.00  0.00    -0.271 OA
ATOM     98  N   SER d   1      -8.841   5.326  -4.335  0.00  0.00    -0.344 N 
ATOM     99  H   SER d   1      -9.403   4.492  -4.162  0.00  0.00     0.163 HD
BRANCH  98 100
ATOM    100  CA  SER d   1      -9.502   6.616  -4.506  0.00  0.00     0.109 C 
ATOM    101  H   SER d   1      -9.237   7.004  -5.489  0.00  0.00     0.090 H 
BRANCH 100 102
ATOM    102  C   SER d   1      -9.024   7.633  -3.466  0.00  0.00     0.243 C 
ATOM    103  O   SER d   1      -8.351   8.599  -3.840  0.00  0.00    -0.271 OA
ATOM    104  N   ARG d   1      -9.348   7.478  -2.186  0.00  0.00    -0.346 N 
ATOM    105  H   ARG d   1     -10.039   6.784  -1.900  0.00  0.00     0.163 HD
BRANCH 104 106
ATOM    106  CA  ARG d   1      -8.687   8.328  -1.201  0.00  0.00     0.089 C 
ATOM    107  H   ARG d   1      -7.972   8.939  -1.751  0.00  0.00     0.087 H 
BRANCH 106 108
ATOM    108  C   ARG d   1      -7.907   7.529  -0.162  0.00  0.00     0.241 C 
ATOM    109  O   ARG d   1      -6.678   7.507  -0.183  0.00  0.00    -0.271 OA
ATOM    110  N   TYR d   1      -8.625   6.850   0.728  0.00  0.00    -0.346 N 
ATOM    111  H   TYR d   1      -9.643   6.877   0.670  0.00  0.00     0.163 HD
BRANCH 110 112
ATOM    112  CA  TYR d   1      -7.993   6.067   1.786  0.00  0.00     0.093 C 
ATOM    113  H   TYR d   1      -6.913   6.101   1.640  0.00  0.00     0.088 H 
BRANCH 112 114
ATOM    114  C   TYR d   1      -8.395   4.598   1.710  0.00  0.00     0.243 C 
ATOM    115  O   TYR d   1      -9.559   4.291   1.461  0.00  0.00    -0.271 OA
ATOM    116  N   PRO d   1      -7.445   3.683   1.958  0.00  0.00    -0.337 N 
ATOM    117  CA  PRO d   1      -7.700   2.237   1.926  0.00  0.00     0.091 C 
ATOM    118  CD  PRO d   1      -6.040   3.981   2.270  0.00  0.00    -0.001 C 
ATOM    119  CB  PRO d   1      -6.335   1.621   2.255  0.00  0.00    -0.036 C 
ATOM    120  H   PRO d   1      -8.105   1.928   0.962  0.00  0.00     0.087 H 
ATOM    121  CG  PRO d   1      -5.350   2.690   1.953  0.00  0.00    -0.048 C 
ATOM    122  H   PRO d   1      -6.146   0.720   1.671  0.00  0.00     0.036 H 
ATOM    123  H   PRO d   1      -6.277   1.299   3.295  0.00  0.00     0.036 H 
ATOM    124  H   PRO d   1      -5.033   2.655   0.911  0.00  0.00     0.035 H 
ATOM    125  H   PRO d   1      -4.441   2.571   2.543  0.00  0.00     0.035 H 
ATOM    126  H   PRO d   1      -5.892   4.299   3.302  0.00  0.00     0.064 H 
ATOM    127  H   PRO d   1      -5.648   4.823   1.700  0.00  0.00     0.064 H 
BRANCH 117 128
ATOM    128  C   PRO d   1      -8.743   1.790   2.948  0.00  0.00     0.241 C 
ATOM    129  O   PRO d   1      -9.834   1.354   2.586  0.00  0.00    -0.271 OA
ATOM    130  N   MET d   1      -8.406   1.915   4.220  0.00  0.00    -0.346 N 
ATOM    131  H   MET d   1      -7.498   2.313   4.458  0.00  0.00     0.163 HD
BRANCH 130 132
ATOM    132  CA  MET d   1      -9.300   1.498   5.288  0.00  0.00     0.090 C 
ATOM    133  H   MET d   1     -10.258   1.197   4.863  0.00  0.00     0.087 H 
BRANCH 132 134
ATOM    134  C   MET d   1      -9.523   2.661   6.245  0.00  0.00     0.241 C 
ATOM    135  O   MET d   1      -8.635   3.494   6.428  0.00  0.00    -0.271 OA
ATOM    136  N   ASP d   1     -10.691   2.705   6.870  0.00  0.00    -0.344 N 
ATOM    137  H   ASP d   1     -11.352   1.939   6.746  0.00  0.00     0.163 HD
BRANCH 136 138
ATOM    138  CA  ASP d   1     -11.050   3.822   7.729  0.00  0.00     0.105 C 
ATOM    139  H   ASP d   1     -10.523   4.706   7.370  0.00  0.00     0.090 H 
BRANCH 138 140
ATOM    140  C   ASP d   1     -10.610   3.567   9.165  0.00  0.00     0.197 C 
ATOM    141  O   ASP d   1      -9.748   4.323   9.657  0.00  0.00    -0.646 OA
ATOM    142  OXT ASP d   1     -11.090   2.597   9.789  0.00  0.00    -0.646 OA
ENDBRANCH 138 140
BRANCH 138 143
ATOM    143  CB  ASP d   1     -12.558   4.112   7.655  0.00  0.00     0.044 C 
ATOM    144  H   ASP d   1     -12.807   4.257   6.604  0.00  0.00     0.053 H 
ATOM    145  H   ASP d   1     -12.750   4.982   8.283  0.00  0.00     0.053 H 
BRANCH 143 146
ATOM    146  CG  ASP d   1     -13.433   2.986   8.171  0.00  0.00     0.175 C 
ATOM    147  OD1 ASP d   1     -13.351   1.860   7.635  0.00  0.00    -0.648 OA
ATOM    148  OD2 ASP d   1     -14.233   3.237   9.102  0.00  0.00    -0.648 OA
ENDBRANCH 143 146
ENDBRANCH 138 143
ENDBRANCH 136 138
ENDBRANCH 132 134
BRANCH 132 149
ATOM    149  CB  MET d   1      -8.700   0.303   6.035  0.00  0.00    -0.030 C 
ATOM    150  H   MET d   1      -7.992   0.696   6.765  0.00  0.00     0.037 H 
ATOM    151  H   MET d   1      -8.243  -0.351   5.292  0.00  0.00     0.037 H 
BRANCH 149 152
ATOM    152  CG  MET d   1      -9.728  -0.519   6.794  0.00  0.00    -0.021 C 
ATOM    153  H   MET d   1     -10.287   0.155   7.443  0.00  0.00     0.049 H 
ATOM    154  H   MET d   1      -9.198  -1.289   7.354  0.00  0.00     0.049 H 
BRANCH 152 155
ATOM    155  SD  MET d   1     -10.901  -1.336   5.693  0.00  0.00    -0.173 SA
BRANCH 155 156
ATOM    156  CE  MET d   1     -11.979  -2.140   6.874  0.00  0.00    -0.035 C 
ATOM    157  H   MET d   1     -11.397  -2.833   7.481  0.00  0.00     0.041 H 
ATOM    158  H   MET d   1     -12.437  -1.388   7.517  0.00  0.00     0.041 H 
ATOM    159  H   MET d   1     -12.757  -2.687   6.341  0.00  0.00     0.041 H 
ENDBRANCH 155 156
ENDBRANCH 152 155
ENDBRANCH 149 152
ENDBRANCH 132 149
ENDBRANCH 130 132
ENDBRANCH 117 128
ENDBRANCH 112 114
BRANCH 112 160
ATOM    160  CB  TYR d   1      -8.299   6.679   3.161  0.00  0.00    -0.014 C 
ATOM    161  H   TYR d   1      -8.136   5.908   3.914  0.00  0.00     0.043 H 
ATOM    162  H   TYR d   1      -9.327   7.041   3.145  0.00  0.00     0.043 H 
BRANCH 160 163
ATOM    163  CG  TYR d   1      -7.396   7.855   3.494  0.00  0.00    -0.056 A 
ATOM    164  CD1 TYR d   1      -7.193   8.881   2.579  0.00  0.00    -0.074 A 
ATOM    165  CE1 TYR d   1      -6.358   9.942   2.859  0.00  0.00    -0.051 A 
ATOM    166  H   TYR d   1      -7.706   8.846   1.618  0.00  0.00     0.084 H 
ATOM    167  CZ  TYR d   1      -5.711   9.998   4.071  0.00  0.00     0.065 A 
ATOM    168  H   TYR d   1      -6.212  10.733   2.123  0.00  0.00     0.087 H 
ATOM    169  CE2 TYR d   1      -5.893   8.996   5.005  0.00  0.00    -0.051 A 
ATOM    170  CD2 TYR d   1      -6.730   7.931   4.712  0.00  0.00    -0.074 A 
ATOM    171  H   TYR d   1      -5.381   9.043   5.966  0.00  0.00     0.087 H 
ATOM    172  H   TYR d   1      -6.869   7.140   5.449  0.00  0.00     0.084 H 
BRANCH 167 173
ATOM    173  OH  TYR d   1      -4.881  11.064   4.349  0.00  0.00    -0.361 OA
ATOM    174  H   TYR d   1      -4.869  11.663   3.599  0.00  0.00     0.217 HD
ENDBRANCH 167 173
ENDBRANCH 160 163
ENDBRANCH 112 160
ENDBRANCH 110 112
ENDBRANCH 106 108
BRANCH 106 175
ATOM    175  CB  ARG d   1      -9.706   9.228  -0.496  0.00  0.00    -0.036 C 
ATOM    176  H   ARG d   1      -9.194   9.708   0.338  0.00  0.00     0.036 H 
ATOM    177  H   ARG d   1     -10.543   8.598  -0.194  0.00  0.00     0.036 H 
BRANCH 175 178
ATOM    178  CG  ARG d   1     -10.264  10.330  -1.380  0.00  0.00    -0.048 C 
ATOM    179  H   ARG d   1     -10.975  10.915  -0.796  0.00  0.00     0.035 H 
ATOM    180  H   ARG d   1     -10.741   9.870  -2.245  0.00  0.00     0.035 H 
BRANCH 178 181
ATOM    181  CD  ARG d   1      -9.166  11.260  -1.873  0.00  0.00     0.009 C 
ATOM    182  H   ARG d   1      -8.435  10.665  -2.420  0.00  0.00     0.064 H 
ATOM    183  H   ARG d   1      -8.723  11.754  -1.008  0.00  0.00     0.064 H 
BRANCH 181 184
ATOM    184  NE  ARG d   1      -9.685  12.287  -2.771  0.00  0.00    -0.227 N 
ATOM    185  CZ  ARG d   1      -8.922  13.125  -3.470  0.00  0.00     0.665 C 
ATOM    186  NH1 ARG d   1      -7.601  13.106  -3.342  0.00  0.00    -0.235 N 
ATOM    187  NH2 ARG d   1      -9.487  13.999  -4.289  0.00  0.00    -0.235 N 
ATOM    188  H   ARG d   1      -7.160  12.445  -2.703  0.00  0.00     0.174 HD
ATOM    189  H   ARG d   1      -7.027  13.753  -3.883  0.00  0.00     0.174 HD
ATOM    190  H   ARG d   1     -10.502  14.028  -4.382  0.00  0.00     0.174 HD
ATOM    191  H   ARG d   1      -8.907  14.643  -4.827  0.00  0.00     0.174 HD
ATOM    192  H   ARG d   1     -10.697  12.368  -2.869  0.00  0.00     0.177 HD
ENDBRANCH 181 184
ENDBRANCH 178 181
ENDBRANCH 175 178
ENDBRANCH 106 175
ENDBRANCH 104 106
ENDBRANCH 100 102
BRANCH 100 193
ATOM    193  CB  SER d   1     -11.020   6.443  -4.434  0.00  0.00     0.044 C 
ATOM    194  H   SER d   1     -11.311   6.375  -3.386  0.00  0.00     0.077 H 
ATOM    195  H   SER d   1     -11.292   5.541  -4.981  0.00  0.00     0.077 H 
BRANCH 193 196
ATOM    196  OG  SER d   1     -11.695   7.546  -5.019  0.00  0.00    -0.398 OA
ATOM    197  H   SER d   1     -12.643   7.408  -4.958  0.00  0.00     0.209 HD
ENDBRANCH 193 196
ENDBRANCH 100 193
ENDBRANCH  98 100
ENDBRANCH   1  96
BRANCH   1 198
ATOM    198  CB  TYR d   1      -6.163   3.888  -6.071  0.00  0.00    -0.014 C 
ATOM    199  H   TYR d   1      -6.906   3.990  -6.862  0.00  0.00     0.043 H 
ATOM    200  H   TYR d   1      -5.578   2.973  -6.160  0.00  0.00     0.043 H 
BRANCH 198 201
ATOM    201  CG  TYR d   1      -5.210   5.062  -6.173  0.00  0.00    -0.056 A 
ATOM    202  CD1 TYR d   1      -3.941   4.985  -5.628  0.00  0.00    -0.074 A 
ATOM    203  CE1 TYR d   1      -3.085   6.062  -5.659  0.00  0.00    -0.051 A 
ATOM    204  H   TYR d   1      -3.613   4.054  -5.165  0.00  0.00     0.084 H 
ATOM    205  CZ  TYR d   1      -3.488   7.241  -6.247  0.00  0.00     0.065 A 
ATOM    206  H   TYR d   1      -2.091   5.982  -5.220  0.00  0.00     0.087 H 
ATOM    207  CE2 TYR d   1      -4.743   7.346  -6.804  0.00  0.00    -0.051 A 
ATOM    208  CD2 TYR d   1      -5.600   6.262  -6.761  0.00  0.00    -0.074 A 
ATOM    209  H   TYR d   1      -5.058   8.277  -7.275  0.00  0.00     0.087 H 
ATOM    210  H   TYR d   1      -6.596   6.348  -7.194  0.00  0.00     0.084 H 
BRANCH 205 211
ATOM    211  OH  TYR d   1      -2.631   8.315  -6.279  0.00  0.00    -0.361 OA
ATOM    212  H   TYR d   1      -1.805   8.077  -5.852  0.00  0.00     0.217 HD
ENDBRANCH 205 211
ENDBRANCH 198 201
ENDBRANCH   1 198
TORSDOF 46
