REMARK WARNING: 32 MAX_TORS EXCEEDED!!!
REMARK  55 active torsions:
REMARK  status: ('A' for Active; 'I' for Inactive)
REMARK    1  A    between atoms: N_1  and  CA_2 
REMARK    2  A    between atoms: CA_2  and  C_3 
REMARK    3  A    between atoms: CA_2  and  CB_5 
REMARK       I    between atoms: C_3  and  N_10 
REMARK    4  A    between atoms: CB_5  and  CG_6 
REMARK    5  A    between atoms: CG_6  and  CD_7 
REMARK    6  A    between atoms: N_10  and  CA_11 
REMARK    7  A    between atoms: CA_11  and  C_12 
REMARK    8  A    between atoms: CA_11  and  CB_14 
REMARK       I    between atoms: C_12  and  N_18 
REMARK    9  A    between atoms: CB_14  and  CG_15 
REMARK   10  A    between atoms: CG_15  and  CD1_16 
REMARK   11  A    between atoms: CG_15  and  CD2_17 
REMARK   12  A    between atoms: N_18  and  CA_19 
REMARK   13  A    between atoms: CA_19  and  C_20 
REMARK   14  A    between atoms: CA_19  and  CB_22 
REMARK       I    between atoms: C_20  and  N_27 
REMARK   15  A    between atoms: CB_22  and  CG_23 
REMARK   16  A    between atoms: CG_23  and  CD_24 
REMARK   17  A    between atoms: N_27  and  CA_28 
REMARK   18  A    between atoms: CA_28  and  C_29 
REMARK   19  A    between atoms: CA_28  and  CB_31 
REMARK       I    between atoms: C_29  and  N_33 
REMARK   20  A    between atoms: CB_31  and  OG_32 
REMARK   21  A    between atoms: CA_34  and  C_35 
REMARK       I    between atoms: C_35  and  N_40 
REMARK   22  A    between atoms: CA_41  and  C_42 
REMARK       I    between atoms: C_42  and  N_47 
REMARK   23  A    between atoms: CA_48  and  C_49 
REMARK       I    between atoms: C_49  and  N_54 
REMARK   24  A    between atoms: CA_55  and  C_56 
REMARK       I    between atoms: C_56  and  N_61 
REMARK   25  A    between atoms: N_61  and  CA_62 
REMARK   26  A    between atoms: CA_62  and  C_63 
REMARK   27  A    between atoms: CA_62  and  CB_65 
REMARK       I    between atoms: C_63  and  N_73 
REMARK   28  A    between atoms: CB_65  and  CG_66 
REMARK   29  A    between atoms: CZ_71  and  OH_72 
REMARK   30  A    between atoms: N_73  and  CA_74 
REMARK   31  A    between atoms: CA_74  and  C_75 
REMARK   32  A    between atoms: CA_74  and  CB_77 
REMARK       I    between atoms: C_75  and  N_79 
REMARK   33  A    between atoms: CB_77  and  OG_78 
REMARK   34  A    between atoms: N_79  and  CA_80 
REMARK   35  A    between atoms: CA_80  and  C_81 
REMARK   36  A    between atoms: CA_80  and  CB_83 
REMARK       I    between atoms: C_81  and  N_90 
REMARK   37  A    between atoms: CB_83  and  CG_84 
REMARK   38  A    between atoms: CG_84  and  CD_85 
REMARK   39  A    between atoms: CD_85  and  NE_86 
REMARK       I    between atoms: NE_86  and  CZ_87 
REMARK       I    between atoms: CZ_87  and  NH1_88 
REMARK   40  A    between atoms: N_90  and  CA_91 
REMARK   41  A    between atoms: CA_91  and  C_92 
REMARK   42  A    between atoms: CA_91  and  CB_94 
REMARK       I    between atoms: C_92  and  N_102 
REMARK   43  A    between atoms: CB_94  and  CG_95 
REMARK   44  A    between atoms: CZ_100  and  OH_101 
REMARK   45  A    between atoms: CA_103  and  C_104 
REMARK       I    between atoms: C_104  and  N_109 
REMARK   46  A    between atoms: N_109  and  CA_110 
REMARK   47  A    between atoms: CA_110  and  C_111 
REMARK   48  A    between atoms: CA_110  and  CB_113 
REMARK       I    between atoms: C_111  and  N_117 
REMARK   49  A    between atoms: CB_113  and  CG_114 
REMARK   50  A    between atoms: CG_114  and  SD_115 
REMARK   51  A    between atoms: SD_115  and  CE_116 
REMARK   52  A    between atoms: N_117  and  CA_118 
REMARK   53  A    between atoms: CA_118  and  C_119 
REMARK   54  A    between atoms: CA_118  and  CB_121 
REMARK   55  A    between atoms: CB_121  and  CG_122 
ROOT
ATOM      1  C   PRO d   1      -8.867  -1.022  -1.457  0.00  0.00     0.241 C 
ATOM      2  O   PRO d   1      -9.006   0.153  -1.103  0.00  0.00    -0.271 OA
ATOM      3  N   TYR d   1      -8.199  -1.380  -2.555  0.00  0.00    -0.346 N 
ATOM      4  H   TYR d   1      -8.188  -2.362  -2.832  0.00  0.00     0.163 HD
ENDROOT
BRANCH   3   5
ATOM      5  CA  TYR d   1      -7.484  -0.406  -3.370  0.00  0.00     0.093 C 
ATOM      6  H   TYR d   1      -6.761   0.081  -2.716  0.00  0.00     0.088 H 
BRANCH   5   7
ATOM      7  C   TYR d   1      -8.419   0.664  -3.919  0.00  0.00     0.241 C 
ATOM      8  O   TYR d   1      -9.225   0.422  -4.818  0.00  0.00    -0.271 OA
ATOM      9  N   SER d   1      -8.318   1.834  -3.321  0.00  0.00    -0.344 N 
ATOM     10  H   SER d   1      -7.803   1.893  -2.443  0.00  0.00     0.163 HD
BRANCH   9  11
ATOM     11  CA  SER d   1      -8.908   3.035  -3.860  0.00  0.00     0.109 C 
ATOM     12  H   SER d   1      -9.687   2.806  -4.587  0.00  0.00     0.090 H 
BRANCH  11  13
ATOM     13  C   SER d   1      -7.788   3.821  -4.521  0.00  0.00     0.243 C 
ATOM     14  O   SER d   1      -6.676   3.847  -3.994  0.00  0.00    -0.271 OA
ATOM     15  N   ARG d   1      -8.064   4.468  -5.646  0.00  0.00    -0.346 N 
ATOM     16  H   ARG d   1      -9.032   4.542  -5.960  0.00  0.00     0.163 HD
BRANCH  15  17
ATOM     17  CA  ARG d   1      -7.002   5.075  -6.439  0.00  0.00     0.089 C 
ATOM     18  H   ARG d   1      -6.326   4.271  -6.729  0.00  0.00     0.087 H 
BRANCH  17  19
ATOM     19  C   ARG d   1      -6.246   6.115  -5.628  0.00  0.00     0.241 C 
ATOM     20  O   ARG d   1      -5.023   6.067  -5.530  0.00  0.00    -0.271 OA
ATOM     21  N   TYR d   1      -6.970   7.054  -5.054  0.00  0.00    -0.346 N 
ATOM     22  H   TYR d   1      -7.984   7.045  -5.165  0.00  0.00     0.163 HD
BRANCH  21  23
ATOM     23  CA  TYR d   1      -6.348   8.101  -4.266  0.00  0.00     0.093 C 
ATOM     24  H   TYR d   1      -5.270   7.942  -4.242  0.00  0.00     0.088 H 
BRANCH  23  25
ATOM     25  C   TYR d   1      -6.878   8.043  -2.845  0.00  0.00     0.243 C 
ATOM     26  O   TYR d   1      -7.985   8.505  -2.561  0.00  0.00    -0.271 OA
ATOM     27  N   PRO d   1      -6.112   7.408  -1.949  0.00  0.00    -0.337 N 
ATOM     28  CA  PRO d   1      -6.513   7.164  -0.576  0.00  0.00     0.091 C 
ATOM     29  CD  PRO d   1      -4.778   6.865  -2.192  0.00  0.00    -0.001 C 
ATOM     30  CB  PRO d   1      -5.714   5.899  -0.196  0.00  0.00    -0.036 C 
ATOM     31  H   PRO d   1      -7.591   7.044  -0.470  0.00  0.00     0.087 H 
ATOM     32  CG  PRO d   1      -4.791   5.624  -1.351  0.00  0.00    -0.048 C 
ATOM     33  H   PRO d   1      -6.378   5.054  -0.014  0.00  0.00     0.036 H 
ATOM     34  H   PRO d   1      -5.154   6.050   0.727  0.00  0.00     0.036 H 
ATOM     35  H   PRO d   1      -5.134   4.766  -1.928  0.00  0.00     0.035 H 
ATOM     36  H   PRO d   1      -3.788   5.381  -0.999  0.00  0.00     0.035 H 
ATOM     37  H   PRO d   1      -3.976   7.556  -1.931  0.00  0.00     0.064 H 
ATOM     38  H   PRO d   1      -4.575   6.671  -3.245  0.00  0.00     0.064 H 
BRANCH  28  39
ATOM     39  C   PRO d   1      -6.156   8.330   0.337  0.00  0.00     0.241 C 
ATOM     40  O   PRO d   1      -4.985   8.686   0.485  0.00  0.00    -0.271 OA
ATOM     41  N   MET d   1      -7.171   8.941   0.923  0.00  0.00    -0.346 N 
ATOM     42  H   MET d   1      -8.121   8.627   0.727  0.00  0.00     0.163 HD
BRANCH  41  43
ATOM     43  CA  MET d   1      -6.965  10.048   1.839  0.00  0.00     0.090 C 
ATOM     44  H   MET d   1      -5.896  10.248   1.917  0.00  0.00     0.087 H 
BRANCH  43  45
ATOM     45  C   MET d   1      -7.485   9.678   3.220  0.00  0.00     0.241 C 
ATOM     46  O   MET d   1      -8.696   9.582   3.447  0.00  0.00    -0.271 OA
ATOM     47  N   ASP d   1      -6.556   9.430   4.127  0.00  0.00    -0.344 N 
ATOM     48  H   ASP d   1      -5.576   9.567   3.879  0.00  0.00     0.163 HD
BRANCH  47  49
ATOM     49  CA  ASP d   1      -6.883   8.969   5.464  0.00  0.00     0.105 C 
ATOM     50  H   ASP d   1      -7.928   9.206   5.667  0.00  0.00     0.090 H 
BRANCH  49  51
ATOM     51  C   ASP d   1      -6.016   9.680   6.492  0.00  0.00     0.197 C 
ATOM     52  O   ASP d   1      -6.537  10.018   7.576  0.00  0.00    -0.646 OA
ATOM     53  OXT ASP d   1      -4.828   9.945   6.193  0.00  0.00    -0.646 OA
ENDBRANCH  49  51
BRANCH  49  54
ATOM     54  CB  ASP d   1      -6.708   7.446   5.570  0.00  0.00     0.044 C 
ATOM     55  H   ASP d   1      -7.342   6.986   4.812  0.00  0.00     0.053 H 
ATOM     56  H   ASP d   1      -6.973   7.152   6.585  0.00  0.00     0.053 H 
BRANCH  54  57
ATOM     57  CG  ASP d   1      -5.282   6.991   5.316  0.00  0.00     0.175 C 
ATOM     58  OD1 ASP d   1      -4.932   6.718   4.146  0.00  0.00    -0.648 OA
ATOM     59  OD2 ASP d   1      -4.500   6.906   6.282  0.00  0.00    -0.648 OA
ENDBRANCH  54  57
ENDBRANCH  49  54
ENDBRANCH  47  49
ENDBRANCH  43  45
BRANCH  43  60
ATOM     60  CB  MET d   1      -7.626  11.332   1.311  0.00  0.00    -0.030 C 
ATOM     61  H   MET d   1      -7.086  11.625   0.411  0.00  0.00     0.037 H 
ATOM     62  H   MET d   1      -7.587  12.068   2.114  0.00  0.00     0.037 H 
BRANCH  60  63
ATOM     63  CG  MET d   1      -9.089  11.166   0.924  0.00  0.00    -0.021 C 
ATOM     64  H   MET d   1      -9.657  10.988   1.837  0.00  0.00     0.049 H 
ATOM     65  H   MET d   1      -9.155  10.339   0.216  0.00  0.00     0.049 H 
BRANCH  63  66
ATOM     66  SD  MET d   1      -9.774  12.632   0.125  0.00  0.00    -0.173 SA
BRANCH  66  67
ATOM     67  CE  MET d   1      -8.722  12.749  -1.321  0.00  0.00    -0.035 C 
ATOM     68  H   MET d   1      -7.685  12.867  -1.006  0.00  0.00     0.041 H 
ATOM     69  H   MET d   1      -8.821  11.841  -1.915  0.00  0.00     0.041 H 
ATOM     70  H   MET d   1      -9.022  13.610  -1.918  0.00  0.00     0.041 H 
ENDBRANCH  66  67
ENDBRANCH  63  66
ENDBRANCH  60  63
ENDBRANCH  43  60
ENDBRANCH  41  43
ENDBRANCH  28  39
ENDBRANCH  23  25
BRANCH  23  71
ATOM     71  CB  TYR d   1      -6.583   9.482  -4.902  0.00  0.00    -0.014 C 
ATOM     72  H   TYR d   1      -6.232  10.232  -4.194  0.00  0.00     0.043 H 
ATOM     73  H   TYR d   1      -7.646   9.561  -5.129  0.00  0.00     0.043 H 
BRANCH  71  74
ATOM     74  CG  TYR d   1      -5.823   9.689  -6.201  0.00  0.00    -0.056 A 
ATOM     75  CD1 TYR d   1      -5.867   8.738  -7.211  0.00  0.00    -0.074 A 
ATOM     76  CE1 TYR d   1      -5.173   8.901  -8.387  0.00  0.00    -0.051 A 
ATOM     77  H   TYR d   1      -6.467   7.839  -7.068  0.00  0.00     0.084 H 
ATOM     78  CZ  TYR d   1      -4.416  10.036  -8.579  0.00  0.00     0.065 A 
ATOM     79  H   TYR d   1      -5.221   8.137  -9.163  0.00  0.00     0.087 H 
ATOM     80  CE2 TYR d   1      -4.354  11.001  -7.593  0.00  0.00    -0.051 A 
ATOM     81  CD2 TYR d   1      -5.053  10.823  -6.413  0.00  0.00    -0.074 A 
ATOM     82  H   TYR d   1      -3.756  11.900  -7.744  0.00  0.00     0.087 H 
ATOM     83  H   TYR d   1      -4.998  11.586  -5.637  0.00  0.00     0.084 H 
BRANCH  78  84
ATOM     84  OH  TYR d   1      -3.716  10.208  -9.754  0.00  0.00    -0.361 OA
ATOM     85  H   TYR d   1      -3.865   9.453 -10.328  0.00  0.00     0.217 HD
ENDBRANCH  78  84
ENDBRANCH  71  74
ENDBRANCH  23  71
ENDBRANCH  21  23
ENDBRANCH  17  19
BRANCH  17  86
ATOM     86  CB  ARG d   1      -7.556   5.745  -7.697  0.00  0.00    -0.036 C 
ATOM     87  H   ARG d   1      -6.698   6.102  -8.267  0.00  0.00     0.036 H 
ATOM     88  H   ARG d   1      -8.243   6.522  -7.362  0.00  0.00     0.036 H 
BRANCH  86  89
ATOM     89  CG  ARG d   1      -8.343   4.832  -8.618  0.00  0.00    -0.048 C 
ATOM     90  H   ARG d   1      -9.253   4.513  -8.109  0.00  0.00     0.035 H 
ATOM     91  H   ARG d   1      -7.728   3.969  -8.873  0.00  0.00     0.035 H 
BRANCH  89  92
ATOM     92  CD  ARG d   1      -8.720   5.564  -9.893  0.00  0.00     0.009 C 
ATOM     93  H   ARG d   1      -7.827   5.638 -10.514  0.00  0.00     0.064 H 
ATOM     94  H   ARG d   1      -9.118   6.540  -9.615  0.00  0.00     0.064 H 
BRANCH  92  95
ATOM     95  NE  ARG d   1      -9.745   4.862 -10.660  0.00  0.00    -0.227 N 
ATOM     96  CZ  ARG d   1     -10.663   5.477 -11.404  0.00  0.00     0.665 C 
ATOM     97  NH1 ARG d   1     -10.694   6.804 -11.468  0.00  0.00    -0.235 N 
ATOM     98  NH2 ARG d   1     -11.562   4.767 -12.074  0.00  0.00    -0.235 N 
ATOM     99  H   ARG d   1     -10.013   7.356 -10.946  0.00  0.00     0.174 HD
ATOM    100  H   ARG d   1     -11.399   7.271 -12.039  0.00  0.00     0.174 HD
ATOM    101  H   ARG d   1     -11.551   3.748 -12.020  0.00  0.00     0.174 HD
ATOM    102  H   ARG d   1     -12.264   5.240 -12.643  0.00  0.00     0.174 HD
ATOM    103  H   ARG d   1      -9.759   3.843 -10.624  0.00  0.00     0.177 HD
ENDBRANCH  92  95
ENDBRANCH  89  92
ENDBRANCH  86  89
ENDBRANCH  17  86
ENDBRANCH  15  17
ENDBRANCH  11  13
BRANCH  11 104
ATOM    104  CB  SER d   1      -9.553   3.842  -2.733  0.00  0.00     0.044 C 
ATOM    105  H   SER d   1     -10.118   4.665  -3.170  0.00  0.00     0.077 H 
ATOM    106  H   SER d   1      -8.768   4.216  -2.075  0.00  0.00     0.077 H 
BRANCH 104 107
ATOM    107  OG  SER d   1     -10.439   3.030  -1.973  0.00  0.00    -0.398 OA
ATOM    108  H   SER d   1      -9.951   2.298  -1.590  0.00  0.00     0.209 HD
ENDBRANCH 104 107
ENDBRANCH  11 104
ENDBRANCH   9  11
ENDBRANCH   5   7
BRANCH   5 109
ATOM    109  CB  TYR d   1      -6.712  -1.088  -4.521  0.00  0.00    -0.014 C 
ATOM    110  H   TYR d   1      -7.406  -1.765  -5.019  0.00  0.00     0.043 H 
ATOM    111  H   TYR d   1      -5.847  -1.583  -4.080  0.00  0.00     0.043 H 
BRANCH 109 112
ATOM    112  CG  TYR d   1      -6.188  -0.120  -5.579  0.00  0.00    -0.056 A 
ATOM    113  CD1 TYR d   1      -5.675   1.127  -5.230  0.00  0.00    -0.074 A 
ATOM    114  CE1 TYR d   1      -5.240   2.019  -6.192  0.00  0.00    -0.051 A 
ATOM    115  H   TYR d   1      -5.615   1.405  -4.178  0.00  0.00     0.084 H 
ATOM    116  CZ  TYR d   1      -5.300   1.667  -7.518  0.00  0.00     0.065 A 
ATOM    117  H   TYR d   1      -4.852   2.995  -5.900  0.00  0.00     0.087 H 
ATOM    118  CE2 TYR d   1      -5.784   0.451  -7.893  0.00  0.00    -0.051 A 
ATOM    119  CD2 TYR d   1      -6.233  -0.442  -6.934  0.00  0.00    -0.074 A 
ATOM    120  H   TYR d   1      -5.818   0.180  -8.948  0.00  0.00     0.087 H 
ATOM    121  H   TYR d   1      -6.627  -1.410  -7.244  0.00  0.00     0.084 H 
BRANCH 116 122
ATOM    122  OH  TYR d   1      -4.896   2.545  -8.490  0.00  0.00    -0.361 OA
ATOM    123  H   TYR d   1      -4.581   3.353  -8.079  0.00  0.00     0.217 HD
ENDBRANCH 116 122
ENDBRANCH 109 112
ENDBRANCH   5 109
ENDBRANCH   3   5
BRANCH   1 124
ATOM    124  CA  PRO d   1      -9.489  -2.157  -0.645  0.00  0.00     0.091 C 
ATOM    125  N   PRO d   1      -9.192  -2.047   0.792  0.00  0.00    -0.337 N 
ATOM    126  C   PRO d   1      -7.952  -1.847   1.281  0.00  0.00     0.243 C 
ATOM    127  CD  PRO d   1     -10.409  -2.174   1.600  0.00  0.00    -0.001 C 
ATOM    128  O   PRO d   1      -6.976  -1.701   0.548  0.00  0.00    -0.271 OA
ATOM    129  CG  PRO d   1     -11.474  -1.694   0.658  0.00  0.00    -0.048 C 
ATOM    130  H   PRO d   1     -10.368  -1.602   2.527  0.00  0.00     0.064 H 
ATOM    131  H   PRO d   1     -10.581  -3.189   1.958  0.00  0.00     0.064 H 
ATOM    132  CB  PRO d   1     -11.025  -2.088  -0.712  0.00  0.00    -0.036 C 
ATOM    133  H   PRO d   1     -12.441  -2.137   0.898  0.00  0.00     0.035 H 
ATOM    134  H   PRO d   1     -11.608  -0.615   0.733  0.00  0.00     0.035 H 
ATOM    135  H   PRO d   1     -11.453  -3.045  -1.010  0.00  0.00     0.036 H 
ATOM    136  H   PRO d   1     -11.358  -1.369  -1.461  0.00  0.00     0.036 H 
ATOM    137  H   PRO d   1      -9.076  -3.072  -1.071  0.00  0.00     0.087 H 
BRANCH 126 138
ATOM    138  CA  PRO d   1      -7.785  -1.818   2.802  0.00  0.00     0.092 C 
ATOM    139  N   PRO d   1      -6.766  -2.776   3.247  0.00  0.00    -0.337 N 
ATOM    140  C   PRO d   1      -6.914  -4.108   3.177  0.00  0.00     0.243 C 
ATOM    141  CD  PRO d   1      -5.571  -2.087   3.736  0.00  0.00    -0.001 C 
ATOM    142  O   PRO d   1      -7.887  -4.636   2.631  0.00  0.00    -0.271 OA
ATOM    143  CG  PRO d   1      -6.122  -0.786   4.207  0.00  0.00    -0.048 C 
ATOM    144  H   PRO d   1      -4.800  -1.974   2.974  0.00  0.00     0.064 H 
ATOM    145  H   PRO d   1      -5.049  -2.639   4.518  0.00  0.00     0.064 H 
ATOM    146  CB  PRO d   1      -7.225  -0.456   3.268  0.00  0.00    -0.036 C 
ATOM    147  H   PRO d   1      -6.480  -0.853   5.234  0.00  0.00     0.035 H 
ATOM    148  H   PRO d   1      -5.358  -0.009   4.213  0.00  0.00     0.035 H 
ATOM    149  H   PRO d   1      -7.993   0.150   3.748  0.00  0.00     0.036 H 
ATOM    150  H   PRO d   1      -6.871   0.141   2.428  0.00  0.00     0.036 H 
ATOM    151  H   PRO d   1      -8.773  -2.037   3.207  0.00  0.00     0.087 H 
BRANCH 140 152
ATOM    152  CA  PRO d   1      -5.780  -4.954   3.765  0.00  0.00     0.092 C 
ATOM    153  N   PRO d   1      -6.177  -6.341   4.033  0.00  0.00    -0.337 N 
ATOM    154  C   PRO d   1      -7.147  -6.680   4.892  0.00  0.00     0.243 C 
ATOM    155  CD  PRO d   1      -5.344  -7.297   3.296  0.00  0.00    -0.001 C 
ATOM    156  O   PRO d   1      -7.745  -5.848   5.577  0.00  0.00    -0.271 OA
ATOM    157  CG  PRO d   1      -4.781  -6.466   2.188  0.00  0.00    -0.048 C 
ATOM    158  H   PRO d   1      -5.907  -8.158   2.935  0.00  0.00     0.064 H 
ATOM    159  H   PRO d   1      -4.573  -7.753   3.917  0.00  0.00     0.064 H 
ATOM    160  CB  PRO d   1      -4.634  -5.100   2.752  0.00  0.00    -0.036 C 
ATOM    161  H   PRO d   1      -3.826  -6.859   1.839  0.00  0.00     0.035 H 
ATOM    162  H   PRO d   1      -5.433  -6.470   1.315  0.00  0.00     0.035 H 
ATOM    163  H   PRO d   1      -3.661  -4.964   3.224  0.00  0.00     0.036 H 
ATOM    164  H   PRO d   1      -4.686  -4.337   1.975  0.00  0.00     0.036 H 
ATOM    165  H   PRO d   1      -5.498  -4.434   4.681  0.00  0.00     0.087 H 
BRANCH 154 166
ATOM    166  CA  PRO d   1      -7.459  -8.173   5.013  0.00  0.00     0.092 C 
ATOM    167  N   PRO d   1      -7.252  -8.669   6.376  0.00  0.00    -0.337 N 
ATOM    168  C   SER d   1      -6.094  -8.496   7.039  0.00  0.00     0.245 C 
ATOM    169  CD  PRO d   1      -8.444  -9.356   6.888  0.00  0.00    -0.001 C 
ATOM    170  O   SER d   1      -5.130  -7.921   6.533  0.00  0.00    -0.271 OA
ATOM    171  CG  PRO d   1      -9.547  -8.746   6.075  0.00  0.00    -0.048 C 
ATOM    172  H   PRO d   1      -8.583  -9.226   7.961  0.00  0.00     0.064 H 
ATOM    173  H   PRO d   1      -8.388 -10.440   6.786  0.00  0.00     0.064 H 
ATOM    174  CB  PRO d   1      -8.949  -8.437   4.743  0.00  0.00    -0.036 C 
ATOM    175  H   PRO d   1     -10.393  -9.427   5.981  0.00  0.00     0.035 H 
ATOM    176  H   PRO d   1      -9.939  -7.847   6.551  0.00  0.00     0.035 H 
ATOM    177  H   PRO d   1      -9.088  -9.260   4.042  0.00  0.00     0.036 H 
ATOM    178  H   PRO d   1      -9.430  -7.575   4.280  0.00  0.00     0.036 H 
ATOM    179  H   PRO d   1      -6.799  -8.665   4.299  0.00  0.00     0.087 H 
BRANCH 168 180
ATOM    180  CA  SER d   1      -6.007  -9.012   8.473  0.00  0.00     0.109 C 
ATOM    181  H   SER d   1      -6.548  -9.956   8.533  0.00  0.00     0.090 H 
BRANCH 180 182
ATOM    182  N   SER d   1      -4.620  -9.235   8.857  0.00  0.00    -0.344 N 
ATOM    183  C   GLU d   1      -3.819 -10.061   8.195  0.00  0.00     0.241 C 
ATOM    184  O   GLU d   1      -4.204 -10.805   7.292  0.00  0.00    -0.271 OA
ATOM    185  H   SER d   1      -4.250  -8.737   9.666  0.00  0.00     0.163 HD
BRANCH 183 186
ATOM    186  CA  GLU d   1      -2.357 -10.042   8.618  0.00  0.00     0.090 C 
ATOM    187  H   GLU d   1      -2.303 -10.138   9.702  0.00  0.00     0.087 H 
BRANCH 186 188
ATOM    188  N   GLU d   1      -1.631 -11.160   8.031  0.00  0.00    -0.346 N 
ATOM    189  C   LEU d   1      -1.273 -12.218   8.741  0.00  0.00     0.241 C 
ATOM    190  O   LEU d   1      -1.569 -12.360   9.926  0.00  0.00    -0.271 OA
ATOM    191  H   GLU d   1      -1.391 -11.126   7.040  0.00  0.00     0.163 HD
BRANCH 189 192
ATOM    192  CA  LEU d   1      -0.499 -13.305   7.991  0.00  0.00     0.089 C 
ATOM    193  H   LEU d   1      -1.166 -14.157   7.859  0.00  0.00     0.087 H 
BRANCH 192 194
ATOM    194  N   LEU d   1      -0.091 -12.856   6.653  0.00  0.00    -0.346 N 
ATOM    195  C   GLU d   1       0.811 -11.889   6.450  0.00  0.00     0.249 C 
ATOM    196  O   GLU d   1       1.363 -11.273   7.358  0.00  0.00    -0.271 OA
ATOM    197  H   LEU d   1      -0.516 -13.303   5.840  0.00  0.00     0.163 HD
BRANCH 195 198
ATOM    198  CA  GLU d   1       1.124 -11.565   4.996  0.00  0.00     0.176 C 
ATOM    199  H   GLU d   1       1.922 -10.823   4.955  0.00  0.00     0.099 H 
BRANCH 198 200
ATOM    200  N   GLU d   1       1.598 -12.778   4.288  0.00  0.00    -0.066 N 
ATOM    201  H   GLU d   1       2.424 -13.145   4.761  0.00  0.00     0.275 HD
ATOM    202  H   GLU d   1       0.861 -13.483   4.293  0.00  0.00     0.275 HD
ATOM    203  H   GLU d   1       1.834 -12.538   3.325  0.00  0.00     0.275 HD
ENDBRANCH 198 200
BRANCH 198 204
ATOM    204  CB  GLU d   1      -0.123 -10.976   4.317  0.00  0.00    -0.021 C 
ATOM    205  H   GLU d   1      -0.515 -10.206   4.982  0.00  0.00     0.037 H 
ATOM    206  H   GLU d   1      -0.807 -11.804   4.132  0.00  0.00     0.037 H 
BRANCH 204 207
ATOM    207  CG  GLU d   1       0.146 -10.310   2.972  0.00  0.00     0.018 C 
ATOM    208  H   GLU d   1       0.942  -9.580   3.118  0.00  0.00     0.049 H 
ATOM    209  H   GLU d   1      -0.788  -9.863   2.631  0.00  0.00     0.049 H 
BRANCH 207 210
ATOM    210  CD  GLU d   1       0.605 -11.284   1.907  0.00  0.00     0.172 C 
ATOM    211  OE1 GLU d   1       1.796 -11.650   1.907  0.00  0.00    -0.648 OA
ATOM    212  OE2 GLU d   1      -0.227 -11.704   1.081  0.00  0.00    -0.648 OA
ENDBRANCH 207 210
ENDBRANCH 204 207
ENDBRANCH 198 204
ENDBRANCH 195 198
ENDBRANCH 192 194
BRANCH 192 213
ATOM    213  CB  LEU d   1       0.720 -13.754   8.809  0.00  0.00    -0.035 C 
ATOM    214  H   LEU d   1       0.341 -14.118   9.764  0.00  0.00     0.037 H 
ATOM    215  H   LEU d   1       1.388 -12.895   8.874  0.00  0.00     0.037 H 
BRANCH 213 216
ATOM    216  CG  LEU d   1       1.531 -14.897   8.192  0.00  0.00    -0.059 C 
ATOM    217  H   LEU d   1       1.902 -14.568   7.221  0.00  0.00     0.038 H 
BRANCH 216 218
ATOM    218  CD1 LEU d   1       2.721 -15.240   9.071  0.00  0.00    -0.073 C 
ATOM    219  H   LEU d   1       3.362 -14.364   9.171  0.00  0.00     0.028 H 
ATOM    220  H   LEU d   1       2.368 -15.547  10.055  0.00  0.00     0.028 H 
ATOM    221  H   LEU d   1       3.285 -16.054   8.616  0.00  0.00     0.028 H 
ENDBRANCH 216 218
BRANCH 216 222
ATOM    222  CD2 LEU d   1       0.656 -16.122   7.978  0.00  0.00    -0.073 C 
ATOM    223  H   LEU d   1       0.254 -16.451   8.936  0.00  0.00     0.028 H 
ATOM    224  H   LEU d   1      -0.164 -15.868   7.306  0.00  0.00     0.028 H 
ATOM    225  H   LEU d   1       1.253 -16.921   7.539  0.00  0.00     0.028 H 
ENDBRANCH 216 222
ENDBRANCH 213 216
ENDBRANCH 192 213
ENDBRANCH 189 192
ENDBRANCH 186 188
BRANCH 186 226
ATOM    226  CB  GLU d   1      -1.724  -8.718   8.186  0.00  0.00    -0.029 C 
ATOM    227  H   GLU d   1      -2.455  -7.933   8.378  0.00  0.00     0.037 H 
ATOM    228  H   GLU d   1      -1.446  -8.820   7.137  0.00  0.00     0.037 H 
BRANCH 226 229
ATOM    229  CG  GLU d   1      -0.465  -8.356   8.951  0.00  0.00     0.018 C 
ATOM    230  H   GLU d   1      -0.016  -7.486   8.471  0.00  0.00     0.049 H 
ATOM    231  H   GLU d   1       0.197  -9.222   8.941  0.00  0.00     0.049 H 
BRANCH 229 232
ATOM    232  CD  GLU d   1      -0.752  -8.000  10.395  0.00  0.00     0.172 C 
ATOM    233  OE1 GLU d   1      -0.789  -8.909  11.246  0.00  0.00    -0.648 OA
ATOM    234  OE2 GLU d   1      -0.951  -6.802  10.687  0.00  0.00    -0.648 OA
ENDBRANCH 229 232
ENDBRANCH 226 229
ENDBRANCH 186 226
ENDBRANCH 183 186
ENDBRANCH 180 182
BRANCH 180 235
ATOM    235  CB  SER d   1      -6.624  -7.988   9.421  0.00  0.00     0.044 C 
ATOM    236  H   SER d   1      -6.826  -8.471  10.377  0.00  0.00     0.077 H 
ATOM    237  H   SER d   1      -7.544  -7.608   8.977  0.00  0.00     0.077 H 
BRANCH 235 238
ATOM    238  OG  SER d   1      -5.738  -6.903   9.635  0.00  0.00    -0.398 OA
ATOM    239  H   SER d   1      -6.145  -6.272  10.233  0.00  0.00     0.209 HD
ENDBRANCH 235 238
ENDBRANCH 180 235
ENDBRANCH 168 180
ENDBRANCH 154 166
ENDBRANCH 140 152
ENDBRANCH 126 138
ENDBRANCH   1 124
TORSDOF 55
