REMARK WARNING: 32 MAX_TORS EXCEEDED!!!
REMARK  55 active torsions:
REMARK  status: ('A' for Active; 'I' for Inactive)
REMARK    1  A    between atoms: N_1  and  CA_2 
REMARK    2  A    between atoms: CA_2  and  C_3 
REMARK    3  A    between atoms: CA_2  and  CB_5 
REMARK       I    between atoms: C_3  and  N_10 
REMARK    4  A    between atoms: CB_5  and  CG_6 
REMARK    5  A    between atoms: CG_6  and  CD_7 
REMARK    6  A    between atoms: N_10  and  CA_11 
REMARK    7  A    between atoms: CA_11  and  C_12 
REMARK    8  A    between atoms: CA_11  and  CB_14 
REMARK       I    between atoms: C_12  and  N_18 
REMARK    9  A    between atoms: CB_14  and  CG_15 
REMARK   10  A    between atoms: CG_15  and  CD1_16 
REMARK   11  A    between atoms: CG_15  and  CD2_17 
REMARK   12  A    between atoms: N_18  and  CA_19 
REMARK   13  A    between atoms: CA_19  and  C_20 
REMARK   14  A    between atoms: CA_19  and  CB_22 
REMARK       I    between atoms: C_20  and  N_27 
REMARK   15  A    between atoms: CB_22  and  CG_23 
REMARK   16  A    between atoms: CG_23  and  CD_24 
REMARK   17  A    between atoms: N_27  and  CA_28 
REMARK   18  A    between atoms: CA_28  and  C_29 
REMARK   19  A    between atoms: CA_28  and  CB_31 
REMARK       I    between atoms: C_29  and  N_33 
REMARK   20  A    between atoms: CB_31  and  OG_32 
REMARK   21  A    between atoms: CA_34  and  C_35 
REMARK       I    between atoms: C_35  and  N_40 
REMARK   22  A    between atoms: CA_41  and  C_42 
REMARK       I    between atoms: C_42  and  N_47 
REMARK   23  A    between atoms: CA_48  and  C_49 
REMARK       I    between atoms: C_49  and  N_54 
REMARK   24  A    between atoms: CA_55  and  C_56 
REMARK       I    between atoms: C_56  and  N_61 
REMARK   25  A    between atoms: N_61  and  CA_62 
REMARK   26  A    between atoms: CA_62  and  C_63 
REMARK   27  A    between atoms: CA_62  and  CB_65 
REMARK       I    between atoms: C_63  and  N_73 
REMARK   28  A    between atoms: CB_65  and  CG_66 
REMARK   29  A    between atoms: CZ_71  and  OH_72 
REMARK   30  A    between atoms: N_73  and  CA_74 
REMARK   31  A    between atoms: CA_74  and  C_75 
REMARK   32  A    between atoms: CA_74  and  CB_77 
REMARK       I    between atoms: C_75  and  N_79 
REMARK   33  A    between atoms: CB_77  and  OG_78 
REMARK   34  A    between atoms: N_79  and  CA_80 
REMARK   35  A    between atoms: CA_80  and  C_81 
REMARK   36  A    between atoms: CA_80  and  CB_83 
REMARK       I    between atoms: C_81  and  N_90 
REMARK   37  A    between atoms: CB_83  and  CG_84 
REMARK   38  A    between atoms: CG_84  and  CD_85 
REMARK   39  A    between atoms: CD_85  and  NE_86 
REMARK       I    between atoms: NE_86  and  CZ_87 
REMARK       I    between atoms: CZ_87  and  NH1_88 
REMARK   40  A    between atoms: N_90  and  CA_91 
REMARK   41  A    between atoms: CA_91  and  C_92 
REMARK   42  A    between atoms: CA_91  and  CB_94 
REMARK       I    between atoms: C_92  and  N_102 
REMARK   43  A    between atoms: CB_94  and  CG_95 
REMARK   44  A    between atoms: CZ_100  and  OH_101 
REMARK   45  A    between atoms: CA_103  and  C_104 
REMARK       I    between atoms: C_104  and  N_109 
REMARK   46  A    between atoms: N_109  and  CA_110 
REMARK   47  A    between atoms: CA_110  and  C_111 
REMARK   48  A    between atoms: CA_110  and  CB_113 
REMARK       I    between atoms: C_111  and  N_117 
REMARK   49  A    between atoms: CB_113  and  CG_114 
REMARK   50  A    between atoms: CG_114  and  SD_115 
REMARK   51  A    between atoms: SD_115  and  CE_116 
REMARK   52  A    between atoms: N_117  and  CA_118 
REMARK   53  A    between atoms: CA_118  and  C_119 
REMARK   54  A    between atoms: CA_118  and  CB_121 
REMARK   55  A    between atoms: CB_121  and  CG_122 
ROOT
ATOM      1  C   PRO d   1       8.099   1.499   4.467  0.00  0.00     0.241 C 
ATOM      2  O   PRO d   1       8.718   2.352   3.827  0.00  0.00    -0.271 OA
ATOM      3  N   TYR d   1       6.885   1.698   4.949  0.00  0.00    -0.346 N 
ATOM      4  H   TYR d   1       6.458   0.982   5.537  0.00  0.00     0.163 HD
ENDROOT
BRANCH   3   5
ATOM      5  CA  TYR d   1       6.147   2.909   4.662  0.00  0.00     0.093 C 
ATOM      6  H   TYR d   1       6.477   3.290   3.695  0.00  0.00     0.088 H 
BRANCH   5   7
ATOM      7  C   TYR d   1       6.422   3.971   5.717  0.00  0.00     0.241 C 
ATOM      8  O   TYR d   1       6.145   3.771   6.898  0.00  0.00    -0.271 OA
ATOM      9  N   SER d   1       6.981   5.093   5.288  0.00  0.00    -0.344 N 
ATOM     10  H   SER d   1       7.251   5.175   4.308  0.00  0.00     0.163 HD
BRANCH   9  11
ATOM     11  CA  SER d   1       7.216   6.207   6.188  0.00  0.00     0.109 C 
ATOM     12  H   SER d   1       7.139   5.852   7.215  0.00  0.00     0.090 H 
BRANCH  11  13
ATOM     13  C   SER d   1       6.161   7.295   5.977  0.00  0.00     0.243 C 
ATOM     14  O   SER d   1       5.235   7.432   6.777  0.00  0.00    -0.271 OA
ATOM     15  N   ARG d   1       6.284   8.053   4.890  0.00  0.00    -0.346 N 
ATOM     16  H   ARG d   1       7.083   7.916   4.270  0.00  0.00     0.163 HD
BRANCH  15  17
ATOM     17  CA  ARG d   1       5.295   9.076   4.571  0.00  0.00     0.089 C 
ATOM     18  H   ARG d   1       4.515   9.036   5.332  0.00  0.00     0.087 H 
BRANCH  17  19
ATOM     19  C   ARG d   1       4.651   8.809   3.213  0.00  0.00     0.241 C 
ATOM     20  O   ARG d   1       3.426   8.771   3.089  0.00  0.00    -0.271 OA
ATOM     21  N   TYR d   1       5.487   8.641   2.195  0.00  0.00    -0.346 N 
ATOM     22  H   TYR d   1       6.490   8.714   2.363  0.00  0.00     0.163 HD
BRANCH  21  23
ATOM     23  CA  TYR d   1       5.015   8.356   0.845  0.00  0.00     0.093 C 
ATOM     24  H   TYR d   1       3.925   8.339   0.857  0.00  0.00     0.088 H 
BRANCH  23  25
ATOM     25  C   TYR d   1       5.531   6.996   0.388  0.00  0.00     0.243 C 
ATOM     26  O   TYR d   1       6.619   6.576   0.789  0.00  0.00    -0.271 OA
ATOM     27  N   PRO d   1       4.758   6.301  -0.458  0.00  0.00    -0.337 N 
ATOM     28  CA  PRO d   1       5.116   4.965  -0.956  0.00  0.00     0.091 C 
ATOM     29  CD  PRO d   1       3.465   6.760  -0.997  0.00  0.00    -0.001 C 
ATOM     30  CB  PRO d   1       3.851   4.510  -1.683  0.00  0.00    -0.036 C 
ATOM     31  H   PRO d   1       5.430   4.309  -0.145  0.00  0.00     0.087 H 
ATOM     32  CG  PRO d   1       3.173   5.771  -2.086  0.00  0.00    -0.048 C 
ATOM     33  H   PRO d   1       3.216   3.892  -1.047  0.00  0.00     0.036 H 
ATOM     34  H   PRO d   1       4.080   3.879  -2.542  0.00  0.00     0.036 H 
ATOM     35  H   PRO d   1       2.100   5.622  -2.208  0.00  0.00     0.035 H 
ATOM     36  H   PRO d   1       3.537   6.125  -3.050  0.00  0.00     0.035 H 
ATOM     37  H   PRO d   1       3.504   7.786  -1.362  0.00  0.00     0.064 H 
ATOM     38  H   PRO d   1       2.683   6.792  -0.239  0.00  0.00     0.064 H 
BRANCH  28  39
ATOM     39  C   PRO d   1       6.295   4.986  -1.926  0.00  0.00     0.241 C 
ATOM     40  O   PRO d   1       6.335   5.789  -2.858  0.00  0.00    -0.271 OA
ATOM     41  N   MET d   1       7.238   4.083  -1.711  0.00  0.00    -0.346 N 
ATOM     42  H   MET d   1       7.152   3.455  -0.912  0.00  0.00     0.163 HD
BRANCH  41  43
ATOM     43  CA  MET d   1       8.395   3.962  -2.585  0.00  0.00     0.090 C 
ATOM     44  H   MET d   1       8.170   4.433  -3.542  0.00  0.00     0.087 H 
BRANCH  43  45
ATOM     45  C   MET d   1       8.705   2.486  -2.833  0.00  0.00     0.241 C 
ATOM     46  O   MET d   1       8.876   1.714  -1.892  0.00  0.00    -0.271 OA
ATOM     47  N   ASP d   1       8.761   2.096  -4.102  0.00  0.00    -0.344 N 
ATOM     48  H   ASP d   1       8.654   2.793  -4.839  0.00  0.00     0.163 HD
BRANCH  47  49
ATOM     49  CA  ASP d   1       8.971   0.700  -4.474  0.00  0.00     0.105 C 
ATOM     50  H   ASP d   1       9.270   0.147  -3.584  0.00  0.00     0.090 H 
BRANCH  49  51
ATOM     51  C   ASP d   1      10.073   0.594  -5.517  0.00  0.00     0.197 C 
ATOM     52  O   ASP d   1       9.898   1.151  -6.619  0.00  0.00    -0.646 OA
ATOM     53  OXT ASP d   1      11.101  -0.053  -5.243  0.00  0.00    -0.646 OA
ENDBRANCH  49  51
BRANCH  49  54
ATOM     54  CB  ASP d   1       7.676   0.092  -5.021  0.00  0.00     0.044 C 
ATOM     55  H   ASP d   1       7.407   0.638  -5.925  0.00  0.00     0.053 H 
ATOM     56  H   ASP d   1       6.918   0.165  -4.241  0.00  0.00     0.053 H 
BRANCH  54  57
ATOM     57  CG  ASP d   1       7.822  -1.374  -5.391  0.00  0.00     0.175 C 
ATOM     58  OD1 ASP d   1       7.800  -2.230  -4.481  0.00  0.00    -0.648 OA
ATOM     59  OD2 ASP d   1       7.941  -1.682  -6.597  0.00  0.00    -0.648 OA
ENDBRANCH  54  57
ENDBRANCH  49  54
ENDBRANCH  47  49
ENDBRANCH  43  45
BRANCH  43  60
ATOM     60  CB  MET d   1       9.607   4.690  -1.980  0.00  0.00    -0.030 C 
ATOM     61  H   MET d   1       9.312   5.728  -1.828  0.00  0.00     0.037 H 
ATOM     62  H   MET d   1      10.439   4.552  -2.671  0.00  0.00     0.037 H 
BRANCH  60  63
ATOM     63  CG  MET d   1      10.057   4.153  -0.629  0.00  0.00    -0.021 C 
ATOM     64  H   MET d   1      10.338   3.108  -0.760  0.00  0.00     0.049 H 
ATOM     65  H   MET d   1       9.234   4.281   0.074  0.00  0.00     0.049 H 
BRANCH  63  66
ATOM     66  SD  MET d   1      11.489   5.035   0.027  0.00  0.00    -0.173 SA
BRANCH  66  67
ATOM     67  CE  MET d   1      10.840   6.702   0.137  0.00  0.00    -0.035 C 
ATOM     68  H   MET d   1      10.537   7.039  -0.854  0.00  0.00     0.041 H 
ATOM     69  H   MET d   1       9.978   6.712   0.804  0.00  0.00     0.041 H 
ATOM     70  H   MET d   1      11.611   7.366   0.527  0.00  0.00     0.041 H 
ENDBRANCH  66  67
ENDBRANCH  63  66
ENDBRANCH  60  63
ENDBRANCH  43  60
ENDBRANCH  41  43
ENDBRANCH  28  39
ENDBRANCH  23  25
BRANCH  23  71
ATOM     71  CB  TYR d   1       5.471   9.448  -0.131  0.00  0.00    -0.014 C 
ATOM     72  H   TYR d   1       5.247   9.096  -1.138  0.00  0.00     0.043 H 
ATOM     73  H   TYR d   1       6.531   9.623   0.052  0.00  0.00     0.043 H 
BRANCH  71  74
ATOM     74  CG  TYR d   1       4.759  10.774   0.050  0.00  0.00    -0.056 A 
ATOM     75  CD1 TYR d   1       5.248  11.730   0.925  0.00  0.00    -0.074 A 
ATOM     76  CE1 TYR d   1       4.610  12.942   1.094  0.00  0.00    -0.051 A 
ATOM     77  H   TYR d   1       6.155  11.521   1.492  0.00  0.00     0.084 H 
ATOM     78  CZ  TYR d   1       3.466  13.217   0.379  0.00  0.00     0.065 A 
ATOM     79  H   TYR d   1       5.010  13.679   1.791  0.00  0.00     0.087 H 
ATOM     80  CE2 TYR d   1       2.956  12.284  -0.500  0.00  0.00    -0.051 A 
ATOM     81  CD2 TYR d   1       3.601  11.070  -0.660  0.00  0.00    -0.074 A 
ATOM     82  H   TYR d   1       2.050  12.502  -1.065  0.00  0.00     0.087 H 
ATOM     83  H   TYR d   1       3.195  10.334  -1.354  0.00  0.00     0.084 H 
BRANCH  78  84
ATOM     84  OH  TYR d   1       2.831  14.428   0.549  0.00  0.00    -0.361 OA
ATOM     85  H   TYR d   1       3.314  14.954   1.191  0.00  0.00     0.217 HD
ENDBRANCH  78  84
ENDBRANCH  71  74
ENDBRANCH  23  71
ENDBRANCH  21  23
ENDBRANCH  17  19
BRANCH  17  86
ATOM     86  CB  ARG d   1       5.925  10.470   4.600  0.00  0.00    -0.036 C 
ATOM     87  H   ARG d   1       6.611  10.540   3.756  0.00  0.00     0.036 H 
ATOM     88  H   ARG d   1       6.418  10.590   5.565  0.00  0.00     0.036 H 
BRANCH  86  89
ATOM     89  CG  ARG d   1       4.907  11.590   4.460  0.00  0.00    -0.048 C 
ATOM     90  H   ARG d   1       4.189  11.504   5.276  0.00  0.00     0.035 H 
ATOM     91  H   ARG d   1       4.427  11.496   3.486  0.00  0.00     0.035 H 
BRANCH  89  92
ATOM     92  CD  ARG d   1       5.558  12.959   4.541  0.00  0.00     0.009 C 
ATOM     93  H   ARG d   1       6.313  13.025   3.758  0.00  0.00     0.064 H 
ATOM     94  H   ARG d   1       5.991  13.073   5.535  0.00  0.00     0.064 H 
BRANCH  92  95
ATOM     95  NE  ARG d   1       4.592  14.035   4.337  0.00  0.00    -0.227 N 
ATOM     96  CZ  ARG d   1       4.927  15.316   4.198  0.00  0.00     0.665 C 
ATOM     97  NH1 ARG d   1       6.197  15.693   4.283  0.00  0.00    -0.235 N 
ATOM     98  NH2 ARG d   1       3.987  16.226   3.988  0.00  0.00    -0.235 N 
ATOM     99  H   ARG d   1       6.925  14.999   4.456  0.00  0.00     0.174 HD
ATOM    100  H   ARG d   1       6.445  16.676   4.175  0.00  0.00     0.174 HD
ATOM    101  H   ARG d   1       3.008  15.945   3.933  0.00  0.00     0.174 HD
ATOM    102  H   ARG d   1       4.242  17.208   3.881  0.00  0.00     0.174 HD
ATOM    103  H   ARG d   1       3.602  13.791   4.299  0.00  0.00     0.177 HD
ENDBRANCH  92  95
ENDBRANCH  89  92
ENDBRANCH  86  89
ENDBRANCH  17  86
ENDBRANCH  15  17
ENDBRANCH  11  13
BRANCH  11 104
ATOM    104  CB  SER d   1       8.620   6.769   5.971  0.00  0.00     0.044 C 
ATOM    105  H   SER d   1       8.807   7.540   6.718  0.00  0.00     0.077 H 
ATOM    106  H   SER d   1       8.681   7.178   4.963  0.00  0.00     0.077 H 
BRANCH 104 107
ATOM    107  OG  SER d   1       9.602   5.754   6.110  0.00  0.00    -0.398 OA
ATOM    108  H   SER d   1      10.473   6.132   5.969  0.00  0.00     0.209 HD
ENDBRANCH 104 107
ENDBRANCH  11 104
ENDBRANCH   9  11
ENDBRANCH   5   7
BRANCH   5 109
ATOM    109  CB  TYR d   1       4.649   2.611   4.595  0.00  0.00    -0.014 C 
ATOM    110  H   TYR d   1       4.299   2.449   5.614  0.00  0.00     0.043 H 
ATOM    111  H   TYR d   1       4.514   1.743   3.950  0.00  0.00     0.043 H 
BRANCH 109 112
ATOM    112  CG  TYR d   1       3.843   3.742   4.011  0.00  0.00    -0.056 A 
ATOM    113  CD1 TYR d   1       3.722   3.880   2.638  0.00  0.00    -0.074 A 
ATOM    114  CE1 TYR d   1       2.993   4.909   2.089  0.00  0.00    -0.051 A 
ATOM    115  H   TYR d   1       4.213   3.161   1.982  0.00  0.00     0.084 H 
ATOM    116  CZ  TYR d   1       2.372   5.815   2.911  0.00  0.00     0.065 A 
ATOM    117  H   TYR d   1       2.909   5.004   1.006  0.00  0.00     0.087 H 
ATOM    118  CE2 TYR d   1       2.475   5.706   4.279  0.00  0.00    -0.051 A 
ATOM    119  CD2 TYR d   1       3.208   4.672   4.825  0.00  0.00    -0.074 A 
ATOM    120  H   TYR d   1       1.981   6.431   4.926  0.00  0.00     0.087 H 
ATOM    121  H   TYR d   1       3.290   4.584   5.908  0.00  0.00     0.084 H 
BRANCH 116 122
ATOM    122  OH  TYR d   1       1.651   6.841   2.363  0.00  0.00    -0.361 OA
ATOM    123  H   TYR d   1       2.030   7.679   2.637  0.00  0.00     0.217 HD
ENDBRANCH 116 122
ENDBRANCH 109 112
ENDBRANCH   5 109
ENDBRANCH   3   5
BRANCH   1 124
ATOM    124  CA  PRO d   1       8.703   0.130   4.750  0.00  0.00     0.091 C 
ATOM    125  N   PRO d   1       9.020  -0.606   3.523  0.00  0.00    -0.337 N 
ATOM    126  C   PRO d   1       8.149  -0.753   2.506  0.00  0.00     0.243 C 
ATOM    127  CD  PRO d   1      10.385  -1.141   3.557  0.00  0.00    -0.001 C 
ATOM    128  O   PRO d   1       7.033  -0.224   2.509  0.00  0.00    -0.271 OA
ATOM    129  CG  PRO d   1      11.085  -0.191   4.481  0.00  0.00    -0.048 C 
ATOM    130  H   PRO d   1      10.847  -1.195   2.571  0.00  0.00     0.064 H 
ATOM    131  H   PRO d   1      10.429  -2.176   3.896  0.00  0.00     0.064 H 
ATOM    132  CB  PRO d   1      10.057   0.269   5.464  0.00  0.00    -0.036 C 
ATOM    133  H   PRO d   1      11.921  -0.677   4.985  0.00  0.00     0.035 H 
ATOM    134  H   PRO d   1      11.508   0.650   3.932  0.00  0.00     0.035 H 
ATOM    135  H   PRO d   1      10.087  -0.326   6.377  0.00  0.00     0.036 H 
ATOM    136  H   PRO d   1      10.238   1.298   5.774  0.00  0.00     0.036 H 
ATOM    137  H   PRO d   1       7.954  -0.391   5.347  0.00  0.00     0.087 H 
BRANCH 126 138
ATOM    138  CA  PRO d   1       8.590  -1.607   1.321  0.00  0.00     0.092 C 
ATOM    139  N   PRO d   1       7.521  -2.510   0.889  0.00  0.00    -0.337 N 
ATOM    140  C   PRO d   1       6.946  -3.409   1.701  0.00  0.00     0.243 C 
ATOM    141  CD  PRO d   1       7.150  -2.289  -0.518  0.00  0.00    -0.001 C 
ATOM    142  O   PRO d   1       7.260  -3.534   2.889  0.00  0.00    -0.271 OA
ATOM    143  CG  PRO d   1       8.327  -1.546  -1.058  0.00  0.00    -0.048 C 
ATOM    144  H   PRO d   1       6.215  -1.740  -0.629  0.00  0.00     0.064 H 
ATOM    145  H   PRO d   1       6.951  -3.216  -1.055  0.00  0.00     0.064 H 
ATOM    146  CB  PRO d   1       8.836  -0.736   0.081  0.00  0.00    -0.036 C 
ATOM    147  H   PRO d   1       9.089  -2.225  -1.440  0.00  0.00     0.035 H 
ATOM    148  H   PRO d   1       8.051  -0.918  -1.905  0.00  0.00     0.035 H 
ATOM    149  H   PRO d   1       9.890  -0.486  -0.037  0.00  0.00     0.036 H 
ATOM    150  H   PRO d   1       8.329   0.226   0.153  0.00  0.00     0.036 H 
ATOM    151  H   PRO d   1       9.481  -2.136   1.659  0.00  0.00     0.087 H 
BRANCH 140 152
ATOM    152  CA  PRO d   1       5.836  -4.252   1.089  0.00  0.00     0.092 C 
ATOM    153  N   PRO d   1       5.725  -5.595   1.674  0.00  0.00    -0.337 N 
ATOM    154  C   PRO d   1       6.776  -6.422   1.842  0.00  0.00     0.243 C 
ATOM    155  CD  PRO d   1       4.323  -5.912   2.029  0.00  0.00    -0.001 C 
ATOM    156  O   PRO d   1       7.936  -6.092   1.577  0.00  0.00    -0.271 OA
ATOM    157  CG  PRO d   1       3.547  -4.769   1.441  0.00  0.00    -0.048 C 
ATOM    158  H   PRO d   1       4.175  -6.008   3.105  0.00  0.00     0.064 H 
ATOM    159  H   PRO d   1       4.002  -6.879   1.642  0.00  0.00     0.064 H 
ATOM    160  CB  PRO d   1       4.483  -3.626   1.411  0.00  0.00    -0.036 C 
ATOM    161  H   PRO d   1       3.179  -5.009   0.443  0.00  0.00     0.035 H 
ATOM    162  H   PRO d   1       2.661  -4.543   2.034  0.00  0.00     0.035 H 
ATOM    163  H   PRO d   1       4.192  -2.878   0.674  0.00  0.00     0.036 H 
ATOM    164  H   PRO d   1       4.497  -3.084   2.356  0.00  0.00     0.036 H 
ATOM    165  H   PRO d   1       6.081  -4.304   0.028  0.00  0.00     0.087 H 
BRANCH 154 166
ATOM    166  CA  PRO d   1       6.472  -7.818   2.382  0.00  0.00     0.092 C 
ATOM    167  N   PRO d   1       7.163  -8.880   1.636  0.00  0.00    -0.337 N 
ATOM    168  C   SER d   1       7.156  -8.956   0.293  0.00  0.00     0.245 C 
ATOM    169  CD  PRO d   1       7.828  -9.835   2.539  0.00  0.00    -0.001 C 
ATOM    170  O   SER d   1       6.649  -8.085  -0.409  0.00  0.00    -0.271 OA
ATOM    171  CG  PRO d   1       7.352  -9.416   3.899  0.00  0.00    -0.048 C 
ATOM    172  H   PRO d   1       8.914  -9.810   2.449  0.00  0.00     0.064 H 
ATOM    173  H   PRO d   1       7.580 -10.871   2.309  0.00  0.00     0.064 H 
ATOM    174  CB  PRO d   1       7.033  -7.970   3.792  0.00  0.00    -0.036 C 
ATOM    175  H   PRO d   1       6.479  -9.992   4.207  0.00  0.00     0.035 H 
ATOM    176  H   PRO d   1       8.113  -9.598   4.657  0.00  0.00     0.035 H 
ATOM    177  H   PRO d   1       6.325  -7.646   4.555  0.00  0.00     0.036 H 
ATOM    178  H   PRO d   1       7.908  -7.341   3.958  0.00  0.00     0.036 H 
ATOM    179  H   PRO d   1       5.388  -7.914   2.316  0.00  0.00     0.087 H 
BRANCH 168 180
ATOM    180  CA  SER d   1       7.824 -10.165  -0.360  0.00  0.00     0.109 C 
ATOM    181  H   SER d   1       7.824 -10.994   0.348  0.00  0.00     0.090 H 
BRANCH 180 182
ATOM    182  N   SER d   1       7.081 -10.529  -1.561  0.00  0.00    -0.344 N 
ATOM    183  C   GLU d   1       5.784 -10.820  -1.534  0.00  0.00     0.241 C 
ATOM    184  O   GLU d   1       5.123 -10.889  -0.495  0.00  0.00    -0.271 OA
ATOM    185  H   SER d   1       7.574 -10.562  -2.453  0.00  0.00     0.163 HD
BRANCH 183 186
ATOM    186  CA  GLU d   1       5.125 -11.059  -2.888  0.00  0.00     0.090 C 
ATOM    187  H   GLU d   1       5.845 -11.562  -3.534  0.00  0.00     0.087 H 
BRANCH 186 188
ATOM    188  N   GLU d   1       3.953 -11.916  -2.759  0.00  0.00    -0.346 N 
ATOM    189  C   LEU d   1       4.048 -13.226  -2.581  0.00  0.00     0.241 C 
ATOM    190  O   LEU d   1       5.127 -13.811  -2.460  0.00  0.00    -0.271 OA
ATOM    191  H   GLU d   1       3.026 -11.492  -2.808  0.00  0.00     0.163 HD
BRANCH 189 192
ATOM    192  CA  LEU d   1       2.725 -13.990  -2.474  0.00  0.00     0.089 C 
ATOM    193  H   LEU d   1       2.592 -14.292  -1.435  0.00  0.00     0.087 H 
BRANCH 192 194
ATOM    194  N   LEU d   1       1.577 -13.141  -2.832  0.00  0.00    -0.346 N 
ATOM    195  C   GLU d   1       1.373 -12.674  -4.071  0.00  0.00     0.249 C 
ATOM    196  O   GLU d   1       2.163 -12.857  -4.995  0.00  0.00    -0.271 OA
ATOM    197  H   LEU d   1       0.906 -12.897  -2.103  0.00  0.00     0.163 HD
BRANCH 195 198
ATOM    198  CA  GLU d   1       0.112 -11.838  -4.290  0.00  0.00     0.176 C 
ATOM    199  H   GLU d   1      -0.332 -12.121  -5.244  0.00  0.00     0.099 H 
BRANCH 198 200
ATOM    200  N   GLU d   1      -0.892 -12.102  -3.233  0.00  0.00    -0.066 N 
ATOM    201  H   GLU d   1      -1.119 -13.096  -3.222  0.00  0.00     0.275 HD
ATOM    202  H   GLU d   1      -0.510 -11.830  -2.327  0.00  0.00     0.275 HD
ATOM    203  H   GLU d   1      -1.735 -11.561  -3.424  0.00  0.00     0.275 HD
ENDBRANCH 198 200
BRANCH 198 204
ATOM    204  CB  GLU d   1       0.478 -10.347  -4.334  0.00  0.00    -0.021 C 
ATOM    205  H   GLU d   1       0.996 -10.169  -5.276  0.00  0.00     0.037 H 
ATOM    206  H   GLU d   1       1.080 -10.136  -3.450  0.00  0.00     0.037 H 
BRANCH 204 207
ATOM    207  CG  GLU d   1      -0.723  -9.414  -4.296  0.00  0.00     0.018 C 
ATOM    208  H   GLU d   1      -0.392  -8.430  -4.627  0.00  0.00     0.049 H 
ATOM    209  H   GLU d   1      -1.110  -9.409  -3.277  0.00  0.00     0.049 H 
BRANCH 207 210
ATOM    210  CD  GLU d   1      -1.841  -9.860  -5.214  0.00  0.00     0.172 C 
ATOM    211  OE1 GLU d   1      -1.809  -9.526  -6.416  0.00  0.00    -0.648 OA
ATOM    212  OE2 GLU d   1      -2.750 -10.566  -4.731  0.00  0.00    -0.648 OA
ENDBRANCH 207 210
ENDBRANCH 204 207
ENDBRANCH 198 204
ENDBRANCH 195 198
ENDBRANCH 192 194
BRANCH 192 213
ATOM    213  CB  LEU d   1       2.770 -15.247  -3.358  0.00  0.00    -0.035 C 
ATOM    214  H   LEU d   1       3.641 -15.820  -3.040  0.00  0.00     0.037 H 
ATOM    215  H   LEU d   1       2.791 -14.900  -4.391  0.00  0.00     0.037 H 
BRANCH 213 216
ATOM    216  CG  LEU d   1       1.561 -16.182  -3.234  0.00  0.00    -0.059 C 
ATOM    217  H   LEU d   1       0.666 -15.625  -3.512  0.00  0.00     0.038 H 
BRANCH 216 218
ATOM    218  CD1 LEU d   1       1.709 -17.366  -4.177  0.00  0.00    -0.073 C 
ATOM    219  H   LEU d   1       1.776 -17.005  -5.203  0.00  0.00     0.028 H 
ATOM    220  H   LEU d   1       2.614 -17.919  -3.925  0.00  0.00     0.028 H 
ATOM    221  H   LEU d   1       0.843 -18.020  -4.076  0.00  0.00     0.028 H 
ENDBRANCH 216 218
BRANCH 216 222
ATOM    222  CD2 LEU d   1       1.398 -16.663  -1.799  0.00  0.00    -0.073 C 
ATOM    223  H   LEU d   1       2.295 -17.203  -1.494  0.00  0.00     0.028 H 
ATOM    224  H   LEU d   1       1.249 -15.805  -1.144  0.00  0.00     0.028 H 
ATOM    225  H   LEU d   1       0.534 -17.325  -1.735  0.00  0.00     0.028 H 
ENDBRANCH 216 222
ENDBRANCH 213 216
ENDBRANCH 192 213
ENDBRANCH 189 192
ENDBRANCH 186 188
BRANCH 186 226
ATOM    226  CB  GLU d   1       4.721  -9.720  -3.508  0.00  0.00    -0.029 C 
ATOM    227  H   GLU d   1       5.537  -9.020  -3.331  0.00  0.00     0.037 H 
ATOM    228  H   GLU d   1       3.779  -9.420  -3.050  0.00  0.00     0.037 H 
BRANCH 226 229
ATOM    229  CG  GLU d   1       4.496  -9.784  -5.007  0.00  0.00     0.018 C 
ATOM    230  H   GLU d   1       4.107  -8.819  -5.333  0.00  0.00     0.049 H 
ATOM    231  H   GLU d   1       3.801 -10.599  -5.211  0.00  0.00     0.049 H 
BRANCH 229 232
ATOM    232  CD  GLU d   1       5.776 -10.056  -5.766  0.00  0.00     0.172 C 
ATOM    233  OE1 GLU d   1       6.627  -9.144  -5.843  0.00  0.00    -0.648 OA
ATOM    234  OE2 GLU d   1       5.949 -11.184  -6.271  0.00  0.00    -0.648 OA
ENDBRANCH 229 232
ENDBRANCH 226 229
ENDBRANCH 186 226
ENDBRANCH 183 186
ENDBRANCH 180 182
BRANCH 180 235
ATOM    235  CB  SER d   1       9.280  -9.844  -0.736  0.00  0.00     0.044 C 
ATOM    236  H   SER d   1       9.282  -8.962  -1.376  0.00  0.00     0.077 H 
ATOM    237  H   SER d   1       9.703 -10.712  -1.242  0.00  0.00     0.077 H 
BRANCH 235 238
ATOM    238  OG  SER d   1      10.072  -9.566   0.411  0.00  0.00    -0.398 OA
ATOM    239  H   SER d   1      10.971  -9.371   0.138  0.00  0.00     0.209 HD
ENDBRANCH 235 238
ENDBRANCH 180 235
ENDBRANCH 168 180
ENDBRANCH 154 166
ENDBRANCH 140 152
ENDBRANCH 126 138
ENDBRANCH   1 124
TORSDOF 55
