REMARK WARNING: 32 MAX_TORS EXCEEDED!!!
REMARK  55 active torsions:
REMARK  status: ('A' for Active; 'I' for Inactive)
REMARK    1  A    between atoms: N_1  and  CA_2 
REMARK    2  A    between atoms: CA_2  and  C_3 
REMARK    3  A    between atoms: CA_2  and  CB_5 
REMARK       I    between atoms: C_3  and  N_10 
REMARK    4  A    between atoms: CB_5  and  CG_6 
REMARK    5  A    between atoms: CG_6  and  CD_7 
REMARK    6  A    between atoms: N_10  and  CA_11 
REMARK    7  A    between atoms: CA_11  and  C_12 
REMARK    8  A    between atoms: CA_11  and  CB_14 
REMARK       I    between atoms: C_12  and  N_18 
REMARK    9  A    between atoms: CB_14  and  CG_15 
REMARK   10  A    between atoms: CG_15  and  CD1_16 
REMARK   11  A    between atoms: CG_15  and  CD2_17 
REMARK   12  A    between atoms: N_18  and  CA_19 
REMARK   13  A    between atoms: CA_19  and  C_20 
REMARK   14  A    between atoms: CA_19  and  CB_22 
REMARK       I    between atoms: C_20  and  N_27 
REMARK   15  A    between atoms: CB_22  and  CG_23 
REMARK   16  A    between atoms: CG_23  and  CD_24 
REMARK   17  A    between atoms: N_27  and  CA_28 
REMARK   18  A    between atoms: CA_28  and  C_29 
REMARK   19  A    between atoms: CA_28  and  CB_31 
REMARK       I    between atoms: C_29  and  N_33 
REMARK   20  A    between atoms: CB_31  and  OG_32 
REMARK   21  A    between atoms: CA_34  and  C_35 
REMARK       I    between atoms: C_35  and  N_40 
REMARK   22  A    between atoms: CA_41  and  C_42 
REMARK       I    between atoms: C_42  and  N_47 
REMARK   23  A    between atoms: CA_48  and  C_49 
REMARK       I    between atoms: C_49  and  N_54 
REMARK   24  A    between atoms: CA_55  and  C_56 
REMARK       I    between atoms: C_56  and  N_61 
REMARK   25  A    between atoms: N_61  and  CA_62 
REMARK   26  A    between atoms: CA_62  and  C_63 
REMARK   27  A    between atoms: CA_62  and  CB_65 
REMARK       I    between atoms: C_63  and  N_73 
REMARK   28  A    between atoms: CB_65  and  CG_66 
REMARK   29  A    between atoms: CZ_71  and  OH_72 
REMARK   30  A    between atoms: N_73  and  CA_74 
REMARK   31  A    between atoms: CA_74  and  C_75 
REMARK   32  A    between atoms: CA_74  and  CB_77 
REMARK       I    between atoms: C_75  and  N_79 
REMARK   33  A    between atoms: CB_77  and  OG_78 
REMARK   34  A    between atoms: N_79  and  CA_80 
REMARK   35  A    between atoms: CA_80  and  C_81 
REMARK   36  A    between atoms: CA_80  and  CB_83 
REMARK       I    between atoms: C_81  and  N_90 
REMARK   37  A    between atoms: CB_83  and  CG_84 
REMARK   38  A    between atoms: CG_84  and  CD_85 
REMARK   39  A    between atoms: CD_85  and  NE_86 
REMARK       I    between atoms: NE_86  and  CZ_87 
REMARK       I    between atoms: CZ_87  and  NH1_88 
REMARK   40  A    between atoms: N_90  and  CA_91 
REMARK   41  A    between atoms: CA_91  and  C_92 
REMARK   42  A    between atoms: CA_91  and  CB_94 
REMARK       I    between atoms: C_92  and  N_102 
REMARK   43  A    between atoms: CB_94  and  CG_95 
REMARK   44  A    between atoms: CZ_100  and  OH_101 
REMARK   45  A    between atoms: CA_103  and  C_104 
REMARK       I    between atoms: C_104  and  N_109 
REMARK   46  A    between atoms: N_109  and  CA_110 
REMARK   47  A    between atoms: CA_110  and  C_111 
REMARK   48  A    between atoms: CA_110  and  CB_113 
REMARK       I    between atoms: C_111  and  N_117 
REMARK   49  A    between atoms: CB_113  and  CG_114 
REMARK   50  A    between atoms: CG_114  and  SD_115 
REMARK   51  A    between atoms: SD_115  and  CE_116 
REMARK   52  A    between atoms: N_117  and  CA_118 
REMARK   53  A    between atoms: CA_118  and  C_119 
REMARK   54  A    between atoms: CA_118  and  CB_121 
REMARK   55  A    between atoms: CB_121  and  CG_122 
ROOT
ATOM      1  C   PRO d   1      -3.855   2.028  -8.734  0.00  0.00     0.241 C 
ATOM      2  O   PRO d   1      -4.487   2.630  -7.860  0.00  0.00    -0.271 OA
ATOM      3  N   TYR d   1      -2.659   2.425  -9.163  0.00  0.00    -0.346 N 
ATOM      4  H   TYR d   1      -2.243   1.973  -9.977  0.00  0.00     0.163 HD
ENDROOT
BRANCH   3   5
ATOM      5  CA  TYR d   1      -1.933   3.494  -8.490  0.00  0.00     0.093 C 
ATOM      6  H   TYR d   1      -1.909   3.206  -7.439  0.00  0.00     0.088 H 
BRANCH   5   7
ATOM      7  C   TYR d   1      -2.636   4.846  -8.587  0.00  0.00     0.241 C 
ATOM      8  O   TYR d   1      -2.531   5.566  -9.582  0.00  0.00    -0.271 OA
ATOM      9  N   SER d   1      -3.398   5.134  -7.560  0.00  0.00    -0.344 N 
ATOM     10  H   SER d   1      -3.678   4.376  -6.938  0.00  0.00     0.163 HD
BRANCH   9  11
ATOM     11  CA  SER d   1      -3.860   6.466  -7.264  0.00  0.00     0.109 C 
ATOM     12  H   SER d   1      -3.589   7.175  -8.047  0.00  0.00     0.090 H 
BRANCH  11  13
ATOM     13  C   SER d   1      -3.209   6.849  -5.949  0.00  0.00     0.243 C 
ATOM     14  O   SER d   1      -2.921   5.959  -5.145  0.00  0.00    -0.271 OA
ATOM     15  N   ARG d   1      -2.950   8.132  -5.715  0.00  0.00    -0.346 N 
ATOM     16  H   ARG d   1      -3.300   8.849  -6.351  0.00  0.00     0.163 HD
BRANCH  15  17
ATOM     17  CA  ARG d   1      -2.165   8.511  -4.547  0.00  0.00     0.089 C 
ATOM     18  H   ARG d   1      -1.179   8.062  -4.663  0.00  0.00     0.087 H 
BRANCH  17  19
ATOM     19  C   ARG d   1      -2.873   8.025  -3.298  0.00  0.00     0.241 C 
ATOM     20  O   ARG d   1      -2.281   7.362  -2.450  0.00  0.00    -0.271 OA
ATOM     21  N   TYR d   1      -4.128   8.412  -3.174  0.00  0.00    -0.346 N 
ATOM     22  H   TYR d   1      -4.530   9.025  -3.883  0.00  0.00     0.163 HD
BRANCH  21  23
ATOM     23  CA  TYR d   1      -4.950   7.992  -2.062  0.00  0.00     0.093 C 
ATOM     24  H   TYR d   1      -4.402   7.304  -1.417  0.00  0.00     0.088 H 
BRANCH  23  25
ATOM     25  C   TYR d   1      -6.164   7.241  -2.582  0.00  0.00     0.243 C 
ATOM     26  O   TYR d   1      -7.181   7.840  -2.930  0.00  0.00    -0.271 OA
ATOM     27  N   PRO d   1      -6.032   5.918  -2.698  0.00  0.00    -0.337 N 
ATOM     28  CA  PRO d   1      -7.072   5.060  -3.243  0.00  0.00     0.091 C 
ATOM     29  CD  PRO d   1      -4.853   5.158  -2.278  0.00  0.00    -0.001 C 
ATOM     30  CB  PRO d   1      -6.331   3.769  -3.622  0.00  0.00    -0.036 C 
ATOM     31  H   PRO d   1      -7.584   5.509  -4.094  0.00  0.00     0.087 H 
ATOM     32  CG  PRO d   1      -4.944   3.875  -3.050  0.00  0.00    -0.048 C 
ATOM     33  H   PRO d   1      -6.294   3.649  -4.705  0.00  0.00     0.036 H 
ATOM     34  H   PRO d   1      -6.848   2.896  -3.223  0.00  0.00     0.036 H 
ATOM     35  H   PRO d   1      -4.206   3.867  -3.852  0.00  0.00     0.035 H 
ATOM     36  H   PRO d   1      -4.743   3.028  -2.394  0.00  0.00     0.035 H 
ATOM     37  H   PRO d   1      -4.836   4.989  -1.201  0.00  0.00     0.064 H 
ATOM     38  H   PRO d   1      -3.926   5.694  -2.481  0.00  0.00     0.064 H 
BRANCH  28  39
ATOM     39  C   PRO d   1      -8.151   4.791  -2.207  0.00  0.00     0.241 C 
ATOM     40  O   PRO d   1      -7.860   4.322  -1.110  0.00  0.00    -0.271 OA
ATOM     41  N   MET d   1      -9.395   5.094  -2.545  0.00  0.00    -0.346 N 
ATOM     42  H   MET d   1      -9.603   5.388  -3.499  0.00  0.00     0.163 HD
BRANCH  41  43
ATOM     43  CA  MET d   1     -10.467   5.011  -1.567  0.00  0.00     0.090 C 
ATOM     44  H   MET d   1     -10.028   5.256  -0.600  0.00  0.00     0.087 H 
BRANCH  43  45
ATOM     45  C   MET d   1     -11.045   3.604  -1.481  0.00  0.00     0.241 C 
ATOM     46  O   MET d   1     -11.800   3.167  -2.354  0.00  0.00    -0.271 OA
ATOM     47  N   ASP d   1     -10.645   2.902  -0.436  0.00  0.00    -0.344 N 
ATOM     48  H   ASP d   1      -9.915   3.292   0.160  0.00  0.00     0.163 HD
BRANCH  47  49
ATOM     49  CA  ASP d   1     -11.197   1.598  -0.095  0.00  0.00     0.105 C 
ATOM     50  H   ASP d   1     -12.274   1.622  -0.261  0.00  0.00     0.090 H 
BRANCH  49  51
ATOM     51  C   ASP d   1     -10.870   1.310   1.355  0.00  0.00     0.197 C 
ATOM     52  O   ASP d   1      -9.669   1.176   1.656  0.00  0.00    -0.646 OA
ATOM     53  OXT ASP d   1     -11.794   1.265   2.187  0.00  0.00    -0.646 OA
ENDBRANCH  49  51
BRANCH  49  54
ATOM     54  CB  ASP d   1     -10.620   0.487  -0.973  0.00  0.00     0.044 C 
ATOM     55  H   ASP d   1      -9.584   0.322  -0.677  0.00  0.00     0.053 H 
ATOM     56  H   ASP d   1     -10.702   0.798  -2.014  0.00  0.00     0.053 H 
BRANCH  54  57
ATOM     57  CG  ASP d   1     -11.376  -0.820  -0.806  0.00  0.00     0.175 C 
ATOM     58  OD1 ASP d   1     -12.399  -1.005  -1.504  0.00  0.00    -0.648 OA
ATOM     59  OD2 ASP d   1     -10.957  -1.670   0.004  0.00  0.00    -0.648 OA
ENDBRANCH  54  57
ENDBRANCH  49  54
ENDBRANCH  47  49
ENDBRANCH  43  45
BRANCH  43  60
ATOM     60  CB  MET d   1     -11.576   6.023  -1.861  0.00  0.00    -0.030 C 
ATOM     61  H   MET d   1     -12.079   5.711  -2.776  0.00  0.00     0.037 H 
ATOM     62  H   MET d   1     -11.116   7.007  -1.946  0.00  0.00     0.037 H 
BRANCH  60  63
ATOM     63  CG  MET d   1     -12.619   6.091  -0.757  0.00  0.00    -0.021 C 
ATOM     64  H   MET d   1     -12.105   6.350   0.169  0.00  0.00     0.049 H 
ATOM     65  H   MET d   1     -13.118   5.123  -0.713  0.00  0.00     0.049 H 
BRANCH  63  66
ATOM     66  SD  MET d   1     -13.881   7.345  -1.052  0.00  0.00    -0.173 SA
BRANCH  66  67
ATOM     67  CE  MET d   1     -14.842   7.209   0.455  0.00  0.00    -0.035 C 
ATOM     68  H   MET d   1     -15.240   6.198   0.540  0.00  0.00     0.041 H 
ATOM     69  H   MET d   1     -14.204   7.423   1.312  0.00  0.00     0.041 H 
ATOM     70  H   MET d   1     -15.665   7.924   0.426  0.00  0.00     0.041 H 
ENDBRANCH  66  67
ENDBRANCH  63  66
ENDBRANCH  60  63
ENDBRANCH  43  60
ENDBRANCH  41  43
ENDBRANCH  28  39
ENDBRANCH  23  25
BRANCH  23  71
ATOM     71  CB  TYR d   1      -5.319   9.212  -1.205  0.00  0.00    -0.014 C 
ATOM     72  H   TYR d   1      -5.735   8.863  -0.260  0.00  0.00     0.043 H 
ATOM     73  H   TYR d   1      -6.043   9.817  -1.750  0.00  0.00     0.043 H 
BRANCH  71  74
ATOM     74  CG  TYR d   1      -4.097  10.060  -0.915  0.00  0.00    -0.056 A 
ATOM     75  CD1 TYR d   1      -3.561  10.883  -1.899  0.00  0.00    -0.074 A 
ATOM     76  CE1 TYR d   1      -2.407  11.597  -1.690  0.00  0.00    -0.051 A 
ATOM     77  H   TYR d   1      -4.069  10.963  -2.860  0.00  0.00     0.084 H 
ATOM     78  CZ  TYR d   1      -1.766  11.510  -0.476  0.00  0.00     0.065 A 
ATOM     79  H   TYR d   1      -2.002  12.228  -2.481  0.00  0.00     0.087 H 
ATOM     80  CE2 TYR d   1      -2.278  10.709   0.523  0.00  0.00    -0.051 A 
ATOM     81  CD2 TYR d   1      -3.432   9.981   0.299  0.00  0.00    -0.074 A 
ATOM     82  H   TYR d   1      -1.774  10.650   1.488  0.00  0.00     0.087 H 
ATOM     83  H   TYR d   1      -3.824   9.337   1.087  0.00  0.00     0.084 H 
BRANCH  78  84
ATOM     84  OH  TYR d   1      -0.595  12.202  -0.263  0.00  0.00    -0.361 OA
ATOM     85  H   TYR d   1       0.112  11.581  -0.074  0.00  0.00     0.217 HD
ENDBRANCH  78  84
ENDBRANCH  71  74
ENDBRANCH  23  71
ENDBRANCH  21  23
ENDBRANCH  17  19
BRANCH  17  86
ATOM     86  CB  ARG d   1      -2.004  10.031  -4.419  0.00  0.00    -0.036 C 
ATOM     87  H   ARG d   1      -1.270  10.196  -3.630  0.00  0.00     0.036 H 
ATOM     88  H   ARG d   1      -3.002  10.430  -4.235  0.00  0.00     0.036 H 
BRANCH  86  89
ATOM     89  CG  ARG d   1      -1.481  10.746  -5.640  0.00  0.00    -0.048 C 
ATOM     90  H   ARG d   1      -2.217  10.646  -6.438  0.00  0.00     0.035 H 
ATOM     91  H   ARG d   1      -0.525  10.301  -5.915  0.00  0.00     0.035 H 
BRANCH  89  92
ATOM     92  CD  ARG d   1      -1.261  12.230  -5.374  0.00  0.00     0.009 C 
ATOM     93  H   ARG d   1      -2.224  12.735  -5.451  0.00  0.00     0.064 H 
ATOM     94  H   ARG d   1      -0.542  12.603  -6.103  0.00  0.00     0.064 H 
BRANCH  92  95
ATOM     95  NE  ARG d   1      -0.723  12.476  -4.036  0.00  0.00    -0.227 N 
ATOM     96  CZ  ARG d   1       0.439  13.074  -3.782  0.00  0.00     0.665 C 
ATOM     97  NH1 ARG d   1       1.200  13.512  -4.774  0.00  0.00    -0.235 N 
ATOM     98  NH2 ARG d   1       0.823  13.250  -2.523  0.00  0.00    -0.235 N 
ATOM     99  H   ARG d   1       0.897  13.392  -5.740  0.00  0.00     0.174 HD
ATOM    100  H   ARG d   1       2.089  13.969  -4.571  0.00  0.00     0.174 HD
ATOM    101  H   ARG d   1       0.229  12.928  -1.759  0.00  0.00     0.174 HD
ATOM    102  H   ARG d   1       1.712  13.707  -2.320  0.00  0.00     0.174 HD
ATOM    103  H   ARG d   1      -1.279  12.166  -3.239  0.00  0.00     0.177 HD
ENDBRANCH  92  95
ENDBRANCH  89  92
ENDBRANCH  86  89
ENDBRANCH  17  86
ENDBRANCH  15  17
ENDBRANCH  11  13
BRANCH  11 104
ATOM    104  CB  SER d   1      -5.389   6.501  -7.179  0.00  0.00     0.044 C 
ATOM    105  H   SER d   1      -5.792   6.418  -8.188  0.00  0.00     0.077 H 
ATOM    106  H   SER d   1      -5.686   7.436  -6.704  0.00  0.00     0.077 H 
BRANCH 104 107
ATOM    107  OG  SER d   1      -5.893   5.425  -6.405  0.00  0.00    -0.398 OA
ATOM    108  H   SER d   1      -5.630   4.593  -6.806  0.00  0.00     0.209 HD
ENDBRANCH 104 107
ENDBRANCH  11 104
ENDBRANCH   9  11
ENDBRANCH   5   7
BRANCH   5 109
ATOM    109  CB  TYR d   1      -0.500   3.622  -8.999  0.00  0.00    -0.014 C 
ATOM    110  H   TYR d   1      -0.539   4.030 -10.009  0.00  0.00     0.043 H 
ATOM    111  H   TYR d   1      -0.042   2.634  -8.961  0.00  0.00     0.043 H 
BRANCH 109 112
ATOM    112  CG  TYR d   1       0.342   4.557  -8.153  0.00  0.00    -0.056 A 
ATOM    113  CD1 TYR d   1       0.658   4.222  -6.844  0.00  0.00    -0.074 A 
ATOM    114  CE1 TYR d   1       1.427   5.053  -6.059  0.00  0.00    -0.051 A 
ATOM    115  H   TYR d   1       0.291   3.283  -6.429  0.00  0.00     0.084 H 
ATOM    116  CZ  TYR d   1       1.893   6.238  -6.569  0.00  0.00     0.065 A 
ATOM    117  H   TYR d   1       1.665   4.769  -5.034  0.00  0.00     0.087 H 
ATOM    118  CE2 TYR d   1       1.597   6.604  -7.863  0.00  0.00    -0.051 A 
ATOM    119  CD2 TYR d   1       0.825   5.764  -8.653  0.00  0.00    -0.074 A 
ATOM    120  H   TYR d   1       1.967   7.548  -8.264  0.00  0.00     0.087 H 
ATOM    121  H   TYR d   1       0.594   6.053  -9.678  0.00  0.00     0.084 H 
BRANCH 116 122
ATOM    122  OH  TYR d   1       2.670   7.053  -5.781  0.00  0.00    -0.361 OA
ATOM    123  H   TYR d   1       2.243   7.908  -5.687  0.00  0.00     0.217 HD
ENDBRANCH 116 122
ENDBRANCH 109 112
ENDBRANCH   5 109
ENDBRANCH   3   5
BRANCH   1 124
ATOM    124  CA  PRO d   1      -4.445   0.783  -9.388  0.00  0.00     0.091 C 
ATOM    125  N   PRO d   1      -5.178  -0.036  -8.410  0.00  0.00    -0.337 N 
ATOM    126  C   PRO d   1      -4.632  -0.468  -7.257  0.00  0.00     0.243 C 
ATOM    127  CD  PRO d   1      -6.556  -0.312  -8.847  0.00  0.00    -0.001 C 
ATOM    128  O   PRO d   1      -3.449  -0.267  -6.974  0.00  0.00    -0.271 OA
ATOM    129  CG  PRO d   1      -6.555   0.110 -10.289  0.00  0.00    -0.048 C 
ATOM    130  H   PRO d   1      -7.298   0.223  -8.255  0.00  0.00     0.064 H 
ATOM    131  H   PRO d   1      -6.835  -1.358  -8.717  0.00  0.00     0.064 H 
ATOM    132  CB  PRO d   1      -5.521   1.174 -10.404  0.00  0.00    -0.036 C 
ATOM    133  H   PRO d   1      -6.332  -0.730 -10.946  0.00  0.00     0.035 H 
ATOM    134  H   PRO d   1      -7.535   0.477 -10.594  0.00  0.00     0.035 H 
ATOM    135  H   PRO d   1      -5.119   1.243 -11.415  0.00  0.00     0.036 H 
ATOM    136  H   PRO d   1      -5.931   2.163 -10.201  0.00  0.00     0.036 H 
ATOM    137  H   PRO d   1      -3.604   0.251  -9.832  0.00  0.00     0.087 H 
BRANCH 126 138
ATOM    138  CA  PRO d   1      -5.545  -1.227  -6.288  0.00  0.00     0.092 C 
ATOM    139  N   PRO d   1      -4.917  -2.439  -5.745  0.00  0.00    -0.337 N 
ATOM    140  C   PRO d   1      -4.298  -3.369  -6.501  0.00  0.00     0.243 C 
ATOM    141  CD  PRO d   1      -5.072  -2.543  -4.286  0.00  0.00    -0.001 C 
ATOM    142  O   PRO d   1      -4.257  -3.316  -7.734  0.00  0.00    -0.271 OA
ATOM    143  CG  PRO d   1      -5.697  -1.248  -3.859  0.00  0.00    -0.048 C 
ATOM    144  H   PRO d   1      -4.114  -2.707  -3.792  0.00  0.00     0.064 H 
ATOM    145  H   PRO d   1      -5.690  -3.397  -4.009  0.00  0.00     0.064 H 
ATOM    146  CB  PRO d   1      -5.792  -0.356  -5.047  0.00  0.00    -0.036 C 
ATOM    147  H   PRO d   1      -6.691  -1.431  -3.450  0.00  0.00     0.035 H 
ATOM    148  H   PRO d   1      -5.088  -0.777  -3.087  0.00  0.00     0.035 H 
ATOM    149  H   PRO d   1      -6.774   0.115  -5.097  0.00  0.00     0.036 H 
ATOM    150  H   PRO d   1      -5.055   0.445  -4.986  0.00  0.00     0.036 H 
ATOM    151  H   PRO d   1      -6.442  -1.474  -6.855  0.00  0.00     0.087 H 
BRANCH 140 152
ATOM    152  CA  PRO d   1      -3.637  -4.517  -5.734  0.00  0.00     0.092 C 
ATOM    153  N   PRO d   1      -3.266  -5.654  -6.570  0.00  0.00    -0.337 N 
ATOM    154  C   PRO d   1      -4.151  -6.599  -6.945  0.00  0.00     0.243 C 
ATOM    155  CD  PRO d   1      -1.838  -5.618  -6.905  0.00  0.00    -0.001 C 
ATOM    156  O   PRO d   1      -5.355  -6.501  -6.691  0.00  0.00    -0.271 OA
ATOM    157  CG  PRO d   1      -1.232  -4.907  -5.729  0.00  0.00    -0.048 C 
ATOM    158  H   PRO d   1      -1.639  -5.114  -7.851  0.00  0.00     0.064 H 
ATOM    159  H   PRO d   1      -1.416  -6.611  -7.061  0.00  0.00     0.064 H 
ATOM    160  CB  PRO d   1      -2.302  -4.051  -5.127  0.00  0.00    -0.036 C 
ATOM    161  H   PRO d   1      -0.859  -5.625  -4.998  0.00  0.00     0.035 H 
ATOM    162  H   PRO d   1      -0.386  -4.297  -6.045  0.00  0.00     0.035 H 
ATOM    163  H   PRO d   1      -2.314  -4.151  -4.042  0.00  0.00     0.036 H 
ATOM    164  H   PRO d   1      -2.124  -2.998  -5.344  0.00  0.00     0.036 H 
ATOM    165  H   PRO d   1      -4.384  -4.813  -4.998  0.00  0.00     0.087 H 
BRANCH 154 166
ATOM    166  CA  PRO d   1      -3.609  -7.823  -7.689  0.00  0.00     0.092 C 
ATOM    167  N   PRO d   1      -3.889  -9.064  -6.970  0.00  0.00    -0.337 N 
ATOM    168  C   SER d   1      -3.652  -9.256  -5.680  0.00  0.00     0.245 C 
ATOM    169  CD  PRO d   1      -4.410 -10.121  -7.827  0.00  0.00    -0.001 C 
ATOM    170  O   SER d   1      -3.222  -8.389  -4.922  0.00  0.00    -0.271 OA
ATOM    171  CG  PRO d   1      -4.527  -9.486  -9.188  0.00  0.00    -0.048 C 
ATOM    172  H   PRO d   1      -5.368 -10.499  -7.470  0.00  0.00     0.064 H 
ATOM    173  H   PRO d   1      -3.757 -10.993  -7.840  0.00  0.00     0.064 H 
ATOM    174  CB  PRO d   1      -4.371  -8.010  -9.006  0.00  0.00    -0.036 C 
ATOM    175  H   PRO d   1      -3.759  -9.872  -9.858  0.00  0.00     0.035 H 
ATOM    176  H   PRO d   1      -5.494  -9.716  -9.636  0.00  0.00     0.035 H 
ATOM    177  H   PRO d   1      -3.830  -7.565  -9.841  0.00  0.00     0.036 H 
ATOM    178  H   PRO d   1      -5.340  -7.512  -8.975  0.00  0.00     0.036 H 
ATOM    179  H   PRO d   1      -2.540  -7.647  -7.811  0.00  0.00     0.087 H 
BRANCH 168 180
ATOM    180  CA  SER d   1      -3.998 -10.652  -5.194  0.00  0.00     0.109 C 
ATOM    181  H   SER d   1      -3.757 -11.338  -6.006  0.00  0.00     0.090 H 
BRANCH 180 182
ATOM    182  N   SER d   1      -3.212 -11.046  -4.033  0.00  0.00    -0.344 N 
ATOM    183  C   GLU d   1      -1.895 -10.917  -3.975  0.00  0.00     0.241 C 
ATOM    184  O   GLU d   1      -1.207 -10.546  -4.927  0.00  0.00    -0.271 OA
ATOM    185  H   SER d   1      -3.698 -11.440  -3.227  0.00  0.00     0.163 HD
BRANCH 183 186
ATOM    186  CA  GLU d   1      -1.235 -11.295  -2.649  0.00  0.00     0.090 C 
ATOM    187  H   GLU d   1      -1.683 -12.224  -2.296  0.00  0.00     0.087 H 
BRANCH 186 188
ATOM    188  N   GLU d   1       0.188 -11.465  -2.859  0.00  0.00    -0.346 N 
ATOM    189  C   LEU d   1       0.702 -12.616  -3.250  0.00  0.00     0.241 C 
ATOM    190  O   LEU d   1       0.029 -13.638  -3.385  0.00  0.00    -0.271 OA
ATOM    191  H   GLU d   1       0.810 -10.673  -2.700  0.00  0.00     0.163 HD
BRANCH 189 192
ATOM    192  CA  LEU d   1       2.206 -12.615  -3.512  0.00  0.00     0.089 C 
ATOM    193  H   LEU d   1       2.401 -13.203  -4.409  0.00  0.00     0.087 H 
BRANCH 192 194
ATOM    194  N   LEU d   1       2.691 -11.256  -3.745  0.00  0.00    -0.346 N 
ATOM    195  C   GLU d   1       2.361 -10.569  -4.836  0.00  0.00     0.249 C 
ATOM    196  O   GLU d   1       1.657 -11.031  -5.732  0.00  0.00    -0.271 OA
ATOM    197  H   LEU d   1       3.300 -10.822  -3.051  0.00  0.00     0.163 HD
BRANCH 195 198
ATOM    198  CA  GLU d   1       2.913  -9.154  -4.939  0.00  0.00     0.176 C 
ATOM    199  H   GLU d   1       3.618  -8.980  -4.126  0.00  0.00     0.099 H 
BRANCH 198 200
ATOM    200  N   GLU d   1       3.630  -8.988  -6.223  0.00  0.00    -0.066 N 
ATOM    201  H   GLU d   1       4.382  -9.675  -6.283  0.00  0.00     0.275 HD
ATOM    202  H   GLU d   1       2.978  -9.127  -6.995  0.00  0.00     0.275 HD
ATOM    203  H   GLU d   1       4.022  -8.048  -6.273  0.00  0.00     0.275 HD
ENDBRANCH 198 200
BRANCH 198 204
ATOM    204  CB  GLU d   1       1.768  -8.132  -4.812  0.00  0.00    -0.021 C 
ATOM    205  H   GLU d   1       1.235  -8.362  -3.890  0.00  0.00     0.037 H 
ATOM    206  H   GLU d   1       1.163  -8.216  -5.715  0.00  0.00     0.037 H 
BRANCH 204 207
ATOM    207  CG  GLU d   1       2.227  -6.679  -4.713  0.00  0.00     0.018 C 
ATOM    208  H   GLU d   1       2.944  -6.614  -3.895  0.00  0.00     0.049 H 
ATOM    209  H   GLU d   1       1.341  -6.063  -4.558  0.00  0.00     0.049 H 
BRANCH 207 210
ATOM    210  CD  GLU d   1       2.917  -6.184  -5.969  0.00  0.00     0.172 C 
ATOM    211  OE1 GLU d   1       4.137  -6.402  -6.104  0.00  0.00    -0.648 OA
ATOM    212  OE2 GLU d   1       2.243  -5.594  -6.833  0.00  0.00    -0.648 OA
ENDBRANCH 207 210
ENDBRANCH 204 207
ENDBRANCH 198 204
ENDBRANCH 195 198
ENDBRANCH 192 194
BRANCH 192 213
ATOM    213  CB  LEU d   1       2.945 -13.252  -2.332  0.00  0.00    -0.035 C 
ATOM    214  H   LEU d   1       2.642 -12.702  -1.441  0.00  0.00     0.037 H 
ATOM    215  H   LEU d   1       4.008 -13.207  -2.569  0.00  0.00     0.037 H 
BRANCH 213 216
ATOM    216  CG  LEU d   1       2.617 -14.725  -2.070  0.00  0.00    -0.059 C 
ATOM    217  H   LEU d   1       1.535 -14.825  -1.980  0.00  0.00     0.038 H 
BRANCH 216 218
ATOM    218  CD1 LEU d   1       3.078 -15.593  -3.232  0.00  0.00    -0.073 C 
ATOM    219  H   LEU d   1       2.572 -15.275  -4.144  0.00  0.00     0.028 H 
ATOM    220  H   LEU d   1       4.156 -15.488  -3.357  0.00  0.00     0.028 H 
ATOM    221  H   LEU d   1       2.835 -16.635  -3.024  0.00  0.00     0.028 H 
ENDBRANCH 216 218
BRANCH 216 222
ATOM    222  CD2 LEU d   1       3.250 -15.188  -0.768  0.00  0.00    -0.073 C 
ATOM    223  H   LEU d   1       4.332 -15.071  -0.830  0.00  0.00     0.028 H 
ATOM    224  H   LEU d   1       2.865 -14.587   0.056  0.00  0.00     0.028 H 
ATOM    225  H   LEU d   1       3.006 -16.237  -0.600  0.00  0.00     0.028 H 
ENDBRANCH 216 222
ENDBRANCH 213 216
ENDBRANCH 192 213
ENDBRANCH 189 192
ENDBRANCH 186 188
BRANCH 186 226
ATOM    226  CB  GLU d   1      -1.464 -10.215  -1.579  0.00  0.00    -0.029 C 
ATOM    227  H   GLU d   1      -1.091  -9.278  -1.992  0.00  0.00     0.037 H 
ATOM    228  H   GLU d   1      -0.956 -10.553  -0.676  0.00  0.00     0.037 H 
BRANCH 226 229
ATOM    229  CG  GLU d   1      -2.922  -9.983  -1.204  0.00  0.00     0.018 C 
ATOM    230  H   GLU d   1      -3.421  -9.543  -2.067  0.00  0.00     0.049 H 
ATOM    231  H   GLU d   1      -2.941  -9.336  -0.327  0.00  0.00     0.049 H 
BRANCH 229 232
ATOM    232  CD  GLU d   1      -3.652 -11.263  -0.850  0.00  0.00     0.172 C 
ATOM    233  OE1 GLU d   1      -3.525 -11.738   0.298  0.00  0.00    -0.648 OA
ATOM    234  OE2 GLU d   1      -4.356 -11.804  -1.730  0.00  0.00    -0.648 OA
ENDBRANCH 229 232
ENDBRANCH 226 229
ENDBRANCH 186 226
ENDBRANCH 183 186
ENDBRANCH 180 182
BRANCH 180 235
ATOM    235  CB  SER d   1      -5.477 -10.746  -4.863  0.00  0.00     0.044 C 
ATOM    236  H   SER d   1      -5.797 -11.778  -5.011  0.00  0.00     0.077 H 
ATOM    237  H   SER d   1      -6.018 -10.059  -5.513  0.00  0.00     0.077 H 
BRANCH 235 238
ATOM    238  OG  SER d   1      -5.739 -10.385  -3.512  0.00  0.00    -0.398 OA
ATOM    239  H   SER d   1      -5.260 -10.975  -2.926  0.00  0.00     0.209 HD
ENDBRANCH 235 238
ENDBRANCH 180 235
ENDBRANCH 168 180
ENDBRANCH 154 166
ENDBRANCH 140 152
ENDBRANCH 126 138
ENDBRANCH   1 124
TORSDOF 55
