REMARK  3 active torsions:
REMARK  status: ('A' for Active; 'I' for Inactive)
REMARK    1  A    between atoms: C5_9  and  N2_6 
REMARK    2  A    between atoms: N2_6  and  C10_11 
REMARK    3  A    between atoms: C9_10  and  C5_9 
ROOT
ATOM      1  C10 A2Y d   1       0.198   5.876   0.640  0.00  0.00     0.127 C 
ATOM      2  C61 A2Y d   1      -1.225   5.294   0.889  0.00  0.00    -0.030 C 
ATOM      3  C62 A2Y d   1       1.114   5.317   1.763  0.00  0.00    -0.030 C 
ATOM      4  C63 A2Y d   1       0.717   5.287  -0.708  0.00  0.00    -0.030 C 
ATOM      5  C71 A2Y d   1      -1.207   3.747   0.898  0.00  0.00    -0.051 C 
ATOM      6  C72 A2Y d   1       1.126   3.773   1.774  0.00  0.00    -0.051 C 
ATOM      7  C73 A2Y d   1       0.723   3.743  -0.685  0.00  0.00    -0.051 C 
ATOM      8  C81 A2Y d   1      -0.288   3.239   2.015  0.00  0.00    -0.058 C 
ATOM      9  C82 A2Y d   1       1.642   3.239   0.434  0.00  0.00    -0.058 C 
ATOM     10  C83 A2Y d   1      -0.700   3.221  -0.450  0.00  0.00    -0.058 C 
ATOM     11  H9  A2Y d   1      -1.898   5.640   0.091  0.00  0.00     0.037 H 
ATOM     12  H10 A2Y d   1      -1.594   5.654   1.861  0.00  0.00     0.037 H 
ATOM     13  H11 A2Y d   1       0.747   5.678   2.735  0.00  0.00     0.037 H 
ATOM     14  H12 A2Y d   1       2.139   5.680   1.601  0.00  0.00     0.037 H 
ATOM     15  H13 A2Y d   1       1.742   5.646  -0.884  0.00  0.00     0.037 H 
ATOM     16  H14 A2Y d   1       0.063   5.630  -1.523  0.00  0.00     0.037 H 
ATOM     17  H15 A2Y d   1      -2.228   3.376   1.071  0.00  0.00     0.040 H 
ATOM     18  H16 A2Y d   1       1.787   3.425   2.581  0.00  0.00     0.040 H 
ATOM     19  H17 A2Y d   1       1.091   3.369  -1.652  0.00  0.00     0.040 H 
ATOM     20  H18 A2Y d   1      -0.273   2.139   2.010  0.00  0.00     0.034 H 
ATOM     21  H19 A2Y d   1      -0.657   3.596   2.988  0.00  0.00     0.034 H 
ATOM     22  H20 A2Y d   1       1.638   2.139   0.448  0.00  0.00     0.034 H 
ATOM     23  H21 A2Y d   1       2.667   3.600   0.262  0.00  0.00     0.034 H 
ATOM     24  H22 A2Y d   1      -1.360   3.574  -1.256  0.00  0.00     0.034 H 
ATOM     25  H23 A2Y d   1      -0.692   2.121  -0.438  0.00  0.00     0.034 H 
ENDROOT
BRANCH   1  26
ATOM     26  N2  A2Y d   1       0.207   7.359   0.651  0.00  0.00    -0.061 N 
ATOM     27  H3  A2Y d   1      -0.131   7.649   1.555  0.00  0.00     0.278 HD
ATOM     28  H4  A2Y d   1       1.166   7.649   0.542  0.00  0.00     0.278 HD
BRANCH  26  29
ATOM     29  C5  A2Y d   1      -0.577   8.087  -0.353  0.00  0.00     0.124 C 
ATOM     30  H7  A2Y d   1      -1.651   7.964  -0.147  0.00  0.00     0.085 H 
ATOM     31  H8  A2Y d   1      -0.349   7.697  -1.356  0.00  0.00     0.085 H 
BRANCH  29  32
ATOM     32  C9  A2Y d   1      -0.209   9.542  -0.278  0.00  0.00     0.090 A 
ATOM     33  N1  A2Y d   1       0.299  10.187  -1.234  0.00  0.00    -0.131 NA
ATOM     34  O   A2Y d   1       0.514  11.439  -0.878  0.00  0.00    -0.212 OA
ATOM     35  C11 A2Y d   1       0.145  11.590   0.296  0.00  0.00     0.120 A 
ATOM     36  C4  A2Y d   1      -0.336  10.391   0.747  0.00  0.00    -0.019 A 
ATOM     37  C12 A2Y d   1       0.237  12.802   0.966  0.00  0.00     0.040 A 
ATOM     38  H6  A2Y d   1      -0.739  10.174   1.735  0.00  0.00     0.091 H 
ATOM     39  S   A2Y d   1       0.564  14.060   0.265  0.00  0.00    -0.099 SA
ATOM     40  C3  A2Y d   1       0.059  13.054   2.300  0.00  0.00    -0.063 A 
ATOM     41  C1  A2Y d   1       0.530  14.972   1.407  0.00  0.00    -0.044 A 
ATOM     42  C2  A2Y d   1       0.236  14.353   2.553  0.00  0.00    -0.075 A 
ATOM     43  H1  A2Y d   1       0.724  16.041   1.331  0.00  0.00     0.095 H 
ATOM     44  H2  A2Y d   1       0.154  14.828   3.530  0.00  0.00     0.084 H 
ATOM     45  H5  A2Y d   1      -0.191  12.303   3.047  0.00  0.00     0.085 H 
ENDBRANCH  29  32
ENDBRANCH  26  29
ENDBRANCH   1  26
TORSDOF 3
