REMARK  29 active torsions:
REMARK  status: ('A' for Active; 'I' for Inactive)
REMARK    1  A    between atoms: P1_3  and  O3_4 
REMARK    2  A    between atoms: P1_3  and  O4_11 
REMARK    3  A    between atoms: O3_4  and  C1_5 
REMARK    4  A    between atoms: C1_5  and  C2_6 
REMARK    5  A    between atoms: C2_6  and  N1_7 
REMARK    6  A    between atoms: N1_7  and  C3_8 
REMARK    7  A    between atoms: N1_7  and  C4_9 
REMARK    8  A    between atoms: N1_7  and  C5_10 
REMARK    9  A    between atoms: O4_11  and  C6_12 
REMARK   10  A    between atoms: C6_12  and  C7_13 
REMARK   11  A    between atoms: C7_13  and  C8_14 
REMARK   12  A    between atoms: C7_13  and  O7_25 
REMARK   13  A    between atoms: C8_14  and  O5_15 
REMARK   14  A    between atoms: O5_15  and  C9_16 
REMARK   15  A    between atoms: C9_16  and  C10_18 
REMARK   16  A    between atoms: C10_18  and  C11_19 
REMARK   17  A    between atoms: C11_19  and  C12_20 
REMARK   18  A    between atoms: C12_20  and  C13_21 
REMARK   19  A    between atoms: C13_21  and  C14_22 
REMARK   20  A    between atoms: C14_22  and  C15_23 
REMARK   21  A    between atoms: C15_23  and  C16_24 
REMARK   22  A    between atoms: O7_25  and  C17_26 
REMARK   23  A    between atoms: C17_26  and  C18_28 
REMARK   24  A    between atoms: C18_28  and  C19_29 
REMARK   25  A    between atoms: C19_29  and  C20_30 
REMARK   26  A    between atoms: C20_30  and  C21_31 
REMARK   27  A    between atoms: C21_31  and  C22_32 
REMARK   28  A    between atoms: C22_32  and  C23_33 
REMARK   29  A    between atoms: C23_33  and  C24_34 
ROOT
ATOM      1  C7  PC8 d   1       4.852  12.793 -27.024  0.00  0.00     0.090 C 
ATOM      2  H16 PC8 d   1       4.629  12.732 -28.099  0.00  0.00     0.090 H 
ENDROOT
BRANCH   1   3
ATOM      3  C6  PC8 d   1       6.170  13.614 -26.891  0.00  0.00     0.058 C 
ATOM      4  H14 PC8 d   1       6.091  14.500 -27.538  0.00  0.00     0.079 H 
ATOM      5  H15 PC8 d   1       6.274  13.933 -25.843  0.00  0.00     0.079 H 
BRANCH   3   6
ATOM      6  O4  PC8 d   1       7.364  12.884 -27.264  0.00  0.00    -0.287 OA
BRANCH   6   7
ATOM      7  P1  PC8 d   1       8.445  13.649 -28.168  0.00  0.00     0.408 P 
ATOM      8  O1  PC8 d   1       7.781  14.460 -29.191  0.00  0.00    -0.624 OA
ATOM      9  O2  PC8 d   1       9.350  12.547 -28.857  0.00  0.00    -0.624 OA
BRANCH   7  10
ATOM     10  O3  PC8 d   1       9.372  14.521 -27.199  0.00  0.00    -0.288 OA
BRANCH  10  11
ATOM     11  C1  PC8 d   1      10.615  15.029 -27.724  0.00  0.00     0.054 C 
ATOM     12  H1  PC8 d   1      10.392  15.635 -28.614  0.00  0.00     0.077 H 
ATOM     13  H2  PC8 d   1      11.244  14.174 -28.011  0.00  0.00     0.077 H 
BRANCH  11  14
ATOM     14  C2  PC8 d   1      11.413  15.908 -26.722  0.00  0.00     0.104 C 
ATOM     15  H3  PC8 d   1      10.770  16.757 -26.449  0.00  0.00     0.079 H 
ATOM     16  H4  PC8 d   1      12.304  16.278 -27.250  0.00  0.00     0.079 H 
BRANCH  14  17
ATOM     17  N1  PC8 d   1      11.891  15.267 -25.424  0.00  0.00    -0.077 N 
BRANCH  17  18
ATOM     18  C3  PC8 d   1      12.573  13.938 -25.658  0.00  0.00     0.067 C 
ATOM     19  H5  PC8 d   1      12.898  13.518 -24.695  0.00  0.00     0.068 H 
ATOM     20  H6  PC8 d   1      13.448  14.084 -26.308  0.00  0.00     0.068 H 
ATOM     21  H7  PC8 d   1      11.869  13.245 -26.141  0.00  0.00     0.068 H 
ENDBRANCH  17  18
BRANCH  17  22
ATOM     22  C4  PC8 d   1      12.905  16.204 -24.809  0.00  0.00     0.067 C 
ATOM     23  H8  PC8 d   1      12.437  17.183 -24.627  0.00  0.00     0.068 H 
ATOM     24  H9  PC8 d   1      13.755  16.327 -25.496  0.00  0.00     0.068 H 
ATOM     25  H10 PC8 d   1      13.261  15.785 -23.857  0.00  0.00     0.068 H 
ENDBRANCH  17  22
BRANCH  17  26
ATOM     26  C5  PC8 d   1      10.755  15.070 -24.445  0.00  0.00     0.067 C 
ATOM     27  H11 PC8 d   1      10.009  14.389 -24.881  0.00  0.00     0.068 H 
ATOM     28  H12 PC8 d   1      10.284  16.041 -24.230  0.00  0.00     0.068 H 
ATOM     29  H13 PC8 d   1      11.146  14.637 -23.512  0.00  0.00     0.068 H 
ENDBRANCH  17  26
ENDBRANCH  14  17
ENDBRANCH  11  14
ENDBRANCH  10  11
ENDBRANCH   7  10
ENDBRANCH   6   7
ENDBRANCH   3   6
ENDBRANCH   1   3
BRANCH   1  30
ATOM     30  C8  PC8 d   1       4.952  11.348 -26.482  0.00  0.00     0.055 C 
ATOM     31  H17 PC8 d   1       3.962  10.872 -26.537  0.00  0.00     0.079 H 
ATOM     32  H18 PC8 d   1       5.287  11.377 -25.435  0.00  0.00     0.079 H 
BRANCH  30  33
ATOM     33  O5  PC8 d   1       5.885  10.585 -27.254  0.00  0.00    -0.319 OA
BRANCH  33  34
ATOM     34  C9  PC8 d   1       7.095  10.117 -26.834  0.00  0.00     0.258 C 
ATOM     35  O6  PC8 d   1       7.428  10.196 -25.627  0.00  0.00    -0.265 OA
BRANCH  34  36
ATOM     36  C10 PC8 d   1       7.991   9.546 -27.861  0.00  0.00     0.016 C 
ATOM     37  H19 PC8 d   1       8.397  10.376 -28.457  0.00  0.00     0.048 H 
ATOM     38  H20 PC8 d   1       7.391   8.889 -28.508  0.00  0.00     0.048 H 
BRANCH  36  39
ATOM     39  C11 PC8 d   1       9.186   8.719 -27.314  0.00  0.00    -0.057 C 
ATOM     40  H21 PC8 d   1       8.795   7.820 -26.815  0.00  0.00     0.033 H 
ATOM     41  H22 PC8 d   1       9.737   9.333 -26.586  0.00  0.00     0.033 H 
BRANCH  39  42
ATOM     42  C12 PC8 d   1      10.164   8.280 -28.437  0.00  0.00    -0.065 C 
ATOM     43  H23 PC8 d   1      11.027   7.777 -27.976  0.00  0.00     0.033 H 
ATOM     44  H24 PC8 d   1      10.506   9.176 -28.976  0.00  0.00     0.033 H 
BRANCH  42  45
ATOM     45  C13 PC8 d   1       9.508   7.308 -29.454  0.00  0.00    -0.065 C 
ATOM     46  H25 PC8 d   1      10.271   6.986 -30.177  0.00  0.00     0.033 H 
ATOM     47  H26 PC8 d   1       8.703   7.840 -29.983  0.00  0.00     0.033 H 
BRANCH  45  48
ATOM     48  C14 PC8 d   1       8.908   6.051 -28.770  0.00  0.00    -0.065 C 
ATOM     49  H27 PC8 d   1       8.051   6.361 -28.153  0.00  0.00     0.033 H 
ATOM     50  H28 PC8 d   1       9.678   5.598 -28.128  0.00  0.00     0.033 H 
BRANCH  48  51
ATOM     51  C15 PC8 d   1       8.426   4.988 -29.792  0.00  0.00    -0.069 C 
ATOM     52  H29 PC8 d   1       8.951   5.152 -30.745  0.00  0.00     0.032 H 
ATOM     53  H30 PC8 d   1       7.343   5.111 -29.944  0.00  0.00     0.032 H 
BRANCH  51  54
ATOM     54  C16 PC8 d   1       8.698   3.542 -29.320  0.00  0.00    -0.077 C 
ATOM     55  H31 PC8 d   1       8.337   2.834 -30.081  0.00  0.00     0.027 H 
ATOM     56  H32 PC8 d   1       8.171   3.361 -28.371  0.00  0.00     0.027 H 
ATOM     57  H33 PC8 d   1       9.779   3.402 -29.172  0.00  0.00     0.027 H 
ENDBRANCH  51  54
ENDBRANCH  48  51
ENDBRANCH  45  48
ENDBRANCH  42  45
ENDBRANCH  39  42
ENDBRANCH  36  39
ENDBRANCH  34  36
ENDBRANCH  33  34
ENDBRANCH  30  33
ENDBRANCH   1  30
BRANCH   1  58
ATOM     58  O7  PC8 d   1       3.727  13.414 -26.376  0.00  0.00    -0.312 OA
BRANCH  58  59
ATOM     59  C17 PC8 d   1       2.458  12.925 -26.232  0.00  0.00     0.259 C 
ATOM     60  O8  PC8 d   1       2.136  12.274 -25.208  0.00  0.00    -0.265 OA
BRANCH  59  61
ATOM     61  C18 PC8 d   1       1.479  13.214 -27.304  0.00  0.00     0.016 C 
ATOM     62  H34 PC8 d   1       2.039  13.501 -28.206  0.00  0.00     0.048 H 
ATOM     63  H35 PC8 d   1       0.855  14.058 -26.975  0.00  0.00     0.048 H 
BRANCH  61  64
ATOM     64  C19 PC8 d   1       0.535  12.038 -27.679  0.00  0.00    -0.057 C 
ATOM     65  H36 PC8 d   1       1.024  11.093 -27.401  0.00  0.00     0.033 H 
ATOM     66  H37 PC8 d   1       0.365  12.057 -28.766  0.00  0.00     0.033 H 
BRANCH  64  67
ATOM     67  C20 PC8 d   1      -0.840  12.116 -26.960  0.00  0.00    -0.065 C 
ATOM     68  H38 PC8 d   1      -1.623  11.787 -27.659  0.00  0.00     0.033 H 
ATOM     69  H39 PC8 d   1      -1.026  13.159 -26.666  0.00  0.00     0.033 H 
BRANCH  67  70
ATOM     70  C21 PC8 d   1      -0.897  11.223 -25.692  0.00  0.00    -0.065 C 
ATOM     71  H40 PC8 d   1       0.085  10.747 -25.553  0.00  0.00     0.033 H 
ATOM     72  H41 PC8 d   1      -1.662  10.447 -25.843  0.00  0.00     0.033 H 
BRANCH  70  73
ATOM     73  C22 PC8 d   1      -1.247  12.020 -24.406  0.00  0.00    -0.065 C 
ATOM     74  H42 PC8 d   1      -2.114  12.664 -24.615  0.00  0.00     0.033 H 
ATOM     75  H43 PC8 d   1      -0.384  12.645 -24.132  0.00  0.00     0.033 H 
BRANCH  73  76
ATOM     76  C23 PC8 d   1      -1.591  11.094 -23.209  0.00  0.00    -0.069 C 
ATOM     77  H44 PC8 d   1      -1.614  11.700 -22.291  0.00  0.00     0.032 H 
ATOM     78  H45 PC8 d   1      -0.807  10.327 -23.122  0.00  0.00     0.032 H 
BRANCH  76  79
ATOM     79  C24 PC8 d   1      -2.956  10.388 -23.367  0.00  0.00    -0.077 C 
ATOM     80  H46 PC8 d   1      -3.142   9.749 -22.491  0.00  0.00     0.027 H 
ATOM     81  H47 PC8 d   1      -2.946   9.769 -24.276  0.00  0.00     0.027 H 
ATOM     82  H48 PC8 d   1      -3.752  11.143 -23.446  0.00  0.00     0.027 H 
ENDBRANCH  76  79
ENDBRANCH  73  76
ENDBRANCH  70  73
ENDBRANCH  67  70
ENDBRANCH  64  67
ENDBRANCH  61  64
ENDBRANCH  59  61
ENDBRANCH  58  59
ENDBRANCH   1  58
TORSDOF 29
