REMARK  27 active torsions:
REMARK  status: ('A' for Active; 'I' for Inactive)
REMARK    1  A    between atoms: CA_13  and  N_1 
REMARK    2  A    between atoms: P_2  and  OG_3 
REMARK    3  A    between atoms: O3G_23  and  P_2 
REMARK    4  A    between atoms: OG_3  and  CB_8 
REMARK    5  A    between atoms: O1G_10  and  C1A_4 
REMARK    6  A    between atoms: C1A_4  and  C2A_11 
REMARK    7  A    between atoms: C1B_6  and  C2B_12 
REMARK    8  A    between atoms: O2G_15  and  C1B_6 
REMARK    9  A    between atoms: CB_8  and  CA_13 
REMARK   10  A    between atoms: C1G_9  and  O1G_10 
REMARK   11  A    between atoms: C2G_14  and  C1G_9 
REMARK   12  A    between atoms: C2A_11  and  C3A_17 
REMARK   13  A    between atoms: C2B_12  and  C3B_18 
REMARK   14  A    between atoms: CA_13  and  C_19 
REMARK   15  A    between atoms: C2G_14  and  O2G_15 
REMARK   16  A    between atoms: C3G_22  and  C2G_14 
REMARK   17  A    between atoms: C3A_17  and  C4A_25 
REMARK   18  A    between atoms: C3B_18  and  C4B_26 
REMARK   19  A    between atoms: C3G_22  and  O3G_23 
REMARK   20  A    between atoms: C4A_25  and  C5A_27 
REMARK   21  A    between atoms: C4B_26  and  C5B_28 
REMARK   22  A    between atoms: C5A_27  and  C6A_29 
REMARK   23  A    between atoms: C5B_28  and  C6B_30 
REMARK   24  A    between atoms: C6A_29  and  C7A_31 
REMARK   25  A    between atoms: C6B_30  and  C7B_32 
REMARK   26  A    between atoms: C7A_31  and  C8A_33 
REMARK   27  A    between atoms: C7B_32  and  C8B_34 
ROOT
ATOM      1  C2G 8SP d   1      -1.147 -27.210   3.351  0.00  0.00     0.090 C 
ATOM      2  H13 8SP d   1      -0.268 -27.866   3.440  0.00  0.00     0.090 H 
ENDROOT
BRANCH   1   3
ATOM      3  C1G 8SP d   1      -2.013 -27.717   2.172  0.00  0.00     0.055 C 
ATOM      4  H6  8SP d   1      -3.072 -27.703   2.470  0.00  0.00     0.079 H 
ATOM      5  H7  8SP d   1      -1.867 -27.055   1.306  0.00  0.00     0.079 H 
BRANCH   3   6
ATOM      6  O1G 8SP d   1      -1.645 -29.053   1.809  0.00  0.00    -0.319 OA
BRANCH   6   7
ATOM      7  C1A 8SP d   1      -2.147 -30.210   2.325  0.00  0.00     0.258 C 
ATOM      8  O1A 8SP d   1      -3.299 -30.245   2.822  0.00  0.00    -0.265 OA
BRANCH   7   9
ATOM      9  C2A 8SP d   1      -1.270 -31.400   2.292  0.00  0.00     0.016 C 
ATOM     10  H8  8SP d   1      -0.249 -31.075   2.539  0.00  0.00     0.048 H 
ATOM     11  H9  8SP d   1      -1.289 -31.806   1.270  0.00  0.00     0.048 H 
BRANCH   9  12
ATOM     12  C3A 8SP d   1      -1.655 -32.546   3.268  0.00  0.00    -0.057 C 
ATOM     13  H14 8SP d   1      -2.676 -32.882   3.033  0.00  0.00     0.033 H 
ATOM     14  H15 8SP d   1      -1.624 -32.159   4.297  0.00  0.00     0.033 H 
BRANCH  12  15
ATOM     15  C4A 8SP d   1      -0.693 -33.760   3.162  0.00  0.00    -0.065 C 
ATOM     16  H20 8SP d   1       0.343 -33.392   3.199  0.00  0.00     0.033 H 
ATOM     17  H21 8SP d   1      -0.869 -34.265   2.201  0.00  0.00     0.033 H 
BRANCH  15  18
ATOM     18  C5A 8SP d   1      -0.895 -34.788   4.306  0.00  0.00    -0.065 C 
ATOM     19  H24 8SP d   1      -0.615 -35.786   3.937  0.00  0.00     0.033 H 
ATOM     20  H25 8SP d   1      -1.956 -34.788   4.596  0.00  0.00     0.033 H 
BRANCH  18  21
ATOM     21  C6A 8SP d   1      -0.037 -34.463   5.559  0.00  0.00    -0.065 C 
ATOM     22  H28 8SP d   1       0.202 -33.389   5.554  0.00  0.00     0.033 H 
ATOM     23  H29 8SP d   1       0.894 -35.046   5.510  0.00  0.00     0.033 H 
BRANCH  21  24
ATOM     24  C7A 8SP d   1      -0.768 -34.804   6.886  0.00  0.00    -0.069 C 
ATOM     25  H32 8SP d   1      -0.947 -35.889   6.920  0.00  0.00     0.032 H 
ATOM     26  H33 8SP d   1      -1.731 -34.273   6.904  0.00  0.00     0.032 H 
BRANCH  24  27
ATOM     27  C8A 8SP d   1       0.043 -34.397   8.136  0.00  0.00    -0.077 C 
ATOM     28  H36 8SP d   1      -0.522 -34.662   9.042  0.00  0.00     0.027 H 
ATOM     29  H37 8SP d   1       0.222 -33.312   8.120  0.00  0.00     0.027 H 
ATOM     30  H38 8SP d   1       1.007 -34.928   8.137  0.00  0.00     0.027 H 
ENDBRANCH  24  27
ENDBRANCH  21  24
ENDBRANCH  18  21
ENDBRANCH  15  18
ENDBRANCH  12  15
ENDBRANCH   9  12
ENDBRANCH   7   9
ENDBRANCH   6   7
ENDBRANCH   3   6
ENDBRANCH   1   3
BRANCH   1  31
ATOM     31  O2G 8SP d   1      -0.693 -25.889   3.004  0.00  0.00    -0.312 OA
BRANCH  31  32
ATOM     32  C1B 8SP d   1       0.436 -25.533   2.323  0.00  0.00     0.259 C 
ATOM     33  O1B 8SP d   1       0.525 -25.725   1.087  0.00  0.00    -0.265 OA
BRANCH  32  34
ATOM     34  C2B 8SP d   1       1.520 -24.882   3.091  0.00  0.00     0.016 C 
ATOM     35  H10 8SP d   1       2.312 -25.627   3.258  0.00  0.00     0.048 H 
ATOM     36  H11 8SP d   1       1.106 -24.564   4.059  0.00  0.00     0.048 H 
BRANCH  34  37
ATOM     37  C3B 8SP d   1       2.165 -23.639   2.413  0.00  0.00    -0.057 C 
ATOM     38  H16 8SP d   1       1.748 -22.732   2.874  0.00  0.00     0.033 H 
ATOM     39  H17 8SP d   1       1.915 -23.654   1.342  0.00  0.00     0.033 H 
BRANCH  37  40
ATOM     40  C4B 8SP d   1       3.712 -23.604   2.561  0.00  0.00    -0.065 C 
ATOM     41  H22 8SP d   1       4.148 -24.345   1.875  0.00  0.00     0.033 H 
ATOM     42  H23 8SP d   1       3.973 -23.865   3.597  0.00  0.00     0.033 H 
BRANCH  40  43
ATOM     43  C5B 8SP d   1       4.312 -22.210   2.234  0.00  0.00    -0.065 C 
ATOM     44  H26 8SP d   1       5.073 -21.969   2.991  0.00  0.00     0.033 H 
ATOM     45  H27 8SP d   1       3.506 -21.463   2.274  0.00  0.00     0.033 H 
BRANCH  43  46
ATOM     46  C6B 8SP d   1       4.974 -22.149   0.831  0.00  0.00    -0.065 C 
ATOM     47  H30 8SP d   1       4.982 -23.161   0.401  0.00  0.00     0.033 H 
ATOM     48  H31 8SP d   1       6.008 -21.790   0.944  0.00  0.00     0.033 H 
BRANCH  46  49
ATOM     49  C7B 8SP d   1       4.222 -21.201  -0.142  0.00  0.00    -0.069 C 
ATOM     50  H34 8SP d   1       3.490 -20.616   0.434  0.00  0.00     0.032 H 
ATOM     51  H35 8SP d   1       3.696 -21.812  -0.890  0.00  0.00     0.032 H 
BRANCH  49  52
ATOM     52  C8B 8SP d   1       5.163 -20.221  -0.880  0.00  0.00    -0.077 C 
ATOM     53  H39 8SP d   1       4.572 -19.580  -1.551  0.00  0.00     0.027 H 
ATOM     54  H40 8SP d   1       5.896 -20.791  -1.470  0.00  0.00     0.027 H 
ATOM     55  H41 8SP d   1       5.690 -19.595  -0.145  0.00  0.00     0.027 H 
ENDBRANCH  49  52
ENDBRANCH  46  49
ENDBRANCH  43  46
ENDBRANCH  40  43
ENDBRANCH  37  40
ENDBRANCH  34  37
ENDBRANCH  32  34
ENDBRANCH  31  32
ENDBRANCH   1  31
BRANCH   1  56
ATOM     56  C3G 8SP d   1      -1.891 -27.252   4.715  0.00  0.00     0.058 C 
ATOM     57  H18 8SP d   1      -1.215 -27.679   5.471  0.00  0.00     0.079 H 
ATOM     58  H19 8SP d   1      -2.778 -27.894   4.612  0.00  0.00     0.079 H 
BRANCH  56  59
ATOM     59  O3G 8SP d   1      -2.318 -25.942   5.164  0.00  0.00    -0.287 OA
BRANCH  59  60
ATOM     60  P   8SP d   1      -2.907 -25.842   6.651  0.00  0.00     0.408 P 
ATOM     61  O2P 8SP d   1      -2.195 -24.808   7.405  0.00  0.00    -0.624 OA
ATOM     62  O3P 8SP d   1      -2.696 -27.251   7.340  0.00  0.00    -0.624 OA
BRANCH  60  63
ATOM     63  OG  8SP d   1      -4.477 -25.566   6.534  0.00  0.00    -0.287 OA
BRANCH  63  64
ATOM     64  CB  8SP d   1      -5.284 -26.455   5.731  0.00  0.00     0.067 C 
ATOM     65  H4  8SP d   1      -5.621 -27.290   6.363  0.00  0.00     0.079 H 
ATOM     66  H5  8SP d   1      -4.665 -26.844   4.909  0.00  0.00     0.079 H 
BRANCH  64  67
ATOM     67  CA  8SP d   1      -6.530 -25.760   5.125  0.00  0.00     0.203 C 
ATOM     68  H12 8SP d   1      -7.008 -25.166   5.918  0.00  0.00     0.104 H 
BRANCH  67  69
ATOM     69  N   8SP d   1      -7.482 -26.781   4.650  0.00  0.00    -0.063 N 
ATOM     70  H1  8SP d   1      -7.711 -27.405   5.408  0.00  0.00     0.275 HD
ATOM     71  H2  8SP d   1      -7.064 -27.306   3.898  0.00  0.00     0.275 HD
ATOM     72  H3  8SP d   1      -8.321 -26.330   4.320  0.00  0.00     0.275 HD
ENDBRANCH  67  69
BRANCH  67  73
ATOM     73  C   8SP d   1      -6.206 -24.857   4.004  0.00  0.00     0.206 C 
ATOM     74  O   8SP d   1      -5.119 -24.238   3.962  0.00  0.00    -0.646 OA
ATOM     75  OXT 8SP d   1      -7.068 -24.713   2.968  0.00  0.00    -0.646 OA
ENDBRANCH  67  73
ENDBRANCH  64  67
ENDBRANCH  63  64
ENDBRANCH  60  63
ENDBRANCH  59  60
ENDBRANCH  56  59
ENDBRANCH   1  56
TORSDOF 27
