REMARK WARNING: 32 MAX_TORS EXCEEDED!!!
REMARK  59 active torsions:
REMARK  status: ('A' for Active; 'I' for Inactive)
REMARK    1  A    between atoms: CA_2  and  C_7 
REMARK       I    between atoms: C_7  and  N_9 
REMARK    2  A    between atoms: N_9  and  CA_10 
REMARK    3  A    between atoms: CA_10  and  C_11 
REMARK    4  A    between atoms: CA_10  and  CB_13 
REMARK       I    between atoms: C_11  and  N_17 
REMARK    5  A    between atoms: CB_13  and  CG_14 
REMARK    6  A    between atoms: CG_14  and  CD1_15 
REMARK    7  A    between atoms: CG_14  and  CD2_16 
REMARK    8  A    between atoms: N_17  and  CA_18 
REMARK    9  A    between atoms: CA_18  and  C_19 
REMARK   10  A    between atoms: CA_18  and  CB_21 
REMARK       I    between atoms: C_19  and  N_29 
REMARK   11  A    between atoms: CB_21  and  CG_22 
REMARK   12  A    between atoms: CZ_27  and  OH_28 
REMARK   13  A    between atoms: N_29  and  CA_30 
REMARK   14  A    between atoms: CA_30  and  C_31 
REMARK   15  A    between atoms: CA_30  and  CB_33 
REMARK       I    between atoms: C_31  and  N_38 
REMARK   16  A    between atoms: CB_33  and  CG_34 
REMARK   17  A    between atoms: CG_34  and  CD_35 
REMARK   18  A    between atoms: N_38  and  CA_39 
REMARK   19  A    between atoms: CA_39  and  C_40 
REMARK   20  A    between atoms: CA_39  and  CB_42 
REMARK       I    between atoms: C_40  and  N_46 
REMARK   21  A    between atoms: CB_42  and  CG_43 
REMARK       I    between atoms: CG_43  and  ND2_45 
REMARK   22  A    between atoms: N_46  and  CA_47 
REMARK   23  A    between atoms: CA_47  and  C_48 
REMARK   24  A    between atoms: CA_47  and  CB_50 
REMARK       I    between atoms: C_48  and  N_55 
REMARK   25  A    between atoms: CB_50  and  CG_51 
REMARK   26  A    between atoms: CG_51  and  CD_52 
REMARK   27  A    between atoms: CD_52  and  CE_53 
REMARK   28  A    between atoms: CE_53  and  NZ_54 
REMARK   29  A    between atoms: CA_56  and  C_57 
REMARK       I    between atoms: C_57  and  N_62 
REMARK   30  A    between atoms: N_62  and  CA_63 
REMARK   31  A    between atoms: CA_63  and  C_64 
REMARK   32  A    between atoms: CA_63  and  CB_66 
REMARK       I    between atoms: C_64  and  N_73 
REMARK   33  A    between atoms: CB_66  and  CG_67 
REMARK   34  A    between atoms: CG_67  and  CD_68 
REMARK   35  A    between atoms: CD_68  and  NE_69 
REMARK       I    between atoms: NE_69  and  CZ_70 
REMARK       I    between atoms: CZ_70  and  NH1_71 
REMARK       I    between atoms: CZ_70  and  NH2_72 
REMARK   36  A    between atoms: N_73  and  CA_74 
REMARK   37  A    between atoms: CA_74  and  C_75 
REMARK   38  A    between atoms: CA_74  and  CB_77 
REMARK       I    between atoms: C_75  and  N_84 
REMARK   39  A    between atoms: CB_77  and  CG_78 
REMARK   40  A    between atoms: CG_78  and  CD_79 
REMARK   41  A    between atoms: CD_79  and  NE_80 
REMARK       I    between atoms: NE_80  and  CZ_81 
REMARK       I    between atoms: CZ_81  and  NH1_82 
REMARK   42  A    between atoms: CA_85  and  C_86 
REMARK       I    between atoms: C_86  and  N_91 
REMARK   43  A    between atoms: N_91  and  CA_92 
REMARK   44  A    between atoms: CA_92  and  C_93 
REMARK   45  A    between atoms: CA_92  and  CB_95 
REMARK       I    between atoms: C_93  and  N_103 
REMARK   46  A    between atoms: CB_95  and  CG_96 
REMARK   47  A    between atoms: CZ_101  and  OH_102 
REMARK   48  A    between atoms: N_103  and  CA_104 
REMARK   49  A    between atoms: CA_104  and  C_105 
REMARK   50  A    between atoms: CA_104  and  CB_107 
REMARK       I    between atoms: C_105  and  N_111 
REMARK   51  A    between atoms: CB_107  and  CG1_108 
REMARK   52  A    between atoms: CB_107  and  CG2_109 
REMARK   53  A    between atoms: CG1_108  and  CD1_110 
REMARK   54  A    between atoms: N_111  and  CA_112 
REMARK   55  A    between atoms: CA_112  and  C_113 
REMARK   56  A    between atoms: CA_112  and  CB_115 
REMARK   57  A    between atoms: CB_115  and  CG_116 
REMARK   58  A    between atoms: CG_116  and  CD1_117 
REMARK   59  A    between atoms: CG_116  and  CD2_118 
ROOT
ATOM      1  C   PRO d   1     -10.623  42.146 -25.241  0.00  0.00     0.241 C 
ATOM      2  O   PRO d   1     -10.125  43.271 -25.358  0.00  0.00    -0.271 OA
ATOM      3  N   ARG d   1     -10.030  41.142 -24.567  0.00  0.00    -0.346 N 
ATOM      4  H   ARG d   1     -10.450  40.214 -24.621  0.00  0.00     0.163 HD
ENDROOT
BRANCH   3   5
ATOM      5  CA  ARG d   1      -8.797  41.306 -23.747  0.00  0.00     0.089 C 
ATOM      6  H   ARG d   1      -8.433  42.326 -23.867  0.00  0.00     0.087 H 
BRANCH   5   7
ATOM      7  C   ARG d   1      -7.697  40.313 -24.228  0.00  0.00     0.241 C 
ATOM      8  O   ARG d   1      -7.896  39.093 -24.249  0.00  0.00    -0.271 OA
ATOM      9  N   ARG d   1      -6.509  40.861 -24.547  0.00  0.00    -0.346 N 
ATOM     10  H   ARG d   1      -6.449  41.878 -24.600  0.00  0.00     0.163 HD
BRANCH   9  11
ATOM     11  CA  ARG d   1      -5.272  40.070 -24.828  0.00  0.00     0.089 C 
ATOM     12  H   ARG d   1      -5.539  39.207 -25.438  0.00  0.00     0.087 H 
BRANCH  11  13
ATOM     13  C   ARG d   1      -4.623  39.424 -23.543  0.00  0.00     0.243 C 
ATOM     14  O   ARG d   1      -4.972  39.862 -22.442  0.00  0.00    -0.271 OA
ATOM     15  N   PRO d   1      -3.667  38.442 -23.607  0.00  0.00    -0.337 N 
ATOM     16  CA  PRO d   1      -3.041  37.828 -22.397  0.00  0.00     0.091 C 
ATOM     17  CD  PRO d   1      -3.368  37.679 -24.835  0.00  0.00    -0.001 C 
ATOM     18  CB  PRO d   1      -2.445  36.516 -22.958  0.00  0.00    -0.036 C 
ATOM     19  H   PRO d   1      -3.760  37.661 -21.595  0.00  0.00     0.087 H 
ATOM     20  CG  PRO d   1      -2.191  36.795 -24.438  0.00  0.00    -0.048 C 
ATOM     21  H   PRO d   1      -3.122  35.673 -22.817  0.00  0.00     0.036 H 
ATOM     22  H   PRO d   1      -1.529  36.235 -22.438  0.00  0.00     0.036 H 
ATOM     23  H   PRO d   1      -2.131  35.883 -25.033  0.00  0.00     0.035 H 
ATOM     24  H   PRO d   1      -1.228  37.274 -24.616  0.00  0.00     0.035 H 
ATOM     25  H   PRO d   1      -3.133  38.328 -25.679  0.00  0.00     0.064 H 
ATOM     26  H   PRO d   1      -4.223  37.099 -25.181  0.00  0.00     0.064 H 
BRANCH  16  27
ATOM     27  C   PRO d   1      -2.012  38.739 -21.653  0.00  0.00     0.241 C 
ATOM     28  O   PRO d   1      -0.797  38.641 -21.854  0.00  0.00    -0.271 OA
ATOM     29  N   TYR d   1      -2.539  39.603 -20.766  0.00  0.00    -0.346 N 
ATOM     30  H   TYR d   1      -3.554  39.623 -20.662  0.00  0.00     0.163 HD
BRANCH  29  31
ATOM     31  CA  TYR d   1      -1.734  40.530 -19.928  0.00  0.00     0.093 C 
ATOM     32  H   TYR d   1      -0.710  40.619 -20.291  0.00  0.00     0.088 H 
BRANCH  31  33
ATOM     33  C   TYR d   1      -1.603  39.949 -18.485  0.00  0.00     0.241 C 
ATOM     34  O   TYR d   1      -2.613  39.662 -17.834  0.00  0.00    -0.271 OA
ATOM     35  N   ILE d   1      -0.365  39.749 -17.988  0.00  0.00    -0.346 N 
ATOM     36  H   ILE d   1       0.434  40.133 -18.493  0.00  0.00     0.163 HD
BRANCH  35  37
ATOM     37  CA  ILE d   1      -0.117  38.986 -16.725  0.00  0.00     0.092 C 
ATOM     38  H   ILE d   1      -0.891  38.227 -16.607  0.00  0.00     0.088 H 
BRANCH  37  39
ATOM     39  C   ILE d   1      -0.287  39.892 -15.459  0.00  0.00     0.241 C 
ATOM     40  O   ILE d   1       0.539  40.764 -15.182  0.00  0.00    -0.271 OA
ATOM     41  N   LEU d   1      -1.370  39.647 -14.697  0.00  0.00    -0.345 N 
ATOM     42  H   LEU d   1      -1.980  38.876 -14.968  0.00  0.00     0.163 HD
BRANCH  41  43
ATOM     43  CA  LEU d   1      -1.734  40.429 -13.485  0.00  0.00     0.096 C 
ATOM     44  H   LEU d   1      -1.396  41.444 -13.695  0.00  0.00     0.089 H 
BRANCH  43  45
ATOM     45  C   LEU d   1      -0.997  40.009 -12.202  0.00  0.00     0.196 C 
ATOM     46  O   LEU d   1      -0.494  40.905 -11.489  0.00  0.00    -0.646 OA
ATOM     47  OXT LEU d   1      -0.958  38.800 -11.875  0.00  0.00    -0.646 OA
ENDBRANCH  43  45
BRANCH  43  48
ATOM     48  CB  LEU d   1      -3.273  40.433 -13.259  0.00  0.00    -0.034 C 
ATOM     49  H   LEU d   1      -3.690  40.616 -14.249  0.00  0.00     0.037 H 
ATOM     50  H   LEU d   1      -3.425  41.153 -12.455  0.00  0.00     0.037 H 
BRANCH  48  51
ATOM     51  CG  LEU d   1      -4.004  39.143 -12.765  0.00  0.00    -0.059 C 
ATOM     52  H   LEU d   1      -3.458  38.818 -11.879  0.00  0.00     0.038 H 
BRANCH  51  53
ATOM     53  CD1 LEU d   1      -5.467  39.468 -12.417  0.00  0.00    -0.073 C 
ATOM     54  H   LEU d   1      -5.493  40.220 -11.628  0.00  0.00     0.028 H 
ATOM     55  H   LEU d   1      -5.973  39.851 -13.303  0.00  0.00     0.028 H 
ATOM     56  H   LEU d   1      -5.967  38.562 -12.074  0.00  0.00     0.028 H 
ENDBRANCH  51  53
BRANCH  51  57
ATOM     57  CD2 LEU d   1      -3.949  37.954 -13.747  0.00  0.00    -0.073 C 
ATOM     58  H   LEU d   1      -4.417  38.240 -14.689  0.00  0.00     0.028 H 
ATOM     59  H   LEU d   1      -2.909  37.679 -13.925  0.00  0.00     0.028 H 
ATOM     60  H   LEU d   1      -4.482  37.105 -13.318  0.00  0.00     0.028 H 
ENDBRANCH  51  57
ENDBRANCH  48  51
ENDBRANCH  43  48
ENDBRANCH  41  43
ENDBRANCH  37  39
BRANCH  37  61
ATOM     61  CB  ILE d   1       1.220  38.163 -16.807  0.00  0.00    -0.030 C 
ATOM     62  H   ILE d   1       1.155  37.631 -17.756  0.00  0.00     0.043 H 
BRANCH  61  63
ATOM     63  CG1 ILE d   1       1.324  37.126 -15.650  0.00  0.00    -0.063 C 
ATOM     64  H   ILE d   1       0.364  36.610 -15.617  0.00  0.00     0.033 H 
ATOM     65  H   ILE d   1       1.598  37.691 -14.759  0.00  0.00     0.033 H 
BRANCH  63  66
ATOM     66  CD1 ILE d   1       2.393  36.034 -15.811  0.00  0.00    -0.076 C 
ATOM     67  H   ILE d   1       2.189  35.458 -16.714  0.00  0.00     0.027 H 
ATOM     68  H   ILE d   1       3.376  36.498 -15.889  0.00  0.00     0.027 H 
ATOM     69  H   ILE d   1       2.369  35.373 -14.944  0.00  0.00     0.027 H 
ENDBRANCH  63  66
ENDBRANCH  61  63
BRANCH  61  70
ATOM     70  CG2 ILE d   1       2.512  39.012 -16.918  0.00  0.00    -0.071 C 
ATOM     71  H   ILE d   1       2.467  39.623 -17.820  0.00  0.00     0.028 H 
ATOM     72  H   ILE d   1       2.597  39.657 -16.044  0.00  0.00     0.028 H 
ATOM     73  H   ILE d   1       3.377  38.350 -16.968  0.00  0.00     0.028 H 
ENDBRANCH  61  70
ENDBRANCH  37  61
ENDBRANCH  35  37
ENDBRANCH  31  33
BRANCH  31  74
ATOM     74  CB  TYR d   1      -2.327  41.969 -20.027  0.00  0.00    -0.014 C 
ATOM     75  H   TYR d   1      -2.471  42.134 -21.095  0.00  0.00     0.043 H 
ATOM     76  H   TYR d   1      -1.626  42.594 -19.474  0.00  0.00     0.043 H 
BRANCH  74  77
ATOM     77  CG  TYR d   1      -3.706  42.276 -19.395  0.00  0.00    -0.056 A 
ATOM     78  CD1 TYR d   1      -3.778  42.542 -18.025  0.00  0.00    -0.074 A 
ATOM     79  CE1 TYR d   1      -4.999  42.820 -17.421  0.00  0.00    -0.051 A 
ATOM     80  H   TYR d   1      -2.869  42.531 -17.424  0.00  0.00     0.084 H 
ATOM     81  CZ  TYR d   1      -6.156  42.832 -18.182  0.00  0.00     0.065 A 
ATOM     82  H   TYR d   1      -5.045  43.028 -16.352  0.00  0.00     0.087 H 
ATOM     83  CE2 TYR d   1      -6.104  42.588 -19.555  0.00  0.00    -0.051 A 
ATOM     84  CD2 TYR d   1      -4.875  42.314 -20.159  0.00  0.00    -0.074 A 
ATOM     85  H   TYR d   1      -7.016  42.611 -20.152  0.00  0.00     0.087 H 
ATOM     86  H   TYR d   1      -4.828  42.129 -21.232  0.00  0.00     0.084 H 
BRANCH  81  87
ATOM     87  OH  TYR d   1      -7.354  43.024 -17.550  0.00  0.00    -0.361 OA
ATOM     88  H   TYR d   1      -7.200  43.177 -16.615  0.00  0.00     0.217 HD
ENDBRANCH  81  87
ENDBRANCH  74  77
ENDBRANCH  31  74
ENDBRANCH  29  31
ENDBRANCH  16  27
ENDBRANCH  11  13
BRANCH  11  89
ATOM     89  CB  ARG d   1      -4.280  40.988 -25.613  0.00  0.00    -0.036 C 
ATOM     90  H   ARG d   1      -4.917  41.610 -26.242  0.00  0.00     0.036 H 
ATOM     91  H   ARG d   1      -3.575  40.299 -26.078  0.00  0.00     0.036 H 
BRANCH  89  92
ATOM     92  CG  ARG d   1      -3.391  41.996 -24.834  0.00  0.00    -0.048 C 
ATOM     93  H   ARG d   1      -2.726  42.441 -25.574  0.00  0.00     0.035 H 
ATOM     94  H   ARG d   1      -2.925  41.424 -24.031  0.00  0.00     0.035 H 
BRANCH  92  95
ATOM     95  CD  ARG d   1      -4.109  43.177 -24.149  0.00  0.00     0.009 C 
ATOM     96  H   ARG d   1      -3.414  43.650 -23.455  0.00  0.00     0.064 H 
ATOM     97  H   ARG d   1      -4.988  42.795 -23.630  0.00  0.00     0.064 H 
BRANCH  95  98
ATOM     98  NE  ARG d   1      -4.548  44.188 -25.140  0.00  0.00    -0.227 N 
ATOM     99  CZ  ARG d   1      -5.061  45.392 -24.837  0.00  0.00     0.665 C 
ATOM    100  NH1 ARG d   1      -5.384  45.775 -23.607  0.00  0.00    -0.235 N 
ATOM    101  NH2 ARG d   1      -5.236  46.252 -25.819  0.00  0.00    -0.235 N 
ATOM    102  H   ARG d   1      -5.246  45.139 -22.822  0.00  0.00     0.174 HD
ATOM    103  H   ARG d   1      -5.770  46.706 -23.447  0.00  0.00     0.174 HD
ATOM    104  H   ARG d   1      -4.984  45.995 -26.773  0.00  0.00     0.174 HD
ATOM    105  H   ARG d   1      -5.623  47.175 -25.625  0.00  0.00     0.174 HD
ATOM    106  H   ARG d   1      -4.453  43.951 -26.128  0.00  0.00     0.177 HD
ENDBRANCH  95  98
ENDBRANCH  92  95
ENDBRANCH  89  92
ENDBRANCH  11  89
ENDBRANCH   9  11
ENDBRANCH   5   7
BRANCH   5 107
ATOM    107  CB  ARG d   1      -9.113  41.054 -22.243  0.00  0.00    -0.036 C 
ATOM    108  H   ARG d   1      -8.159  41.075 -21.717  0.00  0.00     0.036 H 
ATOM    109  H   ARG d   1      -9.654  40.109 -22.193  0.00  0.00     0.036 H 
BRANCH 107 110
ATOM    110  CG  ARG d   1     -10.013  42.115 -21.567  0.00  0.00    -0.048 C 
ATOM    111  H   ARG d   1     -10.944  42.154 -22.133  0.00  0.00     0.035 H 
ATOM    112  H   ARG d   1      -9.454  43.051 -21.558  0.00  0.00     0.035 H 
BRANCH 110 113
ATOM    113  CD  ARG d   1     -10.385  41.792 -20.100  0.00  0.00     0.009 C 
ATOM    114  H   ARG d   1      -9.954  40.821 -19.858  0.00  0.00     0.064 H 
ATOM    115  H   ARG d   1     -11.472  41.814 -20.024  0.00  0.00     0.064 H 
BRANCH 113 116
ATOM    116  NE  ARG d   1      -9.849  42.775 -19.126  0.00  0.00    -0.227 N 
ATOM    117  CZ  ARG d   1     -10.465  43.915 -18.752  0.00  0.00     0.665 C 
ATOM    118  NH1 ARG d   1     -11.656  44.299 -19.203  0.00  0.00    -0.235 N 
ATOM    119  NH2 ARG d   1      -9.848  44.701 -17.889  0.00  0.00    -0.235 N 
ATOM    120  H   ARG d   1     -12.159  43.718 -19.873  0.00  0.00     0.174 HD
ATOM    121  H   ARG d   1     -12.066  45.175 -18.879  0.00  0.00     0.174 HD
ATOM    122  H   ARG d   1      -8.932  44.439 -17.525  0.00  0.00     0.174 HD
ATOM    123  H   ARG d   1     -10.287  45.570 -17.586  0.00  0.00     0.174 HD
ATOM    124  H   ARG d   1      -8.942  42.572 -18.706  0.00  0.00     0.177 HD
ENDBRANCH 113 116
ENDBRANCH 110 113
ENDBRANCH 107 110
ENDBRANCH   5 107
ENDBRANCH   3   5
BRANCH   1 125
ATOM    125  CA  PRO d   1     -12.023  41.823 -25.856  0.00  0.00     0.091 C 
ATOM    126  N   PRO d   1     -13.114  42.711 -25.374  0.00  0.00    -0.337 N 
ATOM    127  C   LYS d   1     -13.660  42.604 -24.124  0.00  0.00     0.243 C 
ATOM    128  CD  PRO d   1     -13.656  43.582 -26.439  0.00  0.00    -0.001 C 
ATOM    129  O   LYS d   1     -13.192  41.784 -23.323  0.00  0.00    -0.271 OA
ATOM    130  CG  PRO d   1     -12.672  43.413 -27.596  0.00  0.00    -0.048 C 
ATOM    131  H   PRO d   1     -13.741  44.620 -26.119  0.00  0.00     0.064 H 
ATOM    132  H   PRO d   1     -14.673  43.306 -26.719  0.00  0.00     0.064 H 
ATOM    133  CB  PRO d   1     -12.111  42.008 -27.381  0.00  0.00    -0.036 C 
ATOM    134  H   PRO d   1     -13.147  43.530 -28.570  0.00  0.00     0.035 H 
ATOM    135  H   PRO d   1     -11.895  44.178 -27.601  0.00  0.00     0.035 H 
ATOM    136  H   PRO d   1     -12.749  41.251 -27.837  0.00  0.00     0.036 H 
ATOM    137  H   PRO d   1     -11.135  41.894 -27.852  0.00  0.00     0.036 H 
ATOM    138  H   PRO d   1     -12.141  40.784 -25.549  0.00  0.00     0.087 H 
BRANCH 127 139
ATOM    139  CA  LYS d   1     -14.837  43.525 -23.646  0.00  0.00     0.089 C 
ATOM    140  H   LYS d   1     -15.404  43.880 -24.506  0.00  0.00     0.087 H 
BRANCH 139 141
ATOM    141  N   LYS d   1     -15.765  42.746 -22.779  0.00  0.00    -0.346 N 
ATOM    142  C   ASN d   1     -17.085  42.628 -23.016  0.00  0.00     0.241 C 
ATOM    143  O   ASN d   1     -17.653  43.172 -23.970  0.00  0.00    -0.271 OA
ATOM    144  H   LYS d   1     -15.379  42.276 -21.960  0.00  0.00     0.163 HD
BRANCH 142 145
ATOM    145  CA  ASN d   1     -17.878  41.758 -22.004  0.00  0.00     0.097 C 
ATOM    146  H   ASN d   1     -17.178  41.049 -21.561  0.00  0.00     0.088 H 
BRANCH 145 147
ATOM    147  N   ASN d   1     -18.474  42.640 -20.966  0.00  0.00    -0.346 N 
ATOM    148  C   GLU d   1     -17.920  42.862 -19.758  0.00  0.00     0.241 C 
ATOM    149  O   GLU d   1     -16.829  42.386 -19.427  0.00  0.00    -0.271 OA
ATOM    150  H   ASN d   1     -19.356  43.105 -21.181  0.00  0.00     0.163 HD
BRANCH 148 151
ATOM    151  CA  GLU d   1     -18.736  43.788 -18.799  0.00  0.00     0.090 C 
ATOM    152  H   GLU d   1     -19.002  44.627 -19.442  0.00  0.00     0.087 H 
BRANCH 151 153
ATOM    153  N   GLU d   1     -19.942  43.095 -18.258  0.00  0.00    -0.346 N 
ATOM    154  C   TYR d   1     -21.132  43.084 -18.895  0.00  0.00     0.241 C 
ATOM    155  O   TYR d   1     -21.286  43.587 -20.015  0.00  0.00    -0.271 OA
ATOM    156  H   GLU d   1     -19.863  42.607 -17.366  0.00  0.00     0.163 HD
BRANCH 154 157
ATOM    157  CA  TYR d   1     -22.320  42.406 -18.156  0.00  0.00     0.093 C 
ATOM    158  H   TYR d   1     -22.038  42.202 -17.123  0.00  0.00     0.088 H 
BRANCH 157 159
ATOM    159  N   TYR d   1     -23.467  43.354 -18.166  0.00  0.00    -0.346 N 
ATOM    160  C   LEU d   1     -24.278  43.574 -17.117  0.00  0.00     0.241 C 
ATOM    161  O   LEU d   1     -24.163  42.981 -16.040  0.00  0.00    -0.271 OA
ATOM    162  H   TYR d   1     -23.650  43.871 -19.026  0.00  0.00     0.163 HD
BRANCH 160 163
ATOM    163  CA  LEU d   1     -25.390  44.646 -17.346  0.00  0.00     0.089 C 
ATOM    164  H   LEU d   1     -24.953  45.370 -18.034  0.00  0.00     0.087 H 
BRANCH 163 165
ATOM    165  N   LEU d   1     -26.605  44.007 -17.929  0.00  0.00    -0.346 N 
ATOM    166  C   PCA d   1     -26.757  43.794 -19.254  0.00  0.00     0.241 C 
ATOM    167  O   PCA d   1     -25.870  44.077 -20.069  0.00  0.00    -0.271 OA
ATOM    168  H   LEU d   1     -27.354  43.718 -17.299  0.00  0.00     0.163 HD
BRANCH 166 169
ATOM    169  CA  PCA d   1     -28.120  43.209 -19.723  0.00  0.00     0.089 C 
ATOM    170  N   PCA d   1     -28.134  42.814 -21.139  0.00  0.00    -0.348 N 
ATOM    171  CD  PCA d   1     -28.780  41.695 -21.399  0.00  0.00     0.218 C 
ATOM    172  H   PCA d   1     -27.678  43.365 -21.866  0.00  0.00     0.163 HD
ATOM    173  CG  PCA d   1     -29.373  41.140 -20.120  0.00  0.00     0.011 C 
ATOM    174  OE  PCA d   1     -28.847  41.159 -22.503  0.00  0.00    -0.274 OA
ATOM    175  CB  PCA d   1     -28.589  41.901 -19.045  0.00  0.00    -0.030 C 
ATOM    176  H   PCA d   1     -30.451  41.282 -20.048  0.00  0.00     0.047 H 
ATOM    177  H   PCA d   1     -29.279  40.057 -20.036  0.00  0.00     0.047 H 
ATOM    178  H   PCA d   1     -29.206  42.104 -18.170  0.00  0.00     0.037 H 
ATOM    179  H   PCA d   1     -27.745  41.317 -18.678  0.00  0.00     0.037 H 
ATOM    180  H   PCA d   1     -28.763  44.052 -19.468  0.00  0.00     0.087 H 
ENDBRANCH 166 169
ENDBRANCH 163 165
BRANCH 163 181
ATOM    181  CB  LEU d   1     -25.801  45.444 -16.066  0.00  0.00    -0.035 C 
ATOM    182  H   LEU d   1     -25.820  44.701 -15.268  0.00  0.00     0.037 H 
ATOM    183  H   LEU d   1     -26.724  45.954 -16.340  0.00  0.00     0.037 H 
BRANCH 181 184
ATOM    184  CG  LEU d   1     -24.864  46.572 -15.538  0.00  0.00    -0.059 C 
ATOM    185  H   LEU d   1     -25.401  46.960 -14.672  0.00  0.00     0.038 H 
BRANCH 184 186
ATOM    186  CD1 LEU d   1     -23.500  46.081 -15.015  0.00  0.00    -0.073 C 
ATOM    187  H   LEU d   1     -23.657  45.388 -14.189  0.00  0.00     0.028 H 
ATOM    188  H   LEU d   1     -22.965  45.575 -15.819  0.00  0.00     0.028 H 
ATOM    189  H   LEU d   1     -22.916  46.934 -14.669  0.00  0.00     0.028 H 
ENDBRANCH 184 186
BRANCH 184 190
ATOM    190  CD2 LEU d   1     -24.682  47.733 -16.538  0.00  0.00    -0.073 C 
ATOM    191  H   LEU d   1     -24.248  47.350 -17.462  0.00  0.00     0.028 H 
ATOM    192  H   LEU d   1     -25.652  48.184 -16.750  0.00  0.00     0.028 H 
ATOM    193  H   LEU d   1     -24.018  48.482 -16.106  0.00  0.00     0.028 H 
ENDBRANCH 184 190
ENDBRANCH 181 184
ENDBRANCH 163 181
ENDBRANCH 160 163
ENDBRANCH 157 159
BRANCH 157 194
ATOM    194  CB  TYR d   1     -22.668  40.987 -18.713  0.00  0.00    -0.014 C 
ATOM    195  H   TYR d   1     -23.235  40.513 -17.912  0.00  0.00     0.043 H 
ATOM    196  H   TYR d   1     -21.708  40.574 -19.023  0.00  0.00     0.043 H 
BRANCH 194 197
ATOM    197  CG  TYR d   1     -23.572  40.842 -19.963  0.00  0.00    -0.056 A 
ATOM    198  CD1 TYR d   1     -23.134  41.231 -21.234  0.00  0.00    -0.074 A 
ATOM    199  CE1 TYR d   1     -23.974  41.111 -22.338  0.00  0.00    -0.051 A 
ATOM    200  H   TYR d   1     -22.128  41.631 -21.361  0.00  0.00     0.084 H 
ATOM    201  CZ  TYR d   1     -25.252  40.582 -22.185  0.00  0.00     0.065 A 
ATOM    202  H   TYR d   1     -23.631  41.431 -23.322  0.00  0.00     0.087 H 
ATOM    203  CE2 TYR d   1     -25.687  40.160 -20.931  0.00  0.00    -0.051 A 
ATOM    204  CD2 TYR d   1     -24.856  40.299 -19.823  0.00  0.00    -0.074 A 
ATOM    205  H   TYR d   1     -26.678  39.721 -20.817  0.00  0.00     0.087 H 
ATOM    206  H   TYR d   1     -25.206  39.983 -18.840  0.00  0.00     0.084 H 
BRANCH 201 207
ATOM    207  OH  TYR d   1     -26.090  40.507 -23.268  0.00  0.00    -0.361 OA
ATOM    208  H   TYR d   1     -26.872  41.040 -23.104  0.00  0.00     0.217 HD
ENDBRANCH 201 207
ENDBRANCH 194 197
ENDBRANCH 157 194
ENDBRANCH 154 157
ENDBRANCH 151 153
BRANCH 151 209
ATOM    209  CB  GLU d   1     -17.947  44.353 -17.578  0.00  0.00    -0.029 C 
ATOM    210  H   GLU d   1     -17.548  43.480 -17.062  0.00  0.00     0.037 H 
ATOM    211  H   GLU d   1     -18.656  44.984 -17.042  0.00  0.00     0.037 H 
BRANCH 209 212
ATOM    212  CG  GLU d   1     -16.723  45.258 -17.861  0.00  0.00     0.018 C 
ATOM    213  H   GLU d   1     -16.046  44.657 -18.468  0.00  0.00     0.049 H 
ATOM    214  H   GLU d   1     -16.365  45.583 -16.884  0.00  0.00     0.049 H 
BRANCH 212 215
ATOM    215  CD  GLU d   1     -16.967  46.542 -18.661  0.00  0.00     0.172 C 
ATOM    216  OE1 GLU d   1     -18.074  47.124 -18.593  0.00  0.00    -0.648 OA
ATOM    217  OE2 GLU d   1     -16.027  46.986 -19.356  0.00  0.00    -0.648 OA
ENDBRANCH 212 215
ENDBRANCH 209 212
ENDBRANCH 151 209
ENDBRANCH 148 151
ENDBRANCH 145 147
BRANCH 145 218
ATOM    218  CB  ASN d   1     -19.013  40.936 -22.686  0.00  0.00     0.036 C 
ATOM    219  H   ASN d   1     -18.630  40.601 -23.650  0.00  0.00     0.051 H 
ATOM    220  H   ASN d   1     -19.886  41.586 -22.749  0.00  0.00     0.051 H 
BRANCH 218 221
ATOM    221  CG  ASN d   1     -19.443  39.676 -21.908  0.00  0.00     0.217 C 
ATOM    222  OD1 ASN d   1     -20.250  39.737 -20.982  0.00  0.00    -0.274 OA
ATOM    223  ND2 ASN d   1     -18.908  38.516 -22.258  0.00  0.00    -0.370 N 
ATOM    224  H   ASN d   1     -19.165  37.665 -21.758  0.00  0.00     0.159 HD
ATOM    225  H   ASN d   1     -18.239  38.474 -23.027  0.00  0.00     0.159 HD
ENDBRANCH 218 221
ENDBRANCH 145 218
ENDBRANCH 142 145
ENDBRANCH 139 141
BRANCH 139 226
ATOM    226  CB  LYS d   1     -14.263  44.768 -22.907  0.00  0.00    -0.038 C 
ATOM    227  H   LYS d   1     -13.672  45.298 -23.654  0.00  0.00     0.036 H 
ATOM    228  H   LYS d   1     -13.751  44.370 -22.031  0.00  0.00     0.036 H 
BRANCH 226 229
ATOM    229  CG  LYS d   1     -15.258  45.817 -22.356  0.00  0.00    -0.061 C 
ATOM    230  H   LYS d   1     -14.653  46.625 -21.944  0.00  0.00     0.033 H 
ATOM    231  H   LYS d   1     -15.898  45.289 -21.649  0.00  0.00     0.033 H 
BRANCH 229 232
ATOM    232  CD  LYS d   1     -16.204  46.470 -23.393  0.00  0.00    -0.043 C 
ATOM    233  H   LYS d   1     -16.946  45.715 -23.653  0.00  0.00     0.035 H 
ATOM    234  H   LYS d   1     -15.574  46.814 -24.213  0.00  0.00     0.035 H 
BRANCH 232 235
ATOM    235  CE  LYS d   1     -16.989  47.703 -22.897  0.00  0.00     0.080 C 
ATOM    236  H   LYS d   1     -17.619  48.040 -23.720  0.00  0.00     0.075 H 
ATOM    237  H   LYS d   1     -16.259  48.444 -22.570  0.00  0.00     0.075 H 
BRANCH 235 238
ATOM    238  NZ  LYS d   1     -17.874  47.423 -21.752  0.00  0.00    -0.079 N 
ATOM    239  H   LYS d   1     -18.358  48.279 -21.480  0.00  0.00     0.274 HD
ATOM    240  H   LYS d   1     -18.558  46.714 -22.018  0.00  0.00     0.274 HD
ATOM    241  H   LYS d   1     -17.317  47.083 -20.968  0.00  0.00     0.274 HD
ENDBRANCH 235 238
ENDBRANCH 232 235
ENDBRANCH 229 232
ENDBRANCH 226 229
ENDBRANCH 139 226
ENDBRANCH 127 139
ENDBRANCH   1 125
TORSDOF 59
