REMARK  6 active torsions:
REMARK  status: ('A' for Active; 'I' for Inactive)
REMARK    1  A    between atoms: C7_7  and  C6_6 
REMARK    2  A    between atoms: N1_8  and  C18_22 
REMARK    3  A    between atoms: C22_26  and  C9_12 
REMARK    4  A    between atoms: C11_14  and  C12_15 
REMARK    5  A    between atoms: C18_22  and  C19_23 
REMARK    6  A    between atoms: C22_26  and  C23_27 
ROOT
ATOM      1  C7  13Q d   1       9.170   2.041   2.410  0.00  0.00     0.047 C 
ATOM      2  N1  13Q d   1      10.408   1.792   1.637  0.00  0.00    -0.342 N 
ATOM      3  O1  13Q d   1      12.585   1.963   1.351  0.00  0.00    -0.273 OA
ATOM      4  C8  13Q d   1      11.608   2.230   2.050  0.00  0.00     0.225 C 
ATOM      5  C9  13Q d   1      11.800   2.963   3.218  0.00  0.00     0.034 C 
ATOM      6  C10 13Q d   1      10.637   2.837   4.192  0.00  0.00    -0.044 C 
ATOM      7  C11 13Q d   1       9.374   3.163   3.413  0.00  0.00    -0.004 C 
ATOM      8  H   13Q d   1       8.931   1.129   2.957  0.00  0.00     0.081 H 
ATOM      9  H   13Q d   1      12.669   2.554   3.732  0.00  0.00     0.055 H 
ATOM     10  H   13Q d   1      10.760   3.519   5.033  0.00  0.00     0.035 H 
ATOM     11  H   13Q d   1      10.587   1.831   4.607  0.00  0.00     0.035 H 
ATOM     12  H   13Q d   1       9.487   4.128   2.920  0.00  0.00     0.051 H 
ENDROOT
BRANCH   1  13
ATOM     13  C6  13Q d   1       8.105   2.335   1.565  0.00  0.00    -0.035 A 
ATOM     14  C1  13Q d   1       8.138   3.473   0.765  0.00  0.00    -0.073 A 
ATOM     15  C2  13Q d   1       7.050   3.792  -0.039  0.00  0.00    -0.061 A 
ATOM     16  H   13Q d   1       9.019   4.115   0.769  0.00  0.00     0.084 H 
ATOM     17  C3  13Q d   1       5.927   2.972  -0.046  0.00  0.00     0.034 A 
ATOM     18  H   13Q d   1       7.077   4.685  -0.664  0.00  0.00     0.086 H 
ATOM     19  C4  13Q d   1       5.896   1.830   0.746  0.00  0.00    -0.061 A 
ATOM     20 CL1  13Q d   1       4.553   3.398  -0.998  0.00  0.00    -0.084 Cl
ATOM     21  C5  13Q d   1       6.985   1.512   1.552  0.00  0.00    -0.073 A 
ATOM     22  H   13Q d   1       5.019   1.183   0.736  0.00  0.00     0.086 H 
ATOM     23  H   13Q d   1       6.960   0.617   2.174  0.00  0.00     0.084 H 
ENDBRANCH   1  13
BRANCH   2  24
ATOM     24  C18 13Q d   1      10.351   0.878   0.473  0.00  0.00     0.002 C 
ATOM     25  H   13Q d   1       9.404   0.338   0.457  0.00  0.00     0.065 H 
ATOM     26  H   13Q d   1      11.147   0.136   0.530  0.00  0.00     0.065 H 
BRANCH  24  27
ATOM     27  C19 13Q d   1      10.503   1.734  -0.787  0.00  0.00    -0.038 A 
ATOM     28  C20 13Q d   1      11.797   1.310  -1.473  0.00  0.00    -0.060 A 
ATOM     29  C21 13Q d   1      10.505   1.418  -2.268  0.00  0.00    -0.060 A 
ATOM     30  H   13Q d   1      12.611   0.601  -1.323  0.00  0.00     0.033 H 
ATOM     31  H   13Q d   1      12.834   1.639  -1.544  0.00  0.00     0.033 H 
ATOM     32  H   13Q d   1      10.155   1.867  -3.198  0.00  0.00     0.033 H 
ATOM     33  H   13Q d   1       9.930   0.819  -2.974  0.00  0.00     0.033 H 
ATOM     34  H   13Q d   1       9.928   2.535  -0.324  0.00  0.00     0.042 H 
ENDBRANCH  24  27
ENDBRANCH   2  24
BRANCH   7  35
ATOM     35  C12 13Q d   1       8.261   3.270   4.242  0.00  0.00    -0.050 A 
ATOM     36  C13 13Q d   1       8.145   2.484   5.384  0.00  0.00    -0.076 A 
ATOM     37  C17 13Q d   1       7.021   2.591   6.195  0.00  0.00    -0.081 A 
ATOM     38  H   13Q d   1       8.938   1.782   5.644  0.00  0.00     0.084 H 
ATOM     39  C16 13Q d   1       6.007   3.484   5.866  0.00  0.00    -0.062 A 
ATOM     40  H   13Q d   1       6.934   1.974   7.090  0.00  0.00     0.083 H 
ATOM     41  C15 13Q d   1       6.121   4.270   4.725  0.00  0.00     0.034 A 
ATOM     42  H   13Q d   1       5.125   3.567   6.501  0.00  0.00     0.086 H 
ATOM     43  C14 13Q d   1       7.247   4.163   3.916  0.00  0.00    -0.055 A 
ATOM     44 CL2  13Q d   1       4.861   5.371   4.307  0.00  0.00    -0.084 Cl
ATOM     45  H   13Q d   1       7.335   4.782   3.023  0.00  0.00     0.086 H 
ENDBRANCH   7  35
BRANCH   5  46
ATOM     46  C22 13Q d   1      12.049   4.430   2.853  0.00  0.00     0.027 C 
ATOM     47  H   13Q d   1      11.135   4.893   2.482  0.00  0.00     0.050 H 
ATOM     48  H   13Q d   1      12.795   4.507   2.062  0.00  0.00     0.050 H 
BRANCH  46  49
ATOM     49  C23 13Q d   1      12.534   5.137   4.121  0.00  0.00     0.173 C 
ATOM     50  O2  13Q d   1      12.248   6.348   4.240  0.00  0.00    -0.648 OA
ATOM     51  O3  13Q d   1      13.211   4.461   4.926  0.00  0.00    -0.648 OA
ENDBRANCH  46  49
ENDBRANCH   5  46
TORSDOF 6
