REMARK WARNING: 32 MAX_TORS EXCEEDED!!!
REMARK  50 active torsions:
REMARK  status: ('A' for Active; 'I' for Inactive)
REMARK    1  A    between atoms: N_1  and  CA_2 
REMARK    2  A    between atoms: CA_2  and  C_3 
REMARK    3  A    between atoms: CA_2  and  CB_5 
REMARK       I    between atoms: C_3  and  N_6 
REMARK    4  A    between atoms: N_6  and  CA_7 
REMARK    5  A    between atoms: CA_7  and  C_8 
REMARK    6  A    between atoms: CA_7  and  CB_10 
REMARK       I    between atoms: C_8  and  N_13 
REMARK    7  A    between atoms: CB_10  and  OG1_11 
REMARK    8  A    between atoms: CB_10  and  CG2_12 
REMARK    9  A    between atoms: N_13  and  CA_14 
REMARK   10  A    between atoms: CA_14  and  C_15 
REMARK       I    between atoms: C_15  and  N_17 
REMARK   11  A    between atoms: N_17  and  CA_18 
REMARK   12  A    between atoms: CA_18  and  C_19 
REMARK       I    between atoms: C_19  and  N_21 
REMARK   13  A    between atoms: N_21  and  CA_22 
REMARK   14  A    between atoms: CA_22  and  C_23 
REMARK   15  A    between atoms: CA_22  and  CB_25 
REMARK       I    between atoms: C_23  and  N_28 
REMARK   16  A    between atoms: CB_25  and  CG1_26 
REMARK   17  A    between atoms: CB_25  and  CG2_27 
REMARK   18  A    between atoms: N_28  and  CA_29 
REMARK   19  A    between atoms: CA_29  and  CB_30 
REMARK   20  A    between atoms: CA_29  and  C_35 
REMARK   21  A    between atoms: CB_30  and  CG_31 
REMARK   22  A    between atoms: CG_31  and  CD_32 
REMARK   23  A    between atoms: CD_32  and  CE_33 
REMARK   24  A    between atoms: CE_33  and  NZ_34 
REMARK   25  A    between atoms: NZ_34  and  CM1_37 
REMARK   26  A    between atoms: NZ_34  and  CM2_38 
REMARK   27  A    between atoms: NZ_34  and  CM3_39 
REMARK       I    between atoms: C_35  and  N_40 
REMARK   28  A    between atoms: N_40  and  CA_41 
REMARK   29  A    between atoms: CA_41  and  C_42 
REMARK   30  A    between atoms: CA_41  and  CB_44 
REMARK       I    between atoms: C_42  and  N_49 
REMARK   31  A    between atoms: CB_44  and  CG_45 
REMARK   32  A    between atoms: CG_45  and  CD_46 
REMARK   33  A    between atoms: CD_46  and  CE_47 
REMARK   34  A    between atoms: CE_47  and  NZ_48 
REMARK   35  A    between atoms: CA_50  and  C_51 
REMARK       I    between atoms: C_51  and  N_56 
REMARK   36  A    between atoms: N_56  and  CA_57 
REMARK   37  A    between atoms: CA_57  and  C_58 
REMARK   38  A    between atoms: CA_57  and  CB_60 
REMARK       I    between atoms: C_58  and  N_66 
REMARK   39  A    between atoms: CB_60  and  CG_61 
REMARK   40  A    between atoms: N_66  and  CA_67 
REMARK   41  A    between atoms: CA_67  and  C_68 
REMARK   42  A    between atoms: CA_67  and  CB_70 
REMARK       I    between atoms: C_68  and  N_77 
REMARK   43  A    between atoms: CB_70  and  CG_71 
REMARK   44  A    between atoms: CG_71  and  CD_72 
REMARK   45  A    between atoms: CD_72  and  NE_73 
REMARK       I    between atoms: NE_73  and  CZ_74 
REMARK       I    between atoms: CZ_74  and  NH1_75 
REMARK   46  A    between atoms: N_77  and  CA_78 
REMARK   47  A    between atoms: CA_78  and  C_79 
REMARK   48  A    between atoms: CA_78  and  CB_80 
REMARK   49  A    between atoms: CB_80  and  CG_81 
REMARK   50  A    between atoms: CZ_86  and  OH_87 
ROOT
ATOM      1  CA  LYS d   1      -8.497   2.824 -12.344  0.00  0.00     0.089 C 
ATOM      2  H50 LYS d   1      -9.164   2.068 -12.783  0.00  0.00     0.087 H 
ENDROOT
BRANCH   1   3
ATOM      3  N   LYS d   1      -8.904   3.034 -10.952  0.00  0.00    -0.346 N 
ATOM      4  C   M3L d   1     -10.027   2.519 -10.440  0.00  0.00     0.241 C 
ATOM      5  O   M3L d   1     -10.813   1.812 -11.075  0.00  0.00    -0.271 OA
ATOM      6  H49 LYS d   1      -8.317   3.586 -10.360  0.00  0.00     0.163 HD
BRANCH   4   7
ATOM      7  CA  M3L d   1     -10.289   2.868  -8.976  0.00  0.00     0.089 C 
ATOM      8  H31 M3L d   1      -9.780   3.820  -8.765  0.00  0.00     0.087 H 
BRANCH   7   9
ATOM      9  N   M3L d   1     -11.727   3.069  -8.694  0.00  0.00    -0.346 N 
ATOM     10  C   VAL d   1     -12.428   4.109  -9.190  0.00  0.00     0.241 C 
ATOM     11  O   VAL d   1     -11.920   4.967  -9.918  0.00  0.00    -0.271 OA
ATOM     12  H30 M3L d   1     -12.199   2.407  -8.112  0.00  0.00     0.163 HD
BRANCH  10  13
ATOM     13  CA  VAL d   1     -13.927   4.211  -8.821  0.00  0.00     0.092 C 
ATOM     14  H22 VAL d   1     -14.064   5.146  -8.259  0.00  0.00     0.088 H 
BRANCH  13  15
ATOM     15  N   VAL d   1     -14.761   4.297 -10.026  0.00  0.00    -0.346 N 
ATOM     16  C   GLY d   1     -15.146   5.469 -10.550  0.00  0.00     0.236 C 
ATOM     17  O   GLY d   1     -14.833   6.563 -10.071  0.00  0.00    -0.272 OA
ATOM     18  H21 VAL d   1     -15.052   3.451 -10.472  0.00  0.00     0.163 HD
BRANCH  16  19
ATOM     19  CA  GLY d   1     -16.011   5.399 -11.798  0.00  0.00     0.069 C 
ATOM     20  H19 GLY d   1     -17.067   5.368 -11.491  0.00  0.00     0.078 H 
ATOM     21  H20 GLY d   1     -15.830   6.301 -12.401  0.00  0.00     0.078 H 
BRANCH  19  22
ATOM     22  N   GLY d   1     -15.732   4.228 -12.620  0.00  0.00    -0.351 N 
ATOM     23  C   GLY d   1     -16.228   4.111 -13.855  0.00  0.00     0.235 C 
ATOM     24  O   GLY d   1     -16.943   4.963 -14.391  0.00  0.00    -0.272 OA
ATOM     25  H18 GLY d   1     -15.157   3.497 -12.252  0.00  0.00     0.163 HD
BRANCH  23  26
ATOM     26  CA  GLY d   1     -15.862   2.842 -14.599  0.00  0.00     0.069 C 
ATOM     27  H16 GLY d   1     -16.011   3.008 -15.676  0.00  0.00     0.078 H 
ATOM     28  H17 GLY d   1     -14.804   2.612 -14.407  0.00  0.00     0.078 H 
BRANCH  26  29
ATOM     29  N   GLY d   1     -16.672   1.705 -14.183  0.00  0.00    -0.350 N 
ATOM     30  C   THR d   1     -16.332   0.452 -14.502  0.00  0.00     0.243 C 
ATOM     31  O   THR d   1     -15.327   0.162 -15.158  0.00  0.00    -0.271 OA
ATOM     32  H15 GLY d   1     -17.501   1.865 -13.647  0.00  0.00     0.163 HD
BRANCH  30  33
ATOM     33  CA  THR d   1     -17.278  -0.645 -13.999  0.00  0.00     0.113 C 
ATOM     34  H9  THR d   1     -18.291  -0.218 -13.947  0.00  0.00     0.091 H 
BRANCH  33  35
ATOM     35  N   THR d   1     -17.320  -1.771 -14.934  0.00  0.00    -0.344 N 
ATOM     36  C   ALA d   1     -18.431  -2.111 -15.593  0.00  0.00     0.248 C 
ATOM     37  O   ALA d   1     -19.507  -1.517 -15.473  0.00  0.00    -0.271 OA
ATOM     38  H8  THR d   1     -16.488  -2.304 -15.085  0.00  0.00     0.163 HD
BRANCH  36  39
ATOM     39  CA  ALA d   1     -18.309  -3.307 -16.531  0.00  0.00     0.172 C 
ATOM     40  H4  ALA d   1     -17.415  -3.880 -16.246  0.00  0.00     0.098 H 
BRANCH  39  41
ATOM     41  N   ALA d   1     -19.492  -4.199 -16.416  0.00  0.00    -0.067 N 
ATOM     42  H1  ALA d   1     -19.387  -4.980 -17.045  0.00  0.00     0.275 HD
ATOM     43  H2  ALA d   1     -20.325  -3.685 -16.656  0.00  0.00     0.275 HD
ATOM     44  H3  ALA d   1     -19.567  -4.538 -15.470  0.00  0.00     0.275 HD
ENDBRANCH  39  41
BRANCH  39  45
ATOM     45  CB  ALA d   1     -18.141  -2.835 -17.967  0.00  0.00    -0.042 C 
ATOM     46  H5  ALA d   1     -17.262  -2.177 -18.036  0.00  0.00     0.030 H 
ATOM     47  H6  ALA d   1     -19.039  -2.282 -18.279  0.00  0.00     0.030 H 
ATOM     48  H7  ALA d   1     -18.000  -3.705 -18.625  0.00  0.00     0.030 H 
ENDBRANCH  39  45
ENDBRANCH  36  39
ENDBRANCH  33  35
BRANCH  33  49
ATOM     49  CB  THR d   1     -16.880  -1.099 -12.556  0.00  0.00     0.060 C 
ATOM     50  H10 THR d   1     -17.664  -1.778 -12.189  0.00  0.00     0.086 H 
BRANCH  49  51
ATOM     51  OG1 THR d   1     -16.812   0.033 -11.677  0.00  0.00    -0.393 OA
ATOM     52  H11 THR d   1     -16.570  -0.258 -10.806  0.00  0.00     0.210 HD
ENDBRANCH  49  51
BRANCH  49  53
ATOM     53  CG2 THR d   1     -15.545  -1.852 -12.518  0.00  0.00    -0.050 C 
ATOM     54  H12 THR d   1     -15.319  -2.145 -11.482  0.00  0.00     0.031 H 
ATOM     55  H13 THR d   1     -14.745  -1.200 -12.898  0.00  0.00     0.031 H 
ATOM     56  H14 THR d   1     -15.614  -2.752 -13.147  0.00  0.00     0.031 H 
ENDBRANCH  49  53
ENDBRANCH  33  49
ENDBRANCH  30  33
ENDBRANCH  26  29
ENDBRANCH  23  26
ENDBRANCH  19  22
ENDBRANCH  16  19
ENDBRANCH  13  15
BRANCH  13  57
ATOM     57  CB  VAL d   1     -14.375   3.038  -7.886  0.00  0.00    -0.033 C 
ATOM     58  H23 VAL d   1     -13.567   2.859  -7.161  0.00  0.00     0.042 H 
BRANCH  57  59
ATOM     59  CG1 VAL d   1     -15.628   3.428  -7.115  0.00  0.00    -0.071 C 
ATOM     60  H24 VAL d   1     -15.931   2.596  -6.463  0.00  0.00     0.028 H 
ATOM     61  H25 VAL d   1     -16.439   3.653  -7.823  0.00  0.00     0.028 H 
ATOM     62  H26 VAL d   1     -15.419   4.317  -6.502  0.00  0.00     0.028 H 
ENDBRANCH  57  59
BRANCH  57  63
ATOM     63  CG2 VAL d   1     -14.611   1.733  -8.654  0.00  0.00    -0.071 C 
ATOM     64  H27 VAL d   1     -13.699   1.463  -9.206  0.00  0.00     0.028 H 
ATOM     65  H28 VAL d   1     -15.442   1.869  -9.362  0.00  0.00     0.028 H 
ATOM     66  H29 VAL d   1     -14.862   0.930  -7.945  0.00  0.00     0.028 H 
ENDBRANCH  57  63
ENDBRANCH  13  57
ENDBRANCH  10  13
ENDBRANCH   7   9
BRANCH   7  67
ATOM     67  CB  M3L d   1      -9.672   1.793  -8.058  0.00  0.00    -0.038 C 
ATOM     68  H32 M3L d   1      -9.242   2.300  -7.182  0.00  0.00     0.036 H 
ATOM     69  H33 M3L d   1      -8.872   1.286  -8.617  0.00  0.00     0.036 H 
BRANCH  67  70
ATOM     70  CG  M3L d   1     -10.642   0.735  -7.560  0.00  0.00    -0.061 C 
ATOM     71  H34 M3L d   1     -11.034   0.171  -8.419  0.00  0.00     0.033 H 
ATOM     72  H35 M3L d   1     -11.473   1.226  -7.033  0.00  0.00     0.033 H 
BRANCH  70  73
ATOM     73  CD  M3L d   1      -9.946  -0.221  -6.612  0.00  0.00    -0.042 C 
ATOM     74  H36 M3L d   1      -9.068   0.282  -6.181  0.00  0.00     0.035 H 
ATOM     75  H37 M3L d   1      -9.620  -1.107  -7.176  0.00  0.00     0.035 H 
BRANCH  73  76
ATOM     76  CE  M3L d   1     -10.873  -0.672  -5.468  0.00  0.00     0.084 C 
ATOM     77  H38 M3L d   1     -10.674  -1.736  -5.272  0.00  0.00     0.076 H 
ATOM     78  H39 M3L d   1     -11.912  -0.550  -5.808  0.00  0.00     0.076 H 
BRANCH  76  79
ATOM     79  NZ  M3L d   1     -10.720   0.084  -4.150  0.00  0.00    -0.079 N 
BRANCH  79  80
ATOM     80  CM1 M3L d   1      -9.339   0.039  -3.607  0.00  0.00     0.067 C 
ATOM     81  H40 M3L d   1      -9.298   0.600  -2.662  0.00  0.00     0.068 H 
ATOM     82  H41 M3L d   1      -8.645   0.491  -4.331  0.00  0.00     0.068 H 
ATOM     83  H42 M3L d   1      -9.050  -1.007  -3.425  0.00  0.00     0.068 H 
ENDBRANCH  79  80
BRANCH  79  84
ATOM     84  CM2 M3L d   1     -11.632  -0.567  -3.179  0.00  0.00     0.067 C 
ATOM     85  H43 M3L d   1     -12.661  -0.541  -3.568  0.00  0.00     0.068 H 
ATOM     86  H44 M3L d   1     -11.589  -0.031  -2.220  0.00  0.00     0.068 H 
ATOM     87  H45 M3L d   1     -11.323  -1.612  -3.029  0.00  0.00     0.068 H 
ENDBRANCH  79  84
BRANCH  79  88
ATOM     88  CM3 M3L d   1     -11.087   1.515  -4.283  0.00  0.00     0.067 C 
ATOM     89  H46 M3L d   1     -10.412   2.001  -5.003  0.00  0.00     0.068 H 
ATOM     90  H47 M3L d   1     -10.997   2.009  -3.304  0.00  0.00     0.068 H 
ATOM     91  H48 M3L d   1     -12.124   1.596  -4.640  0.00  0.00     0.068 H 
ENDBRANCH  79  88
ENDBRANCH  76  79
ENDBRANCH  73  76
ENDBRANCH  70  73
ENDBRANCH  67  70
ENDBRANCH   7  67
ENDBRANCH   4   7
ENDBRANCH   1   3
BRANCH   1  92
ATOM     92  C   LYS d   1      -7.046   2.275 -12.424  0.00  0.00     0.243 C 
ATOM     93  O   LYS d   1      -6.140   2.968 -12.905  0.00  0.00    -0.271 OA
ATOM     94  N   PRO d   1      -6.802   1.012 -11.945  0.00  0.00    -0.337 N 
ATOM     95  CA  PRO d   1      -5.460   0.372 -11.961  0.00  0.00     0.091 C 
ATOM     96  CD  PRO d   1      -7.788   0.110 -11.314  0.00  0.00    -0.001 C 
ATOM     97  CB  PRO d   1      -5.681  -0.924 -11.149  0.00  0.00    -0.036 C 
ATOM     98  H62 PRO d   1      -4.726   1.021 -11.461  0.00  0.00     0.087 H 
ATOM     99  CG  PRO d   1      -6.925  -0.683 -10.387  0.00  0.00    -0.048 C 
ATOM    100  H63 PRO d   1      -4.837  -1.103 -10.467  0.00  0.00     0.036 H 
ATOM    101  H64 PRO d   1      -5.799  -1.787 -11.821  0.00  0.00     0.036 H 
ATOM    102  H65 PRO d   1      -6.714  -0.113  -9.470  0.00  0.00     0.035 H 
ATOM    103  H66 PRO d   1      -7.410  -1.635 -10.124  0.00  0.00     0.035 H 
ATOM    104  H67 PRO d   1      -8.275  -0.536 -12.059  0.00  0.00     0.064 H 
ATOM    105  H68 PRO d   1      -8.554   0.676 -10.763  0.00  0.00     0.064 H 
BRANCH  95 106
ATOM    106  C   PRO d   1      -4.948   0.057 -13.378  0.00  0.00     0.241 C 
ATOM    107  O   PRO d   1      -5.265   0.779 -14.328  0.00  0.00    -0.271 OA
ATOM    108  N   HIS d   1      -4.151  -1.026 -13.504  0.00  0.00    -0.346 N 
ATOM    109  H69 HIS d   1      -3.945  -1.560 -12.684  0.00  0.00     0.163 HD
BRANCH 108 110
ATOM    110  CA  HIS d   1      -3.569  -1.463 -14.786  0.00  0.00     0.094 C 
ATOM    111  H70 HIS d   1      -2.896  -0.670 -15.144  0.00  0.00     0.088 H 
BRANCH 110 112
ATOM    112  C   HIS d   1      -4.649  -1.682 -15.866  0.00  0.00     0.241 C 
ATOM    113  O   HIS d   1      -4.476  -1.280 -17.021  0.00  0.00    -0.271 OA
ATOM    114  N   ARG d   1      -5.755  -2.322 -15.459  0.00  0.00    -0.346 N 
ATOM    115  H76 ARG d   1      -5.809  -2.616 -14.505  0.00  0.00     0.163 HD
BRANCH 114 116
ATOM    116  CA  ARG d   1      -6.889  -2.612 -16.341  0.00  0.00     0.089 C 
ATOM    117  H77 ARG d   1      -7.002  -1.778 -17.049  0.00  0.00     0.087 H 
BRANCH 116 118
ATOM    118  C   ARG d   1      -8.174  -2.743 -15.527  0.00  0.00     0.240 C 
ATOM    119  O   ARG d   1      -9.248  -2.336 -15.981  0.00  0.00    -0.271 OA
ATOM    120  N   TYR d   1      -8.048  -3.316 -14.319  0.00  0.00    -0.355 N 
ATOM    121  H89 TYR d   1      -7.142  -3.618 -14.021  0.00  0.00     0.162 HD
BRANCH 120 122
ATOM    122  CA  TYR d   1      -9.191  -3.516 -13.419  0.00  0.00     0.012 C 
ATOM    123  H90 TYR d   1      -9.964  -2.779 -13.682  0.00  0.00     0.072 H 
BRANCH 122 124
ATOM    124  C   TYR d   1      -8.782  -3.287 -11.966  0.00  0.00    -0.057 C 
ATOM    125  H91 TYR d   1      -9.652  -3.442 -11.311  0.00  0.00     0.030 H 
ATOM    126  H92 TYR d   1      -8.412  -2.258 -11.847  0.00  0.00     0.030 H 
ATOM    127  H93 TYR d   1      -7.987  -3.996 -11.693  0.00  0.00     0.030 H 
ENDBRANCH 122 124
BRANCH 122 128
ATOM    128  CB  TYR d   1      -9.799  -4.928 -13.576  0.00  0.00    -0.022 C 
ATOM    129  H94 TYR d   1     -10.481  -4.911 -14.439  0.00  0.00     0.043 H 
ATOM    130  H95 TYR d   1     -10.368  -5.157 -12.663  0.00  0.00     0.043 H 
BRANCH 128 131
ATOM    131  CG  TYR d   1      -8.789  -6.046 -13.795  0.00  0.00    -0.056 A 
ATOM    132  CD1 TYR d   1      -8.048  -6.566 -12.738  0.00  0.00    -0.074 A 
ATOM    133  CE1 TYR d   1      -7.131  -7.581 -12.940  0.00  0.00    -0.051 A 
ATOM    134  H96 TYR d   1      -8.192  -6.169 -11.740  0.00  0.00     0.084 H 
ATOM    135  CZ  TYR d   1      -6.948  -8.092 -14.208  0.00  0.00     0.065 A 
ATOM    136  H98 TYR d   1      -6.559  -7.973 -12.107  0.00  0.00     0.087 H 
ATOM    137  CE2 TYR d   1      -7.671  -7.595 -15.270  0.00  0.00    -0.051 A 
ATOM    138  CD2 TYR d   1      -8.584  -6.580 -15.062  0.00  0.00    -0.074 A 
ATOM    139  H99 TYR d   1      -7.524  -7.999 -16.265  0.00  0.00     0.087 H 
ATOM    140  H97 TYR d   1      -9.151  -6.193 -15.901  0.00  0.00     0.084 H 
BRANCH 135 141
ATOM    141  OH  TYR d   1      -6.037  -9.104 -14.414  0.00  0.00    -0.361 OA
ATOM    142 0H10 TYR d   1      -5.626  -9.331 -13.588  0.00  0.00     0.217 HD
ENDBRANCH 135 141
ENDBRANCH 128 131
ENDBRANCH 122 128
ENDBRANCH 120 122
ENDBRANCH 116 118
BRANCH 116 143
ATOM    143  CB  ARG d   1      -6.653  -3.905 -17.138  0.00  0.00    -0.036 C 
ATOM    144  H78 ARG d   1      -7.568  -4.513 -17.092  0.00  0.00     0.036 H 
ATOM    145  H79 ARG d   1      -5.823  -4.455 -16.670  0.00  0.00     0.036 H 
BRANCH 143 146
ATOM    146  CG  ARG d   1      -6.308  -3.668 -18.599  0.00  0.00    -0.048 C 
ATOM    147  H80 ARG d   1      -5.293  -3.249 -18.663  0.00  0.00     0.035 H 
ATOM    148  H81 ARG d   1      -7.027  -2.953 -19.025  0.00  0.00     0.035 H 
BRANCH 146 149
ATOM    149  CD  ARG d   1      -6.361  -4.960 -19.401  0.00  0.00     0.009 C 
ATOM    150  H82 ARG d   1      -6.301  -5.812 -18.707  0.00  0.00     0.064 H 
ATOM    151  H83 ARG d   1      -5.504  -4.986 -20.090  0.00  0.00     0.064 H 
BRANCH 149 152
ATOM    152  NE  ARG d   1      -7.599  -5.071 -20.181  0.00  0.00    -0.227 N 
ATOM    153  CZ  ARG d   1      -7.667  -5.497 -21.451  0.00  0.00     0.665 C 
ATOM    154  NH1 ARG d   1      -6.571  -5.862 -22.114  0.00  0.00    -0.235 N 
ATOM    155  NH2 ARG d   1      -8.843  -5.557 -22.059  0.00  0.00    -0.235 N 
ATOM    156  H85 ARG d   1      -6.643  -6.186 -23.089  0.00  0.00     0.174 HD
ATOM    157  H86 ARG d   1      -5.652  -5.820 -21.652  0.00  0.00     0.174 HD
ATOM    158  H87 ARG d   1      -9.697  -5.277 -21.556  0.00  0.00     0.174 HD
ATOM    159  H88 ARG d   1      -8.903  -5.883 -23.034  0.00  0.00     0.174 HD
ATOM    160  H84 ARG d   1      -8.480  -4.802 -19.720  0.00  0.00     0.177 HD
ENDBRANCH 149 152
ENDBRANCH 146 149
ENDBRANCH 143 146
ENDBRANCH 116 143
ENDBRANCH 114 116
ENDBRANCH 110 112
BRANCH 110 161
ATOM    161  CB  HIS d   1      -2.726  -2.744 -14.553  0.00  0.00     0.004 C 
ATOM    162  H71 HIS d   1      -2.175  -2.621 -13.609  0.00  0.00     0.046 H 
ATOM    163  H72 HIS d   1      -2.012  -2.837 -15.385  0.00  0.00     0.046 H 
BRANCH 161 164
ATOM    164  CG  HIS d   1      -3.509  -4.024 -14.469  0.00  0.00     0.053 A 
ATOM    165  ND1 HIS d   1      -3.441  -5.021 -15.418  0.00  0.00    -0.247 NA
ATOM    166  CE1 HIS d   1      -4.243  -6.011 -15.067  0.00  0.00     0.064 A 
ATOM    167  NE2 HIS d   1      -4.825  -5.691 -13.926  0.00  0.00    -0.359 N 
ATOM    168  H74 HIS d   1      -4.397  -6.934 -15.624  0.00  0.00     0.143 H 
ATOM    169  CD2 HIS d   1      -4.381  -4.454 -13.534  0.00  0.00     0.002 A 
ATOM    170  H75 HIS d   1      -5.502  -6.275 -13.414  0.00  0.00     0.166 HD
ATOM    171  H73 HIS d   1      -4.678  -3.918 -12.634  0.00  0.00     0.114 H 
ENDBRANCH 161 164
ENDBRANCH 110 161
ENDBRANCH 108 110
ENDBRANCH  95 106
ENDBRANCH   1  92
BRANCH   1 172
ATOM    172  CB  LYS d   1      -8.668   4.140 -13.158  0.00  0.00    -0.038 C 
ATOM    173  H51 LYS d   1      -9.745   4.347 -13.243  0.00  0.00     0.036 H 
ATOM    174  H52 LYS d   1      -8.247   3.974 -14.160  0.00  0.00     0.036 H 
BRANCH 172 175
ATOM    175  CG  LYS d   1      -7.992   5.392 -12.563  0.00  0.00    -0.061 C 
ATOM    176  H53 LYS d   1      -7.818   6.117 -13.372  0.00  0.00     0.033 H 
ATOM    177  H54 LYS d   1      -7.029   5.096 -12.122  0.00  0.00     0.033 H 
BRANCH 175 178
ATOM    178  CD  LYS d   1      -8.844   6.062 -11.478  0.00  0.00    -0.043 C 
ATOM    179  H55 LYS d   1      -8.233   6.189 -10.572  0.00  0.00     0.035 H 
ATOM    180  H56 LYS d   1      -9.706   5.417 -11.252  0.00  0.00     0.035 H 
BRANCH 178 181
ATOM    181  CE  LYS d   1      -9.352   7.424 -11.925  0.00  0.00     0.080 C 
ATOM    182  H57 LYS d   1     -10.034   7.288 -12.777  0.00  0.00     0.075 H 
ATOM    183  H58 LYS d   1      -8.495   8.039 -12.236  0.00  0.00     0.075 H 
BRANCH 181 184
ATOM    184  NZ  LYS d   1     -10.081   8.129 -10.832  0.00  0.00    -0.079 N 
ATOM    185  H59 LYS d   1     -10.401   9.025 -11.165  0.00  0.00     0.274 HD
ATOM    186  H60 LYS d   1      -9.462   8.264 -10.048  0.00  0.00     0.274 HD
ATOM    187  H61 LYS d   1     -10.872   7.575 -10.544  0.00  0.00     0.274 HD
ENDBRANCH 181 184
ENDBRANCH 178 181
ENDBRANCH 175 178
ENDBRANCH 172 175
ENDBRANCH   1 172
TORSDOF 50
