REMARK  26 active torsions:
REMARK  status: ('A' for Active; 'I' for Inactive)
REMARK    1  A    between atoms: N_1  and  CA_2 
REMARK    2  A    between atoms: CA_2  and  C_3 
REMARK    3  A    between atoms: CA_2  and  CB_5 
REMARK       I    between atoms: C_3  and  N_10 
REMARK    4  A    between atoms: CB_5  and  CG_6 
REMARK    5  A    between atoms: CG_6  and  CD_7 
REMARK       I    between atoms: CD_7  and  NE2_9 
REMARK    6  A    between atoms: N_10  and  CA_11 
REMARK    7  A    between atoms: CA_11  and  C_12 
REMARK    8  A    between atoms: CA_11  and  CB_14 
REMARK       I    between atoms: C_12  and  N_18 
REMARK    9  A    between atoms: CB_14  and  CG_15 
REMARK   10  A    between atoms: N_18  and  CA_19 
REMARK   11  A    between atoms: CA_19  and  C_20 
REMARK   12  A    between atoms: CA_19  and  CB_22 
REMARK       I    between atoms: C_20  and  N_25 
REMARK   13  A    between atoms: CB_22  and  OG1_23 
REMARK   14  A    between atoms: CB_22  and  CG2_24 
REMARK   15  A    between atoms: N_25  and  CA_26 
REMARK   16  A    between atoms: CA_26  and  C_27 
REMARK   17  A    between atoms: CA_26  and  CB_29 
REMARK       I    between atoms: C_27  and  N_36 
REMARK   18  A    between atoms: CB_29  and  CG_30 
REMARK   19  A    between atoms: CG_30  and  CD_31 
REMARK   20  A    between atoms: CD_31  and  NE_32 
REMARK       I    between atoms: NE_32  and  CZ_33 
REMARK       I    between atoms: CZ_33  and  NH1_34 
REMARK   21  A    between atoms: N_36  and  CA_37 
REMARK   22  A    between atoms: CA_37  and  C_38 
REMARK   23  A    between atoms: CA_37  and  CB_40 
REMARK   24  A    between atoms: CB_40  and  CG_41 
REMARK   25  A    between atoms: CG_41  and  CD1_42 
REMARK   26  A    between atoms: CG_41  and  CD2_43 
ROOT
ATOM      1  C   THR d   1       2.628  25.886   3.245  0.00  0.00     0.243 C 
ATOM      2  O   THR d   1       2.293  24.755   3.590  0.00  0.00    -0.271 OA
ATOM      3  N   ARG d   1       1.796  26.715   2.650  0.00  0.00    -0.346 N 
ATOM      4  H22 ARG d   1       2.107  27.629   2.389  0.00  0.00     0.163 HD
ENDROOT
BRANCH   1   5
ATOM      5  CA  THR d   1       4.037  26.390   3.523  0.00  0.00     0.113 C 
ATOM      6  H16 THR d   1       4.139  27.422   3.155  0.00  0.00     0.091 H 
BRANCH   5   7
ATOM      7  N   THR d   1       4.260  26.371   4.957  0.00  0.00    -0.344 N 
ATOM      8  C   ASP d   1       4.996  27.269   5.593  0.00  0.00     0.241 C 
ATOM      9  O   ASP d   1       5.704  28.101   5.024  0.00  0.00    -0.271 OA
ATOM     10  H15 THR d   1       3.835  25.641   5.493  0.00  0.00     0.163 HD
BRANCH   8  11
ATOM     11  CA  ASP d   1       4.930  27.177   7.113  0.00  0.00     0.098 C 
ATOM     12  H12 ASP d   1       5.400  26.233   7.425  0.00  0.00     0.088 H 
BRANCH  11  13
ATOM     13  N   ASP d   1       5.639  28.276   7.776  0.00  0.00    -0.345 N 
ATOM     14  C   GLN d   1       5.286  29.554   7.623  0.00  0.00     0.249 C 
ATOM     15  O   GLN d   1       4.429  29.933   6.818  0.00  0.00    -0.271 OA
ATOM     16  H11 ASP d   1       6.417  28.060   8.366  0.00  0.00     0.163 HD
BRANCH  14  17
ATOM     17  CA  GLN d   1       5.990  30.559   8.529  0.00  0.00     0.176 C 
ATOM     18  H4  GLN d   1       5.975  31.545   8.042  0.00  0.00     0.099 H 
BRANCH  17  19
ATOM     19  N   GLN d   1       5.272  30.650   9.822  0.00  0.00    -0.066 N 
ATOM     20  H1  GLN d   1       5.739  31.314  10.419  0.00  0.00     0.275 HD
ATOM     21  H2  GLN d   1       5.265  29.745  10.267  0.00  0.00     0.275 HD
ATOM     22  H3  GLN d   1       4.324  30.952   9.659  0.00  0.00     0.275 HD
ENDBRANCH  17  19
BRANCH  17  23
ATOM     23  CB  GLN d   1       7.449  30.150   8.767  0.00  0.00    -0.022 C 
ATOM     24  H5  GLN d   1       7.463  29.113   9.133  0.00  0.00     0.037 H 
ATOM     25  H6  GLN d   1       7.875  30.815   9.533  0.00  0.00     0.037 H 
BRANCH  23  26
ATOM     26  CG  GLN d   1       8.322  30.230   7.525  0.00  0.00     0.011 C 
ATOM     27  H7  GLN d   1       8.284  31.257   7.133  0.00  0.00     0.047 H 
ATOM     28  H8  GLN d   1       7.926  29.535   6.770  0.00  0.00     0.047 H 
BRANCH  26  29
ATOM     29  CD  GLN d   1       9.770  29.870   7.806  0.00  0.00     0.215 C 
ATOM     30  OE1 GLN d   1      10.068  29.066   8.693  0.00  0.00    -0.274 OA
ATOM     31  NE2 GLN d   1      10.681  30.472   7.058  0.00  0.00    -0.370 N 
ATOM     32  H9  GLN d   1      11.652  30.275   7.197  0.00  0.00     0.159 HD
ATOM     33  H10 GLN d   1      10.399  31.124   6.354  0.00  0.00     0.159 HD
ENDBRANCH  26  29
ENDBRANCH  23  26
ENDBRANCH  17  23
ENDBRANCH  14  17
ENDBRANCH  11  13
BRANCH  11  34
ATOM     34  CB  ASP d   1       3.452  27.155   7.527  0.00  0.00     0.043 C 
ATOM     35  H13 ASP d   1       2.940  26.379   6.939  0.00  0.00     0.052 H 
ATOM     36  H14 ASP d   1       3.014  28.138   7.298  0.00  0.00     0.052 H 
BRANCH  34  37
ATOM     37  CG  ASP d   1       3.228  26.865   8.993  0.00  0.00     0.175 C 
ATOM     38  OD1 ASP d   1       3.897  27.482   9.846  0.00  0.00    -0.648 OA
ATOM     39  OD2 ASP d   1       2.355  26.026   9.299  0.00  0.00    -0.648 OA
ENDBRANCH  34  37
ENDBRANCH  11  34
ENDBRANCH   8  11
ENDBRANCH   5   7
BRANCH   5  40
ATOM     40  CB  THR d   1       5.050  25.491   2.786  0.00  0.00     0.060 C 
ATOM     41  H17 THR d   1       4.936  24.461   3.155  0.00  0.00     0.086 H 
BRANCH  40  42
ATOM     42  OG1 THR d   1       6.385  25.936   3.054  0.00  0.00    -0.393 OA
ATOM     43  H18 THR d   1       7.002  25.377   2.596  0.00  0.00     0.210 HD
ENDBRANCH  40  42
BRANCH  40  44
ATOM     44  CG2 THR d   1       4.807  25.500   1.282  0.00  0.00    -0.050 C 
ATOM     45  H19 THR d   1       5.545  24.851   0.788  0.00  0.00     0.031 H 
ATOM     46  H20 THR d   1       4.908  26.527   0.900  0.00  0.00     0.031 H 
ATOM     47  H21 THR d   1       3.793  25.129   1.072  0.00  0.00     0.031 H 
ENDBRANCH  40  44
ENDBRANCH   5  40
ENDBRANCH   1   5
BRANCH   3  48
ATOM     48  CA  ARG d   1       0.431  26.311   2.371  0.00  0.00     0.089 C 
ATOM     49  H23 ARG d   1       0.230  25.393   2.942  0.00  0.00     0.087 H 
BRANCH  48  50
ATOM     50  C   ARG d   1       0.240  26.000   0.899  0.00  0.00     0.241 C 
ATOM     51  O   ARG d   1       0.751  26.706   0.028  0.00  0.00    -0.271 OA
ATOM     52  N   LEU d   1      -0.490  24.931   0.640  0.00  0.00    -0.345 N 
ATOM     53  H35 LEU d   1      -0.832  24.386   1.406  0.00  0.00     0.163 HD
BRANCH  52  54
ATOM     54  CA  LEU d   1      -0.816  24.515  -0.709  0.00  0.00     0.096 C 
ATOM     55  H36 LEU d   1      -0.695  25.372  -1.388  0.00  0.00     0.089 H 
BRANCH  54  56
ATOM     56  C   LEU d   1      -2.262  24.050  -0.746  0.00  0.00     0.196 C 
ATOM     57  O   LEU d   1      -3.163  24.909  -0.799  0.00  0.00    -0.646 OA
ATOM     58  OXT LEU d   1      -2.498  22.831  -0.709  0.00  0.00    -0.646 OA
ENDBRANCH  54  56
BRANCH  54  59
ATOM     59  CB  LEU d   1       0.115  23.385  -1.167  0.00  0.00    -0.034 C 
ATOM     60  H37 LEU d   1      -0.326  22.927  -2.065  0.00  0.00     0.037 H 
ATOM     61  H38 LEU d   1       0.163  22.639  -0.360  0.00  0.00     0.037 H 
BRANCH  59  62
ATOM     62  CG  LEU d   1       1.550  23.804  -1.508  0.00  0.00    -0.059 C 
ATOM     63  H39 LEU d   1       1.900  24.509  -0.739  0.00  0.00     0.038 H 
BRANCH  62  64
ATOM     64  CD1 LEU d   1       2.473  22.598  -1.516  0.00  0.00    -0.073 C 
ATOM     65  H40 LEU d   1       3.495  22.920  -1.762  0.00  0.00     0.028 H 
ATOM     66  H41 LEU d   1       2.125  21.875  -2.269  0.00  0.00     0.028 H 
ATOM     67  H42 LEU d   1       2.467  22.125  -0.523  0.00  0.00     0.028 H 
ENDBRANCH  62  64
BRANCH  62  68
ATOM     68  CD2 LEU d   1       1.593  24.500  -2.862  0.00  0.00    -0.073 C 
ATOM     69  H43 LEU d   1       0.922  25.372  -2.848  0.00  0.00     0.028 H 
ATOM     70  H44 LEU d   1       1.267  23.799  -3.645  0.00  0.00     0.028 H 
ATOM     71  H45 LEU d   1       2.621  24.832  -3.071  0.00  0.00     0.028 H 
ENDBRANCH  62  68
ENDBRANCH  59  62
ENDBRANCH  54  59
ENDBRANCH  52  54
ENDBRANCH  48  50
BRANCH  48  72
ATOM     72  CB  ARG d   1      -0.572  27.374   2.819  0.00  0.00    -0.036 C 
ATOM     73  H24 ARG d   1      -1.433  27.351   2.135  0.00  0.00     0.036 H 
ATOM     74  H25 ARG d   1      -0.085  28.358   2.761  0.00  0.00     0.036 H 
BRANCH  72  75
ATOM     75  CG  ARG d   1      -1.079  27.172   4.234  0.00  0.00    -0.048 C 
ATOM     76  H26 ARG d   1      -0.312  27.519   4.942  0.00  0.00     0.035 H 
ATOM     77  H27 ARG d   1      -1.269  26.101   4.396  0.00  0.00     0.035 H 
BRANCH  75  78
ATOM     78  CD  ARG d   1      -2.365  27.945   4.481  0.00  0.00     0.009 C 
ATOM     79  H28 ARG d   1      -2.159  29.021   4.383  0.00  0.00     0.064 H 
ATOM     80  H29 ARG d   1      -2.720  27.731   5.500  0.00  0.00     0.064 H 
BRANCH  78  81
ATOM     81  NE  ARG d   1      -3.411  27.574   3.527  0.00  0.00    -0.227 N 
ATOM     82  CZ  ARG d   1      -4.698  27.412   3.838  0.00  0.00     0.665 C 
ATOM     83  NH1 ARG d   1      -5.115  27.568   5.091  0.00  0.00    -0.235 N 
ATOM     84  NH2 ARG d   1      -5.565  27.076   2.891  0.00  0.00    -0.235 N 
ATOM     85  H31 ARG d   1      -6.111  27.441   5.322  0.00  0.00     0.174 HD
ATOM     86  H32 ARG d   1      -4.442  27.816   5.831  0.00  0.00     0.174 HD
ATOM     87  H33 ARG d   1      -5.245  26.954   1.919  0.00  0.00     0.174 HD
ATOM     88  H34 ARG d   1      -6.558  26.937   3.127  0.00  0.00     0.174 HD
ATOM     89  H30 ARG d   1      -3.134  27.428   2.546  0.00  0.00     0.177 HD
ENDBRANCH  78  81
ENDBRANCH  75  78
ENDBRANCH  72  75
ENDBRANCH  48  72
ENDBRANCH   3  48
TORSDOF 26
