REMARK WARNING: 32 MAX_TORS EXCEEDED!!!
REMARK  54 active torsions:
REMARK  status: ('A' for Active; 'I' for Inactive)
REMARK    1  A    between atoms: CA_2  and  C_7 
REMARK    2  A    between atoms: CD_5  and  OE_6 
REMARK       I    between atoms: C_7  and  N_9 
REMARK    3  A    between atoms: N_9  and  CA_10 
REMARK    4  A    between atoms: CA_10  and  C_11 
REMARK    5  A    between atoms: CA_10  and  CB_13 
REMARK       I    between atoms: C_11  and  N_20 
REMARK    6  A    between atoms: CB_13  and  CG_14 
REMARK    7  A    between atoms: CG_14  and  CD_15 
REMARK    8  A    between atoms: CD_15  and  NE_16 
REMARK       I    between atoms: NE_16  and  CZ_17 
REMARK       I    between atoms: CZ_17  and  NH1_18 
REMARK       I    between atoms: CZ_17  and  NH2_19 
REMARK    9  A    between atoms: N_20  and  CA_21 
REMARK   10  A    between atoms: CA_21  and  C_22 
REMARK   11  A    between atoms: CA_21  and  CB_24 
REMARK       I    between atoms: C_22  and  N_27 
REMARK   12  A    between atoms: CB_24  and  OG1_25 
REMARK   13  A    between atoms: CB_24  and  CG2_26 
REMARK   14  A    between atoms: N_27  and  CA_28 
REMARK   15  A    between atoms: CA_28  and  C_29 
REMARK   16  A    between atoms: CA_28  and  CB_31 
REMARK       I    between atoms: C_29  and  N_38 
REMARK   17  A    between atoms: CB_31  and  CG_32 
REMARK   18  A    between atoms: CG_32  and  CD_33 
REMARK   19  A    between atoms: CD_33  and  NE_34 
REMARK       I    between atoms: NE_34  and  CZ_35 
REMARK       I    between atoms: CZ_35  and  NH1_36 
REMARK       I    between atoms: CZ_35  and  NH2_37 
REMARK   20  A    between atoms: N_38  and  CA_39 
REMARK   21  A    between atoms: CA_39  and  C_40 
REMARK   22  A    between atoms: CA_39  and  CB_42 
REMARK       I    between atoms: C_40  and  N_47 
REMARK   23  A    between atoms: CB_42  and  CG_43 
REMARK   24  A    between atoms: CG_43  and  CD_44 
REMARK       I    between atoms: CD_44  and  NE2_46 
REMARK   25  A    between atoms: N_47  and  CA_48 
REMARK   26  A    between atoms: CA_48  and  C_49 
REMARK   27  A    between atoms: CA_48  and  CB_51 
REMARK       I    between atoms: C_49  and  N_58 
REMARK   28  A    between atoms: CB_51  and  CG_52 
REMARK   29  A    between atoms: CG_52  and  CD_53 
REMARK   30  A    between atoms: CD_53  and  NE_54 
REMARK       I    between atoms: NE_54  and  CZ_55 
REMARK       I    between atoms: CZ_55  and  NH1_56 
REMARK   31  A    between atoms: N_58  and  CA_59 
REMARK   32  A    between atoms: CA_59  and  C_60 
REMARK   33  A    between atoms: CA_59  and  CB_62 
REMARK       I    between atoms: C_60  and  N_66 
REMARK   34  A    between atoms: CB_62  and  CG_63 
REMARK       I    between atoms: CG_63  and  ND2_65 
REMARK   35  A    between atoms: N_66  and  CA_67 
REMARK   36  A    between atoms: CA_67  and  C_68 
REMARK   37  A    between atoms: CA_67  and  CB_70 
REMARK       I    between atoms: C_68  and  N_75 
REMARK   38  A    between atoms: CB_70  and  CG_71 
REMARK   39  A    between atoms: CG_71  and  CD_72 
REMARK   40  A    between atoms: N_75  and  CA_76 
REMARK   41  A    between atoms: CA_76  and  C_77 
REMARK   42  A    between atoms: CA_76  and  CB_79 
REMARK       I    between atoms: C_77  and  N_82 
REMARK   43  A    between atoms: CB_79  and  OG1_80 
REMARK   44  A    between atoms: CB_79  and  CG2_81 
REMARK   45  A    between atoms: N_82  and  CA_83 
REMARK   46  A    between atoms: CA_83  and  C_84 
REMARK   47  A    between atoms: CA_83  and  CB_86 
REMARK       I    between atoms: C_84  and  N_91 
REMARK   48  A    between atoms: CB_86  and  CG_87 
REMARK   49  A    between atoms: CG_87  and  CD_88 
REMARK       I    between atoms: CD_88  and  NE2_90 
REMARK   50  A    between atoms: N_91  and  CA_92 
REMARK   51  A    between atoms: CA_92  and  C_93 
REMARK   52  A    between atoms: CA_92  and  CB_95 
REMARK   53  A    between atoms: CB_95  and  CG1_96 
REMARK   54  A    between atoms: CB_95  and  CG2_97 
ROOT
ATOM      1  CA  ARG d   1      16.533   3.270  20.274  0.00  0.00     0.089 C 
ATOM      2  H52 ARG d   1      15.652   3.884  20.038  0.00  0.00     0.087 H 
ENDROOT
BRANCH   1   3
ATOM      3  N   ARG d   1      16.141   1.881  19.976  0.00  0.00    -0.346 N 
ATOM      4  C   GLN d   1      16.909   0.808  20.162  0.00  0.00     0.241 C 
ATOM      5  O   GLN d   1      17.990   0.831  20.742  0.00  0.00    -0.271 OA
ATOM      6  H51 ARG d   1      15.225   1.732  19.604  0.00  0.00     0.163 HD
BRANCH   4   7
ATOM      7  CA  GLN d   1      16.343  -0.515  19.639  0.00  0.00     0.090 C 
ATOM      8  H44 GLN d   1      15.877  -0.308  18.664  0.00  0.00     0.087 H 
BRANCH   7   9
ATOM      9  N   GLN d   1      17.393  -1.454  19.415  0.00  0.00    -0.346 N 
ATOM     10  C   ARG d   1      18.070  -1.489  18.314  0.00  0.00     0.241 C 
ATOM     11  O   ARG d   1      17.808  -0.803  17.336  0.00  0.00    -0.271 OA
ATOM     12  H43 GLN d   1      17.614  -2.110  20.137  0.00  0.00     0.163 HD
BRANCH  10  13
ATOM     13  CA  ARG d   1      19.195  -2.479  18.264  0.00  0.00     0.089 C 
ATOM     14  H31 ARG d   1      18.862  -3.442  18.679  0.00  0.00     0.087 H 
BRANCH  13  15
ATOM     15  N   ARG d   1      19.653  -2.636  16.912  0.00  0.00    -0.346 N 
ATOM     16  C   THR d   1      20.229  -3.748  16.571  0.00  0.00     0.243 C 
ATOM     17  O   THR d   1      20.162  -4.760  17.277  0.00  0.00    -0.271 OA
ATOM     18  H30 ARG d   1      19.530  -1.901  16.245  0.00  0.00     0.163 HD
BRANCH  16  19
ATOM     19  CA  THR d   1      21.036  -3.781  15.278  0.00  0.00     0.113 C 
ATOM     20  H24 THR d   1      21.534  -2.809  15.150  0.00  0.00     0.091 H 
BRANCH  19  21
ATOM     21  N   THR d   1      22.020  -4.784  15.485  0.00  0.00    -0.344 N 
ATOM     22  C   ARG d   1      23.206  -4.489  15.970  0.00  0.00     0.241 C 
ATOM     23  O   ARG d   1      23.599  -3.341  16.159  0.00  0.00    -0.271 OA
ATOM     24  H23 THR d   1      21.806  -5.734  15.257  0.00  0.00     0.163 HD
BRANCH  22  25
ATOM     25  CA  ARG d   1      24.057  -5.675  16.320  0.00  0.00     0.089 C 
ATOM     26  H11 ARG d   1      25.005  -5.357  16.778  0.00  0.00     0.087 H 
BRANCH  25  27
ATOM     27  N   ARG d   1      23.275  -6.470  17.228  0.00  0.00    -0.346 N 
ATOM     28  C   PCA d   1      23.378  -6.404  18.531  0.00  0.00     0.249 C 
ATOM     29  O   PCA d   1      24.056  -5.537  19.119  0.00  0.00    -0.271 OA
ATOM     30  H10 ARG d   1      22.613  -7.112  16.841  0.00  0.00     0.163 HD
BRANCH  28  31
ATOM     31  CA  PCA d   1      22.512  -7.404  19.298  0.00  0.00     0.180 C 
ATOM     32  N   PCA d   1      22.368  -8.636  18.526  0.00  0.00    -0.036 N 
ATOM     33  CD  PCA d   1      23.252  -9.629  19.096  0.00  0.00     0.191 C 
ATOM     34  H1  PCA d   1      22.618  -8.468  17.564  0.00  0.00     0.281 HD
ATOM     35  H2  PCA d   1      21.415  -8.960  18.574  0.00  0.00     0.281 HD
ATOM     36  CG  PCA d   1      23.293  -9.253  20.569  0.00  0.00    -0.015 C 
ATOM     37  H8  PCA d   1      22.672 -10.563  19.065  0.00  0.00     0.128 H 
ATOM     38  CB  PCA d   1      23.145  -7.761  20.633  0.00  0.00    -0.026 C 
ATOM     39  H6  PCA d   1      22.467  -9.740  21.108  0.00  0.00     0.039 H 
ATOM     40  H7  PCA d   1      24.252  -9.559  21.013  0.00  0.00     0.039 H 
ATOM     41  H4  PCA d   1      22.492  -7.467  21.468  0.00  0.00     0.036 H 
ATOM     42  H5  PCA d   1      24.125  -7.274  20.745  0.00  0.00     0.036 H 
ATOM     43  H3  PCA d   1      21.521  -6.959  19.471  0.00  0.00     0.099 H 
BRANCH  33  44
ATOM     44  OE  PCA d   1      24.281  -9.967  18.512  0.00  0.00    -0.370 OA
ATOM     45  H9  PCA d   1      24.735 -10.623  19.027  0.00  0.00     0.212 HD
ENDBRANCH  33  44
ENDBRANCH  28  31
ENDBRANCH  25  27
BRANCH  25  46
ATOM     46  CB  ARG d   1      24.317  -6.512  15.084  0.00  0.00    -0.036 C 
ATOM     47  H12 ARG d   1      25.064  -5.997  14.462  0.00  0.00     0.036 H 
ATOM     48  H13 ARG d   1      23.376  -6.611  14.522  0.00  0.00     0.036 H 
BRANCH  46  49
ATOM     49  CG  ARG d   1      24.835  -7.904  15.412  0.00  0.00    -0.048 C 
ATOM     50  H14 ARG d   1      24.307  -8.288  16.297  0.00  0.00     0.035 H 
ATOM     51  H15 ARG d   1      25.913  -7.849  15.623  0.00  0.00     0.035 H 
BRANCH  49  52
ATOM     52  CD  ARG d   1      24.602  -8.842  14.247  0.00  0.00     0.009 C 
ATOM     53  H16 ARG d   1      25.011  -9.835  14.486  0.00  0.00     0.064 H 
ATOM     54  H17 ARG d   1      25.101  -8.446  13.350  0.00  0.00     0.064 H 
BRANCH  52  55
ATOM     55  NE  ARG d   1      23.153  -8.953  13.997  0.00  0.00    -0.227 N 
ATOM     56  CZ  ARG d   1      22.555  -9.509  12.948  0.00  0.00     0.665 C 
ATOM     57  NH1 ARG d   1      23.271 -10.062  11.966  0.00  0.00    -0.235 N 
ATOM     58  NH2 ARG d   1      21.230  -9.494  12.889  0.00  0.00    -0.235 N 
ATOM     59  H19 ARG d   1      22.794 -10.489  11.159  0.00  0.00     0.174 HD
ATOM     60  H20 ARG d   1      24.300 -10.061  12.015  0.00  0.00     0.174 HD
ATOM     61  H21 ARG d   1      20.685  -9.065  13.651  0.00  0.00     0.174 HD
ATOM     62  H22 ARG d   1      20.746  -9.911  12.081  0.00  0.00     0.174 HD
ATOM     63  H18 ARG d   1      22.534  -8.554  14.717  0.00  0.00     0.177 HD
ENDBRANCH  52  55
ENDBRANCH  49  52
ENDBRANCH  46  49
ENDBRANCH  25  46
ENDBRANCH  22  25
ENDBRANCH  19  21
BRANCH  19  64
ATOM     64  CB  THR d   1      20.194  -4.040  13.993  0.00  0.00     0.060 C 
ATOM     65  H25 THR d   1      19.436  -4.817  14.171  0.00  0.00     0.086 H 
BRANCH  64  66
ATOM     66  OG1 THR d   1      21.089  -4.425  12.940  0.00  0.00    -0.393 OA
ATOM     67  H26 THR d   1      20.592  -4.587  12.147  0.00  0.00     0.210 HD
ENDBRANCH  64  66
BRANCH  64  68
ATOM     68  CG2 THR d   1      19.556  -2.749  13.586  0.00  0.00    -0.050 C 
ATOM     69  H27 THR d   1      18.955  -2.907  12.679  0.00  0.00     0.031 H 
ATOM     70  H28 THR d   1      20.337  -2.002  13.382  0.00  0.00     0.031 H 
ATOM     71  H29 THR d   1      18.907  -2.389  14.398  0.00  0.00     0.031 H 
ENDBRANCH  64  68
ENDBRANCH  19  64
ENDBRANCH  16  19
ENDBRANCH  13  15
BRANCH  13  72
ATOM     72  CB  ARG d   1      20.403  -1.948  19.029  0.00  0.00    -0.036 C 
ATOM     73  H32 ARG d   1      20.586  -0.923  18.675  0.00  0.00     0.036 H 
ATOM     74  H33 ARG d   1      21.260  -2.585  18.765  0.00  0.00     0.036 H 
BRANCH  72  75
ATOM     75  CG  ARG d   1      20.338  -1.893  20.537  0.00  0.00    -0.048 C 
ATOM     76  H34 ARG d   1      20.144  -2.899  20.937  0.00  0.00     0.035 H 
ATOM     77  H35 ARG d   1      19.532  -1.213  20.849  0.00  0.00     0.035 H 
BRANCH  75  78
ATOM     78  CD  ARG d   1      21.673  -1.381  21.059  0.00  0.00     0.009 C 
ATOM     79  H36 ARG d   1      21.665  -1.412  22.159  0.00  0.00     0.064 H 
ATOM     80  H37 ARG d   1      21.817  -0.344  20.723  0.00  0.00     0.064 H 
BRANCH  78  81
ATOM     81  NE  ARG d   1      22.798  -2.215  20.557  0.00  0.00    -0.227 N 
ATOM     82  CZ  ARG d   1      23.704  -1.831  19.619  0.00  0.00     0.665 C 
ATOM     83  NH1 ARG d   1      23.636  -0.604  19.067  0.00  0.00    -0.235 N 
ATOM     84  NH2 ARG d   1      24.614  -2.709  19.174  0.00  0.00    -0.235 N 
ATOM     85  H39 ARG d   1      24.326  -0.320  18.357  0.00  0.00     0.174 HD
ATOM     86  H40 ARG d   1      22.894   0.050  19.355  0.00  0.00     0.174 HD
ATOM     87  H41 ARG d   1      24.671  -3.649  19.592  0.00  0.00     0.174 HD
ATOM     88  H42 ARG d   1      25.257  -2.444  18.414  0.00  0.00     0.174 HD
ATOM     89  H38 ARG d   1      22.899  -3.161  20.953  0.00  0.00     0.177 HD
ENDBRANCH  78  81
ENDBRANCH  75  78
ENDBRANCH  72  75
ENDBRANCH  13  72
ENDBRANCH  10  13
ENDBRANCH   7   9
BRANCH   7  90
ATOM     90  CB  GLN d   1      15.232  -1.081  20.560  0.00  0.00    -0.030 C 
ATOM     91  H45 GLN d   1      14.670  -1.832  19.986  0.00  0.00     0.037 H 
ATOM     92  H46 GLN d   1      14.563  -0.250  20.830  0.00  0.00     0.037 H 
BRANCH  90  93
ATOM     93  CG  GLN d   1      15.703  -1.740  21.855  0.00  0.00     0.011 C 
ATOM     94  H47 GLN d   1      14.852  -1.785  22.551  0.00  0.00     0.047 H 
ATOM     95  H48 GLN d   1      16.500  -1.119  22.290  0.00  0.00     0.047 H 
BRANCH  93  96
ATOM     96  CD  GLN d   1      16.241  -3.147  21.665  0.00  0.00     0.215 C 
ATOM     97  OE1 GLN d   1      17.425  -3.339  21.438  0.00  0.00    -0.274 OA
ATOM     98  NE2 GLN d   1      15.375  -4.125  21.732  0.00  0.00    -0.370 N 
ATOM     99  H49 GLN d   1      15.678  -5.071  21.614  0.00  0.00     0.159 HD
ATOM    100  H50 GLN d   1      14.409  -3.927  21.902  0.00  0.00     0.159 HD
ENDBRANCH  93  96
ENDBRANCH  90  93
ENDBRANCH   7  90
ENDBRANCH   4   7
ENDBRANCH   1   3
BRANCH   1 101
ATOM    101  C   ARG d   1      17.647   3.766  19.369  0.00  0.00     0.241 C 
ATOM    102  O   ARG d   1      18.369   4.689  19.714  0.00  0.00    -0.271 OA
ATOM    103  N   ASN d   1      17.721   3.187  18.180  0.00  0.00    -0.346 N 
ATOM    104  H64 ASN d   1      17.115   2.418  17.979  0.00  0.00     0.163 HD
BRANCH 103 105
ATOM    105  CA  ASN d   1      18.655   3.633  17.157  0.00  0.00     0.097 C 
ATOM    106  H65 ASN d   1      18.616   4.732  17.142  0.00  0.00     0.088 H 
BRANCH 105 107
ATOM    107  C   ASN d   1      18.195   3.153  15.805  0.00  0.00     0.241 C 
ATOM    108  O   ASN d   1      17.608   2.063  15.714  0.00  0.00    -0.271 OA
ATOM    109  N   GLU d   1      18.391   3.939  14.772  0.00  0.00    -0.346 N 
ATOM    110  H70 GLU d   1      18.791   4.846  14.903  0.00  0.00     0.163 HD
BRANCH 109 111
ATOM    111  CA  GLU d   1      18.030   3.497  13.450  0.00  0.00     0.090 C 
ATOM    112  H71 GLU d   1      17.227   2.751  13.549  0.00  0.00     0.087 H 
BRANCH 111 113
ATOM    113  C   GLU d   1      19.232   2.823  12.819  0.00  0.00     0.241 C 
ATOM    114  O   GLU d   1      20.358   2.960  13.308  0.00  0.00    -0.271 OA
ATOM    115  N   THR d   1      19.015   2.045  11.807  0.00  0.00    -0.344 N 
ATOM    116  H76 THR d   1      18.079   1.896  11.489  0.00  0.00     0.163 HD
BRANCH 115 117
ATOM    117  CA  THR d   1      20.104   1.395  11.138  0.00  0.00     0.113 C 
ATOM    118  H77 THR d   1      21.000   2.025  11.242  0.00  0.00     0.091 H 
BRANCH 117 119
ATOM    119  C   THR d   1      19.798   1.240   9.646  0.00  0.00     0.243 C 
ATOM    120  O   THR d   1      18.642   1.001   9.259  0.00  0.00    -0.271 OA
ATOM    121  N   GLN d   1      20.815   1.447   8.823  0.00  0.00    -0.346 N 
ATOM    122  H83 GLN d   1      21.694   1.725   9.211  0.00  0.00     0.163 HD
BRANCH 121 123
ATOM    123  CA  GLN d   1      20.712   1.289   7.388  0.00  0.00     0.090 C 
ATOM    124  H84 GLN d   1      19.812   1.815   7.035  0.00  0.00     0.087 H 
BRANCH 123 125
ATOM    125  C   GLN d   1      20.590  -0.184   7.037  0.00  0.00     0.241 C 
ATOM    126  O   GLN d   1      21.266  -1.035   7.640  0.00  0.00    -0.271 OA
ATOM    127  N   VAL d   1      19.741  -0.473   6.093  0.00  0.00    -0.344 N 
ATOM    128  H91 VAL d   1      19.233   0.273   5.663  0.00  0.00     0.163 HD
BRANCH 127 129
ATOM    129  CA  VAL d   1      19.501  -1.814   5.642  0.00  0.00     0.099 C 
ATOM    130  H92 VAL d   1      19.812  -2.478   6.462  0.00  0.00     0.090 H 
BRANCH 129 131
ATOM    131  C   VAL d   1      20.367  -2.178   4.440  0.00  0.00     0.197 C 
ATOM    132  O   VAL d   1      20.135  -1.651   3.314  0.00  0.00    -0.646 OA
ATOM    133  OXT VAL d   1      21.296  -3.001   4.644  0.00  0.00    -0.646 OA
ENDBRANCH 129 131
BRANCH 129 134
ATOM    134  CB  VAL d   1      18.000  -2.102   5.395  0.00  0.00    -0.032 C 
ATOM    135  H93 VAL d   1      17.903  -3.064   4.871  0.00  0.00     0.042 H 
BRANCH 134 136
ATOM    136  CG1 VAL d   1      17.287  -2.182   6.723  0.00  0.00    -0.071 C 
ATOM    137  H94 VAL d   1      16.219  -2.387   6.554  0.00  0.00     0.028 H 
ATOM    138  H95 VAL d   1      17.397  -1.226   7.257  0.00  0.00     0.028 H 
ATOM    139  H96 VAL d   1      17.724  -2.991   7.326  0.00  0.00     0.028 H 
ENDBRANCH 134 136
BRANCH 134 140
ATOM    140  CG2 VAL d   1      17.363  -1.014   4.549  0.00  0.00    -0.071 C 
ATOM    141  H97 VAL d   1      17.880  -0.953   3.580  0.00  0.00     0.028 H 
ATOM    142  H98 VAL d   1      17.445  -0.049   5.070  0.00  0.00     0.028 H 
ATOM    143  H99 VAL d   1      16.302  -1.252   4.384  0.00  0.00     0.028 H 
ENDBRANCH 134 140
ENDBRANCH 129 134
ENDBRANCH 127 129
ENDBRANCH 123 125
BRANCH 123 144
ATOM    144  CB  GLN d   1      21.940   1.896   6.703  0.00  0.00    -0.030 C 
ATOM    145  H85 GLN d   1      22.834   1.384   7.089  0.00  0.00     0.037 H 
ATOM    146  H86 GLN d   1      21.986   2.963   6.967  0.00  0.00     0.037 H 
BRANCH 144 147
ATOM    147  CG  GLN d   1      21.950   1.784   5.179  0.00  0.00     0.011 C 
ATOM    148  H87 GLN d   1      21.098   2.351   4.777  0.00  0.00     0.047 H 
ATOM    149  H88 GLN d   1      21.849   0.724   4.901  0.00  0.00     0.047 H 
BRANCH 147 150
ATOM    150  CD  GLN d   1      23.226   2.327   4.572  0.00  0.00     0.215 C 
ATOM    151  OE1 GLN d   1      23.846   3.222   5.111  0.00  0.00    -0.274 OA
ATOM    152  NE2 GLN d   1      23.619   1.800   3.445  0.00  0.00    -0.370 N 
ATOM    153  H89 GLN d   1      24.456   2.126   3.006  0.00  0.00     0.159 HD
ATOM    154  H90 GLN d   1      23.083   1.070   3.021  0.00  0.00     0.159 HD
ENDBRANCH 147 150
ENDBRANCH 144 147
ENDBRANCH 123 144
ENDBRANCH 121 123
ENDBRANCH 117 119
BRANCH 117 155
ATOM    155  CB  THR d   1      20.400   0.018  11.792  0.00  0.00     0.060 C 
ATOM    156  H78 THR d   1      19.531  -0.641  11.649  0.00  0.00     0.086 H 
BRANCH 155 157
ATOM    157  OG1 THR d   1      20.637   0.208  13.203  0.00  0.00    -0.393 OA
ATOM    158  H79 THR d   1      21.381   0.786  13.323  0.00  0.00     0.210 HD
ENDBRANCH 155 157
BRANCH 155 159
ATOM    159  CG2 THR d   1      21.634  -0.642  11.177  0.00  0.00    -0.050 C 
ATOM    160  H80 THR d   1      21.812  -1.612  11.664  0.00  0.00     0.031 H 
ATOM    161  H81 THR d   1      22.509   0.008  11.324  0.00  0.00     0.031 H 
ATOM    162  H82 THR d   1      21.469  -0.797  10.101  0.00  0.00     0.031 H 
ENDBRANCH 155 159
ENDBRANCH 117 155
ENDBRANCH 115 117
ENDBRANCH 111 113
BRANCH 111 163
ATOM    163  CB  GLU d   1      17.492   4.645  12.551  0.00  0.00    -0.029 C 
ATOM    164  H72 GLU d   1      16.808   5.252  13.162  0.00  0.00     0.037 H 
ATOM    165  H73 GLU d   1      16.933   4.184  11.724  0.00  0.00     0.037 H 
BRANCH 163 166
ATOM    166  CG  GLU d   1      18.523   5.591  11.938  0.00  0.00     0.018 C 
ATOM    167  H74 GLU d   1      17.988   6.324  11.316  0.00  0.00     0.049 H 
ATOM    168  H75 GLU d   1      19.198   4.997  11.305  0.00  0.00     0.049 H 
BRANCH 166 169
ATOM    169  CD  GLU d   1      19.360   6.346  12.933  0.00  0.00     0.172 C 
ATOM    170  OE1 GLU d   1      18.871   6.665  14.010  0.00  0.00    -0.648 OA
ATOM    171  OE2 GLU d   1      20.516   6.668  12.598  0.00  0.00    -0.648 OA
ENDBRANCH 166 169
ENDBRANCH 163 166
ENDBRANCH 111 163
ENDBRANCH 109 111
ENDBRANCH 105 107
BRANCH 105 172
ATOM    172  CB  ASN d   1      20.154   3.243  17.466  0.00  0.00     0.036 C 
ATOM    173  H66 ASN d   1      20.393   3.640  18.464  0.00  0.00     0.051 H 
ATOM    174  H67 ASN d   1      20.780   3.743  16.713  0.00  0.00     0.051 H 
BRANCH 172 175
ATOM    175  CG  ASN d   1      20.552   1.733  17.465  0.00  0.00     0.217 C 
ATOM    176  OD1 ASN d   1      21.404   1.301  18.266  0.00  0.00    -0.274 OA
ATOM    177  ND2 ASN d   1      20.035   0.944  16.560  0.00  0.00    -0.370 N 
ATOM    178  H68 ASN d   1      20.279  -0.026  16.544  0.00  0.00     0.159 HD
ATOM    179  H69 ASN d   1      19.396   1.310  15.883  0.00  0.00     0.159 HD
ENDBRANCH 172 175
ENDBRANCH 105 172
ENDBRANCH 103 105
ENDBRANCH   1 101
BRANCH   1 180
ATOM    180  CB  ARG d   1      16.843   3.537  21.767  0.00  0.00    -0.036 C 
ATOM    181  H53 ARG d   1      17.466   4.441  21.833  0.00  0.00     0.036 H 
ATOM    182  H54 ARG d   1      17.402   2.676  22.162  0.00  0.00     0.036 H 
BRANCH 180 183
ATOM    183  CG  ARG d   1      15.603   3.745  22.640  0.00  0.00    -0.048 C 
ATOM    184  H55 ARG d   1      14.964   4.504  22.165  0.00  0.00     0.035 H 
ATOM    185  H56 ARG d   1      15.927   4.104  23.628  0.00  0.00     0.035 H 
BRANCH 183 186
ATOM    186  CD  ARG d   1      14.790   2.479  22.829  0.00  0.00     0.009 C 
ATOM    187  H57 ARG d   1      14.594   2.031  21.843  0.00  0.00     0.064 H 
ATOM    188  H58 ARG d   1      13.836   2.737  23.311  0.00  0.00     0.064 H 
BRANCH 186 189
ATOM    189  NE  ARG d   1      15.496   1.495  23.667  0.00  0.00    -0.227 N 
ATOM    190  CZ  ARG d   1      14.901   0.503  24.347  0.00  0.00     0.665 C 
ATOM    191  NH1 ARG d   1      13.573   0.343  24.274  0.00  0.00    -0.235 N 
ATOM    192  NH2 ARG d   1      15.635  -0.324  25.103  0.00  0.00    -0.235 N 
ATOM    193  H60 ARG d   1      13.117  -0.419  24.796  0.00  0.00     0.174 HD
ATOM    194  H61 ARG d   1      13.008   0.982  23.696  0.00  0.00     0.174 HD
ATOM    195  H62 ARG d   1      16.656  -0.201  25.159  0.00  0.00     0.174 HD
ATOM    196  H63 ARG d   1      15.178  -1.083  25.628  0.00  0.00     0.174 HD
ATOM    197  H59 ARG d   1      16.521   1.574  23.736  0.00  0.00     0.177 HD
ENDBRANCH 186 189
ENDBRANCH 183 186
ENDBRANCH 180 183
ENDBRANCH   1 180
TORSDOF 54
