REMARK WARNING: 32 MAX_TORS EXCEEDED!!!
REMARK  35 active torsions:
REMARK  status: ('A' for Active; 'I' for Inactive)
REMARK    1  A    between atoms: N_1  and  CA_2 
REMARK    2  A    between atoms: CA_2  and  C_3 
REMARK    3  A    between atoms: CA_2  and  CB_5 
REMARK       I    between atoms: C_3  and  N_8 
REMARK    4  A    between atoms: CB_5  and  OG1_6 
REMARK    5  A    between atoms: CB_5  and  CG2_7 
REMARK    6  A    between atoms: N_8  and  CA_9 
REMARK    7  A    between atoms: CA_9  and  C_10 
REMARK    8  A    between atoms: CA_9  and  CB_12 
REMARK       I    between atoms: C_10  and  N_13 
REMARK    9  A    between atoms: CA_14  and  C_15 
REMARK       I    between atoms: C_15  and  N_20 
REMARK   10  A    between atoms: CA_21  and  C_22 
REMARK       I    between atoms: C_22  and  N_27 
REMARK   11  A    between atoms: CA_28  and  C_29 
REMARK       I    between atoms: C_29  and  N_34 
REMARK   12  A    between atoms: N_34  and  CA_35 
REMARK   13  A    between atoms: CA_35  and  C_36 
REMARK   14  A    between atoms: CA_35  and  CB_38 
REMARK       I    between atoms: C_36  and  N_39 
REMARK   15  A    between atoms: N_39  and  CA_40 
REMARK   16  A    between atoms: CA_40  and  C_41 
REMARK   17  A    between atoms: CA_40  and  CB_43 
REMARK       I    between atoms: C_41  and  N_51 
REMARK   18  A    between atoms: CB_43  and  CG_44 
REMARK   19  A    between atoms: CZ_49  and  OH_50 
REMARK   20  A    between atoms: N_51  and  CA_52 
REMARK   21  A    between atoms: CA_52  and  C_53 
REMARK   22  A    between atoms: CA_52  and  CB_55 
REMARK       I    between atoms: C_53  and  N_56 
REMARK   23  A    between atoms: N_56  and  CA_57 
REMARK   24  A    between atoms: CA_57  and  C_58 
REMARK   25  A    between atoms: CA_57  and  CB_60 
REMARK       I    between atoms: C_58  and  N_63 
REMARK   26  A    between atoms: CB_60  and  OG1_61 
REMARK   27  A    between atoms: CB_60  and  CG2_62 
REMARK   28  A    between atoms: N_63  and  CA_64 
REMARK   29  A    between atoms: CA_64  and  C_65 
REMARK   30  A    between atoms: CA_64  and  CB_67 
REMARK       I    between atoms: C_65  and  N_71 
REMARK   31  A    between atoms: CB_67  and  CG_68 
REMARK   32  A    between atoms: CG_68  and  CD1_69 
REMARK   33  A    between atoms: CG_68  and  CD2_70 
REMARK   34  A    between atoms: N_71  and  CA_72 
REMARK   35  A    between atoms: CA_72  and  C_73 
ROOT
ATOM      1  CA  ALA d   1      -3.277 -25.694 -11.391  0.00  0.00     0.086 C 
ATOM      2  H37 ALA d   1      -3.121 -24.880 -10.668  0.00  0.00     0.086 H 
ENDROOT
BRANCH   1   3
ATOM      3  N   ALA d   1      -4.507 -26.386 -11.040  0.00  0.00    -0.346 N 
ATOM      4  C   PRO d   1      -5.638 -25.733 -10.822  0.00  0.00     0.241 C 
ATOM      5  O   PRO d   1      -5.736 -24.507 -10.905  0.00  0.00    -0.271 OA
ATOM      6  H36 ALA d   1      -4.498 -27.383 -10.961  0.00  0.00     0.163 HD
BRANCH   4   7
ATOM      7  CA  PRO d   1      -6.847 -26.586 -10.456  0.00  0.00     0.091 C 
ATOM      8  N   PRO d   1      -7.667 -25.962  -9.415  0.00  0.00    -0.337 N 
ATOM      9  C   PRO d   1      -7.189 -25.667  -8.195  0.00  0.00     0.243 C 
ATOM     10  CD  PRO d   1      -9.042 -25.714  -9.880  0.00  0.00    -0.001 C 
ATOM     11  O   PRO d   1      -6.031 -25.931  -7.860  0.00  0.00    -0.271 OA
ATOM     12  CG  PRO d   1      -8.896 -25.734 -11.372  0.00  0.00    -0.048 C 
ATOM     13  H34 PRO d   1      -9.408 -24.737  -9.531  0.00  0.00     0.064 H 
ATOM     14  H35 PRO d   1      -9.725 -26.506  -9.538  0.00  0.00     0.064 H 
ATOM     15  CB  PRO d   1      -7.794 -26.693 -11.657  0.00  0.00    -0.036 C 
ATOM     16  H32 PRO d   1      -9.830 -26.072 -11.844  0.00  0.00     0.035 H 
ATOM     17  H33 PRO d   1      -8.638 -24.732 -11.745  0.00  0.00     0.035 H 
ATOM     18  H30 PRO d   1      -8.187 -27.716 -11.748  0.00  0.00     0.036 H 
ATOM     19  H31 PRO d   1      -7.272 -26.416 -12.585  0.00  0.00     0.036 H 
ATOM     20  H29 PRO d   1      -6.506 -27.581 -10.134  0.00  0.00     0.087 H 
BRANCH   9  21
ATOM     21  CA  PRO d   1      -8.145 -24.996  -7.213  0.00  0.00     0.092 C 
ATOM     22  N   PRO d   1      -7.832 -25.332  -5.831  0.00  0.00    -0.337 N 
ATOM     23  C   PRO d   1      -8.230 -26.478  -5.272  0.00  0.00     0.243 C 
ATOM     24  CD  PRO d   1      -7.052 -24.275  -5.165  0.00  0.00    -0.001 C 
ATOM     25  O   PRO d   1      -8.896 -27.303  -5.898  0.00  0.00    -0.271 OA
ATOM     26  CG  PRO d   1      -6.955 -23.183  -6.204  0.00  0.00    -0.048 C 
ATOM     27  H27 PRO d   1      -6.052 -24.642  -4.889  0.00  0.00     0.064 H 
ATOM     28  H28 PRO d   1      -7.572 -23.914  -4.265  0.00  0.00     0.064 H 
ATOM     29  CB  PRO d   1      -7.982 -23.480  -7.243  0.00  0.00    -0.036 C 
ATOM     30  H25 PRO d   1      -7.155 -22.204  -5.744  0.00  0.00     0.035 H 
ATOM     31  H26 PRO d   1      -5.952 -23.178  -6.655  0.00  0.00     0.035 H 
ATOM     32  H23 PRO d   1      -8.933 -22.984  -7.000  0.00  0.00     0.036 H 
ATOM     33  H24 PRO d   1      -7.638 -23.148  -8.233  0.00  0.00     0.036 H 
ATOM     34  H22 PRO d   1      -9.177 -25.285  -7.460  0.00  0.00     0.087 H 
BRANCH  23  35
ATOM     35  CA  PRO d   1      -7.842 -26.734  -3.816  0.00  0.00     0.092 C 
ATOM     36  N   PRO d   1      -8.820 -27.582  -3.137  0.00  0.00    -0.337 N 
ATOM     37  C   ALA d   1      -9.974 -27.107  -2.654  0.00  0.00     0.243 C 
ATOM     38  CD  PRO d   1      -8.373 -28.984  -3.056  0.00  0.00    -0.001 C 
ATOM     39  O   ALA d   1     -10.255 -25.909  -2.702  0.00  0.00    -0.271 OA
ATOM     40  CG  PRO d   1      -7.022 -28.977  -3.727  0.00  0.00    -0.048 C 
ATOM     41  H20 PRO d   1      -9.070 -29.648  -3.588  0.00  0.00     0.064 H 
ATOM     42  H21 PRO d   1      -8.287 -29.307  -2.008  0.00  0.00     0.064 H 
ATOM     43  CB  PRO d   1      -6.558 -27.560  -3.732  0.00  0.00    -0.036 C 
ATOM     44  H18 PRO d   1      -6.316 -29.606  -3.165  0.00  0.00     0.035 H 
ATOM     45  H19 PRO d   1      -7.108 -29.352  -4.757  0.00  0.00     0.035 H 
ATOM     46  H16 PRO d   1      -6.007 -27.329  -2.808  0.00  0.00     0.036 H 
ATOM     47  H17 PRO d   1      -5.913 -27.366  -4.602  0.00  0.00     0.036 H 
ATOM     48  H15 PRO d   1      -7.728 -25.772  -3.295  0.00  0.00     0.087 H 
BRANCH  37  49
ATOM     49  CA  ALA d   1     -10.939 -28.101  -2.014  0.00  0.00     0.086 C 
ATOM     50  H11 ALA d   1     -10.360 -28.957  -1.638  0.00  0.00     0.086 H 
BRANCH  49  51
ATOM     51  N   ALA d   1     -11.633 -27.485  -0.896  0.00  0.00    -0.346 N 
ATOM     52  C   THR d   1     -11.617 -28.014   0.318  0.00  0.00     0.251 C 
ATOM     53  O   THR d   1     -11.017 -29.055   0.591  0.00  0.00    -0.271 OA
ATOM     54  H10 ALA d   1     -12.138 -26.636  -1.048  0.00  0.00     0.163 HD
BRANCH  52  55
ATOM     55  CA  THR d   1     -12.399 -27.249   1.385  0.00  0.00     0.199 C 
ATOM     56  H4  THR d   1     -11.833 -27.286   2.327  0.00  0.00     0.103 H 
BRANCH  55  57
ATOM     57  N   THR d   1     -12.570 -25.852   1.006  0.00  0.00    -0.064 N 
ATOM     58  H1  THR d   1     -11.666 -25.429   0.865  0.00  0.00     0.275 HD
ATOM     59  H2  THR d   1     -13.059 -25.362   1.739  0.00  0.00     0.275 HD
ATOM     60  H3  THR d   1     -13.103 -25.798   0.152  0.00  0.00     0.275 HD
ENDBRANCH  55  57
BRANCH  55  61
ATOM     61  CB  THR d   1     -13.768 -27.918   1.607  0.00  0.00     0.068 C 
ATOM     62  H5  THR d   1     -13.624 -29.006   1.680  0.00  0.00     0.086 H 
BRANCH  61  63
ATOM     63  OG1 THR d   1     -14.630 -27.634   0.495  0.00  0.00    -0.393 OA
ATOM     64  H6  THR d   1     -15.473 -28.048   0.636  0.00  0.00     0.210 HD
ENDBRANCH  61  63
BRANCH  61  65
ATOM     65  CG2 THR d   1     -14.409 -27.420   2.896  0.00  0.00    -0.050 C 
ATOM     66  H7  THR d   1     -15.384 -27.910   3.034  0.00  0.00     0.031 H 
ATOM     67  H8  THR d   1     -14.551 -26.331   2.838  0.00  0.00     0.031 H 
ATOM     68  H9  THR d   1     -13.755 -27.659   3.747  0.00  0.00     0.031 H 
ENDBRANCH  61  65
ENDBRANCH  55  61
ENDBRANCH  52  55
ENDBRANCH  49  51
BRANCH  49  69
ATOM     69  CB  ALA d   1     -11.941 -28.609  -3.044  0.00  0.00    -0.049 C 
ATOM     70  H12 ALA d   1     -11.401 -29.072  -3.883  0.00  0.00     0.030 H 
ATOM     71  H13 ALA d   1     -12.544 -27.767  -3.416  0.00  0.00     0.030 H 
ATOM     72  H14 ALA d   1     -12.601 -29.355  -2.577  0.00  0.00     0.030 H 
ENDBRANCH  49  69
ENDBRANCH  37  49
ENDBRANCH  23  35
ENDBRANCH   9  21
ENDBRANCH   4   7
ENDBRANCH   1   3
BRANCH   1  73
ATOM     73  C   ALA d   1      -3.371 -25.081 -12.784  0.00  0.00     0.240 C 
ATOM     74  O   ALA d   1      -4.235 -25.446 -13.584  0.00  0.00    -0.271 OA
ATOM     75  N   TYR d   1      -2.460 -24.165 -13.068  0.00  0.00    -0.346 N 
ATOM     76  H41 TYR d   1      -1.757 -23.959 -12.387  0.00  0.00     0.163 HD
BRANCH  75  77
ATOM     77  CA  TYR d   1      -2.441 -23.445 -14.335  0.00  0.00     0.093 C 
ATOM     78  H42 TYR d   1      -3.404 -22.929 -14.459  0.00  0.00     0.088 H 
BRANCH  77  79
ATOM     79  C   TYR d   1      -2.254 -24.403 -15.508  0.00  0.00     0.241 C 
ATOM     80  O   TYR d   1      -2.889 -24.254 -16.553  0.00  0.00    -0.271 OA
ATOM     81  N   ALA d   1      -1.397 -25.395 -15.316  0.00  0.00    -0.346 N 
ATOM     82  H50 ALA d   1      -0.921 -25.465 -14.439  0.00  0.00     0.163 HD
BRANCH  81  83
ATOM     83  CA  ALA d   1      -1.130 -26.389 -16.352  0.00  0.00     0.086 C 
ATOM     84  H51 ALA d   1      -1.036 -25.872 -17.318  0.00  0.00     0.086 H 
BRANCH  83  85
ATOM     85  C   ALA d   1      -2.282 -27.378 -16.441  0.00  0.00     0.240 C 
ATOM     86  O   ALA d   1      -2.469 -28.058 -17.447  0.00  0.00    -0.271 OA
ATOM     87  N   THR d   1      -3.053 -27.442 -15.369  0.00  0.00    -0.344 N 
ATOM     88  H55 THR d   1      -2.841 -26.853 -14.589  0.00  0.00     0.163 HD
BRANCH  87  89
ATOM     89  CA  THR d   1      -4.196 -28.333 -15.279  0.00  0.00     0.113 C 
ATOM     90  H56 THR d   1      -3.922 -29.304 -15.717  0.00  0.00     0.091 H 
BRANCH  89  91
ATOM     91  C   THR d   1      -5.388 -27.767 -16.045  0.00  0.00     0.243 C 
ATOM     92  O   THR d   1      -6.145 -28.502 -16.677  0.00  0.00    -0.271 OA
ATOM     93  N   LEU d   1      -5.540 -26.453 -15.989  0.00  0.00    -0.346 N 
ATOM     94  H62 LEU d   1      -4.866 -25.906 -15.492  0.00  0.00     0.163 HD
BRANCH  93  95
ATOM     95  CA  LEU d   1      -6.661 -25.782 -16.631  0.00  0.00     0.089 C 
ATOM     96  H63 LEU d   1      -7.504 -26.487 -16.674  0.00  0.00     0.087 H 
BRANCH  95  97
ATOM     97  C   LEU d   1      -6.321 -25.370 -18.062  0.00  0.00     0.240 C 
ATOM     98  O   LEU d   1      -7.183 -24.892 -18.801  0.00  0.00    -0.271 OA
ATOM     99  N   GLY d   1      -5.066 -25.555 -18.450  0.00  0.00    -0.349 N 
ATOM    100  H73 GLY d   1      -4.404 -25.947 -17.811  0.00  0.00     0.163 HD
BRANCH  99 101
ATOM    101  CA  GLY d   1      -4.643 -25.196 -19.790  0.00  0.00     0.075 C 
ATOM    102  H74 GLY d   1      -3.690 -24.650 -19.727  0.00  0.00     0.080 H 
ATOM    103  H75 GLY d   1      -5.408 -24.547 -20.242  0.00  0.00     0.080 H 
BRANCH 101 104
ATOM    104  C   GLY d   1      -4.451 -26.411 -20.672  0.00  0.00     0.191 C 
ATOM    105  O   GLY d   1      -4.250 -27.541 -20.153  0.00  0.00    -0.647 OA
ATOM    106  O   GLY d   1      -4.492 -26.292 -21.926  0.00  0.00    -0.647 OA
ENDBRANCH 101 104
ENDBRANCH  99 101
ENDBRANCH  95  97
BRANCH  95 107
ATOM    107  CB  LEU d   1      -7.091 -24.572 -15.788  0.00  0.00    -0.035 C 
ATOM    108  H64 LEU d   1      -7.473 -24.948 -14.828  0.00  0.00     0.037 H 
ATOM    109  H65 LEU d   1      -7.899 -24.055 -16.327  0.00  0.00     0.037 H 
BRANCH 107 110
ATOM    110  CG  LEU d   1      -5.995 -23.545 -15.487  0.00  0.00    -0.059 C 
ATOM    111  H66 LEU d   1      -5.037 -24.079 -15.409  0.00  0.00     0.038 H 
BRANCH 110 112
ATOM    112  CD1 LEU d   1      -5.873 -22.519 -16.604  0.00  0.00    -0.073 C 
ATOM    113  H67 LEU d   1      -5.079 -21.799 -16.356  0.00  0.00     0.028 H 
ATOM    114  H68 LEU d   1      -6.828 -21.986 -16.718  0.00  0.00     0.028 H 
ATOM    115  H69 LEU d   1      -5.623 -23.030 -17.546  0.00  0.00     0.028 H 
ENDBRANCH 110 112
BRANCH 110 116
ATOM    116  CD2 LEU d   1      -6.270 -22.866 -14.159  0.00  0.00    -0.073 C 
ATOM    117  H70 LEU d   1      -6.354 -23.627 -13.369  0.00  0.00     0.028 H 
ATOM    118  H71 LEU d   1      -7.211 -22.300 -14.225  0.00  0.00     0.028 H 
ATOM    119  H72 LEU d   1      -5.445 -22.179 -13.921  0.00  0.00     0.028 H 
ENDBRANCH 110 116
ENDBRANCH 107 110
ENDBRANCH  95 107
ENDBRANCH  93  95
ENDBRANCH  89  91
BRANCH  89 120
ATOM    120  CB  THR d   1      -4.585 -28.540 -13.802  0.00  0.00     0.060 C 
ATOM    121  H57 THR d   1      -4.817 -27.559 -13.362  0.00  0.00     0.086 H 
BRANCH 120 122
ATOM    122  OG1 THR d   1      -3.484 -29.118 -13.093  0.00  0.00    -0.393 OA
ATOM    123  H58 THR d   1      -3.726 -29.245 -12.183  0.00  0.00     0.210 HD
ENDBRANCH 120 122
BRANCH 120 124
ATOM    124  CG2 THR d   1      -5.805 -29.432 -13.659  0.00  0.00    -0.050 C 
ATOM    125  H59 THR d   1      -6.048 -29.553 -12.593  0.00  0.00     0.031 H 
ATOM    126  H60 THR d   1      -5.593 -30.417 -14.101  0.00  0.00     0.031 H 
ATOM    127  H61 THR d   1      -6.658 -28.972 -14.179  0.00  0.00     0.031 H 
ENDBRANCH 120 124
ENDBRANCH  89 120
ENDBRANCH  87  89
ENDBRANCH  83  85
BRANCH  83 128
ATOM    128  CB  ALA d   1       0.173 -27.120 -16.065  0.00  0.00    -0.049 C 
ATOM    129  H52 ALA d   1       0.358 -27.864 -16.854  0.00  0.00     0.030 H 
ATOM    130  H53 ALA d   1       0.102 -27.628 -15.092  0.00  0.00     0.030 H 
ATOM    131  H54 ALA d   1       1.002 -26.397 -16.041  0.00  0.00     0.030 H 
ENDBRANCH  83 128
ENDBRANCH  81  83
ENDBRANCH  77  79
BRANCH  77 132
ATOM    132  CB  TYR d   1      -1.323 -22.398 -14.313  0.00  0.00    -0.014 C 
ATOM    133  H43 TYR d   1      -0.368 -22.917 -14.146  0.00  0.00     0.043 H 
ATOM    134  H44 TYR d   1      -1.515 -21.706 -13.480  0.00  0.00     0.043 H 
BRANCH 132 135
ATOM    135  CG  TYR d   1      -1.207 -21.590 -15.584  0.00  0.00    -0.056 A 
ATOM    136  CD1 TYR d   1      -2.181 -20.665 -15.930  0.00  0.00    -0.074 A 
ATOM    137  CE1 TYR d   1      -2.077 -19.922 -17.089  0.00  0.00    -0.051 A 
ATOM    138  H45 TYR d   1      -3.037 -20.523 -15.280  0.00  0.00     0.084 H 
ATOM    139  CZ  TYR d   1      -0.988 -20.100 -17.918  0.00  0.00     0.065 A 
ATOM    140  H47 TYR d   1      -2.846 -19.203 -17.346  0.00  0.00     0.087 H 
ATOM    141  CE2 TYR d   1      -0.009 -21.013 -17.594  0.00  0.00    -0.051 A 
ATOM    142  CD2 TYR d   1      -0.120 -21.752 -16.434  0.00  0.00    -0.074 A 
ATOM    143  H48 TYR d   1       0.845 -21.150 -18.247  0.00  0.00     0.087 H 
ATOM    144  H46 TYR d   1       0.652 -22.470 -16.182  0.00  0.00     0.084 H 
BRANCH 139 145
ATOM    145  OH  TYR d   1      -0.879 -19.361 -19.074  0.00  0.00    -0.361 OA
ATOM    146  H49 TYR d   1      -1.629 -18.783 -19.151  0.00  0.00     0.217 HD
ENDBRANCH 139 145
ENDBRANCH 132 135
ENDBRANCH  77 132
ENDBRANCH  75  77
ENDBRANCH   1  73
BRANCH   1 147
ATOM    147  CB  ALA d   1      -2.094 -26.647 -11.302  0.00  0.00    -0.049 C 
ATOM    148  H38 ALA d   1      -1.171 -26.112 -11.570  0.00  0.00     0.030 H 
ATOM    149  H39 ALA d   1      -2.246 -27.486 -11.997  0.00  0.00     0.030 H 
ATOM    150  H40 ALA d   1      -2.010 -27.032 -10.275  0.00  0.00     0.030 H 
ENDBRANCH   1 147
TORSDOF 35
