REMARK  4 active torsions:
REMARK  status: ('A' for Active; 'I' for Inactive)
REMARK    1  A    between atoms: C11_18  and  C10_2 
REMARK    2  A    between atoms: N_12  and  C6_4 
REMARK    3  A    between atoms: C3_6  and  S1_25 
REMARK    4  A    between atoms: N1_7  and  N_12 
ROOT
ATOM      1  N   1HF d   1      -6.727  -0.233  32.296  0.00  0.00    -0.141 NA
ENDROOT
BRANCH   1   2
ATOM      2  C6  1HF d   1      -5.772  -0.939  31.774  0.00  0.00     0.159 A 
ATOM      3  C5  1HF d   1      -4.996  -2.047  32.282  0.00  0.00     0.028 A 
ATOM      4  C4  1HF d   1      -5.074  -2.786  33.458  0.00  0.00    -0.045 A 
ATOM      5  C   1HF d   1      -4.024  -2.317  31.354  0.00  0.00     0.048 A 
ATOM      6  C3  1HF d   1      -4.099  -3.765  33.685  0.00  0.00     0.081 A 
ATOM      7  H3  1HF d   1      -5.866  -2.609  34.177  0.00  0.00     0.087 H 
ATOM      8  C2  1HF d   1      -3.080  -4.001  32.743  0.00  0.00    -0.057 A 
ATOM      9  C1  1HF d   1      -3.048  -3.277  31.547  0.00  0.00    -0.055 A 
ATOM     10  H4  1HF d   1      -2.318  -4.745  32.945  0.00  0.00     0.086 H 
ATOM     11  H5  1HF d   1      -2.286  -3.462  30.799  0.00  0.00     0.087 H 
ATOM     12  N2  1HF d   1      -4.167  -1.422  30.283  0.00  0.00    -0.321 N 
ATOM     13  C8  1HF d   1      -5.182  -0.568  30.458  0.00  0.00     0.277 A 
ATOM     14  H6  1HF d   1      -3.575  -1.422  29.477  0.00  0.00     0.169 HD
ATOM     15  O   1HF d   1      -5.425   0.335  29.673  0.00  0.00    -0.266 OA
BRANCH   6  16
ATOM     16  S1  1HF d   1      -4.163  -4.679  35.220  0.00  0.00     0.137 S 
ATOM     17  O3  1HF d   1      -3.105  -5.695  35.142  0.00  0.00    -0.591 OA
ATOM     18  O4  1HF d   1      -3.961  -3.660  36.262  0.00  0.00    -0.591 OA
ATOM     19  O5  1HF d   1      -5.526  -5.229  35.239  0.00  0.00    -0.591 OA
ENDBRANCH   6  16
ENDBRANCH   1   2
BRANCH   1  20
ATOM     20  N1  1HF d   1      -7.149  -0.477  33.704  0.00  0.00    -0.123 NA
ATOM     21  C7  1HF d   1      -7.774   0.525  34.214  0.00  0.00     0.195 A 
ATOM     22  S   1HF d   1      -8.154   2.078  33.489  0.00  0.00    -0.045 SA
ATOM     23  N3  1HF d   1      -8.207   0.545  35.511  0.00  0.00    -0.300 N 
ATOM     24  C9  1HF d   1      -8.837   2.648  34.984  0.00  0.00     0.079 A 
ATOM     25  C10 1HF d   1      -9.347   3.919  35.129  0.00  0.00    -0.028 C 
ATOM     26  C12 1HF d   1      -8.771   1.628  36.021  0.00  0.00     0.264 A 
ATOM     27  H1  1HF d   1      -9.750   4.160  36.111  0.00  0.00     0.090 H 
ATOM     28  O1  1HF d   1      -9.136   1.695  37.177  0.00  0.00    -0.267 OA
ATOM     29  H7  1HF d   1      -8.096  -0.269  36.081  0.00  0.00     0.171 HD
BRANCH  25  30
ATOM     30  C11 1HF d   1      -9.410   4.902  34.209  0.00  0.00     0.076 A 
ATOM     31  O2  1HF d   1      -8.956   4.826  32.915  0.00  0.00    -0.323 OA
ATOM     32  C13 1HF d   1      -9.200   6.089  32.432  0.00  0.00     0.019 A 
ATOM     33  C14 1HF d   1      -9.794   6.915  33.346  0.00  0.00    -0.059 A 
ATOM     34  H2  1HF d   1      -8.945   6.402  31.420  0.00  0.00     0.123 H 
ATOM     35  C15 1HF d   1      -9.932   6.128  34.527  0.00  0.00    -0.049 A 
ATOM     36  H8  1HF d   1     -10.097   7.951  33.203  0.00  0.00     0.086 H 
ATOM     37  H9  1HF d   1     -10.361   6.436  35.479  0.00  0.00     0.087 H 
ENDBRANCH  25  30
ENDBRANCH   1  20
TORSDOF 4
