REMARK WARNING: 32 MAX_TORS EXCEEDED!!!
REMARK  57 active torsions:
REMARK  status: ('A' for Active; 'I' for Inactive)
REMARK    1  A    between atoms: N_1  and  CA_2 
REMARK    2  A    between atoms: CA_2  and  C_3 
REMARK    3  A    between atoms: CA_2  and  CB_5 
REMARK       I    between atoms: C_3  and  N_8 
REMARK    4  A    between atoms: CB_5  and  CG1_6 
REMARK    5  A    between atoms: CB_5  and  CG2_7 
REMARK    6  A    between atoms: N_8  and  CA_9 
REMARK    7  A    between atoms: CA_9  and  C_10 
REMARK    8  A    between atoms: CA_9  and  CB_12 
REMARK       I    between atoms: C_10  and  N_19 
REMARK    9  A    between atoms: CB_12  and  CG_13 
REMARK   10  A    between atoms: CA_20  and  C_21 
REMARK       I    between atoms: C_21  and  N_26 
REMARK   11  A    between atoms: N_26  and  CA_27 
REMARK   12  A    between atoms: CA_27  and  C_28 
REMARK   13  A    between atoms: CA_27  and  CB_30 
REMARK       I    between atoms: C_28  and  N_40 
REMARK   14  A    between atoms: CB_30  and  CG_31 
REMARK   15  A    between atoms: N_40  and  CA_41 
REMARK   16  A    between atoms: CA_41  and  C_42 
REMARK   17  A    between atoms: CA_41  and  CB_44 
REMARK       I    between atoms: C_42  and  N_50 
REMARK   18  A    between atoms: CB_44  and  CG_45 
REMARK   19  A    between atoms: N_50  and  CA_51 
REMARK   20  A    between atoms: CA_51  and  C_52 
REMARK   21  A    between atoms: CA_51  and  CB_54 
REMARK       I    between atoms: C_52  and  N_56 
REMARK   22  A    between atoms: CB_54  and  OG_55 
REMARK   23  A    between atoms: N_56  and  CA_57 
REMARK   24  A    between atoms: CA_57  and  C_58 
REMARK   25  A    between atoms: CA_57  and  CB_60 
REMARK       I    between atoms: C_58  and  N_64 
REMARK   26  A    between atoms: CB_60  and  CG_61 
REMARK   27  A    between atoms: CG_61  and  CD1_62 
REMARK   28  A    between atoms: CG_61  and  CD2_63 
REMARK   29  A    between atoms: N_64  and  CA_65 
REMARK   30  A    between atoms: CA_65  and  C_66 
REMARK   31  A    between atoms: CA_65  and  CB_68 
REMARK       I    between atoms: C_66  and  N_71 
REMARK   32  A    between atoms: CB_68  and  CG1_69 
REMARK   33  A    between atoms: CB_68  and  CG2_70 
REMARK   34  A    between atoms: CA_72  and  C_73 
REMARK       I    between atoms: C_73  and  N_78 
REMARK   35  A    between atoms: N_78  and  CA_79 
REMARK   36  A    between atoms: CA_79  and  C_80 
REMARK   37  A    between atoms: CA_79  and  CB_82 
REMARK       I    between atoms: C_80  and  N_89 
REMARK   38  A    between atoms: CB_82  and  CG_83 
REMARK   39  A    between atoms: N_89  and  CA_90 
REMARK   40  A    between atoms: CA_90  and  C_91 
REMARK   41  A    between atoms: CA_90  and  CB_93 
REMARK       I    between atoms: C_91  and  N_97 
REMARK   42  A    between atoms: CB_93  and  CG_94 
REMARK   43  A    between atoms: CG_94  and  CD1_95 
REMARK   44  A    between atoms: CG_94  and  CD2_96 
REMARK   45  A    between atoms: N_97  and  CA_98 
REMARK   46  A    between atoms: CA_98  and  C_99 
REMARK   47  A    between atoms: CA_98  and  CB_101 
REMARK       I    between atoms: C_99  and  N_102 
REMARK   48  A    between atoms: CA_103  and  C_104 
REMARK       I    between atoms: C_104  and  N_109 
REMARK   49  A    between atoms: N_109  and  CA_110 
REMARK   50  A    between atoms: CA_110  and  C_111 
REMARK   51  A    between atoms: CA_110  and  CB_113 
REMARK       I    between atoms: C_111  and  N_115 
REMARK   52  A    between atoms: CB_113  and  OG_114 
REMARK   53  A    between atoms: N_115  and  CA_116 
REMARK   54  A    between atoms: CA_116  and  C_117 
REMARK   55  A    between atoms: CA_116  and  CB_119 
REMARK   56  A    between atoms: CB_119  and  CG_120 
REMARK   57  A    between atoms: CG_120  and  CD_121 
REMARK       I    between atoms: CD_121  and  NE2_123 
ROOT
ATOM      1  N   VAL d   1      -3.610  -1.261  -2.621  0.00  0.00    -0.346 N 
ATOM      2  H61 VAL d   1      -4.251  -1.795  -3.173  0.00  0.00     0.163 HD
ATOM      3  C   LEU d   1      -3.999  -0.091  -2.124  0.00  0.00     0.241 C 
ATOM      4  O   LEU d   1      -3.271   0.610  -1.431  0.00  0.00    -0.271 OA
ENDROOT
BRANCH   3   5
ATOM      5  CA  LEU d   1      -5.419   0.355  -2.452  0.00  0.00     0.089 C 
ATOM      6  H51 LEU d   1      -5.374   1.319  -2.980  0.00  0.00     0.087 H 
BRANCH   5   7
ATOM      7  N   LEU d   1      -6.087  -0.623  -3.311  0.00  0.00    -0.346 N 
ATOM      8  C   SER d   1      -6.812  -0.262  -4.360  0.00  0.00     0.243 C 
ATOM      9  O   SER d   1      -6.848   0.893  -4.779  0.00  0.00    -0.271 OA
ATOM     10  H50 LEU d   1      -5.993  -1.596  -3.100  0.00  0.00     0.163 HD
BRANCH   8  11
ATOM     11  CA  SER d   1      -7.594  -1.383  -5.052  0.00  0.00     0.109 C 
ATOM     12  H46 SER d   1      -7.480  -1.268  -6.140  0.00  0.00     0.090 H 
BRANCH  11  13
ATOM     13  N   SER d   1      -7.082  -2.684  -4.659  0.00  0.00    -0.344 N 
ATOM     14  C   HIS d   1      -6.664  -3.565  -5.548  0.00  0.00     0.241 C 
ATOM     15  O   HIS d   1      -6.658  -3.326  -6.752  0.00  0.00    -0.271 OA
ATOM     16  H45 SER d   1      -7.045  -2.919  -3.688  0.00  0.00     0.163 HD
BRANCH  14  17
ATOM     17  CA  HIS d   1      -6.202  -4.921  -4.989  0.00  0.00     0.094 C 
ATOM     18  H39 HIS d   1      -5.512  -4.726  -4.155  0.00  0.00     0.088 H 
BRANCH  17  19
ATOM     19  N   HIS d   1      -7.336  -5.677  -4.467  0.00  0.00    -0.346 N 
ATOM     20  C   TRP d   1      -7.955  -5.296  -3.346  0.00  0.00     0.241 C 
ATOM     21  O   TRP d   1      -7.520  -4.388  -2.636  0.00  0.00    -0.271 OA
ATOM     22  H38 HIS d   1      -7.654  -6.490  -4.955  0.00  0.00     0.163 HD
BRANCH  20  23
ATOM     23  CA  TRP d   1      -9.241  -6.029  -2.949  0.00  0.00     0.093 C 
ATOM     24  H29 TRP d   1      -9.897  -5.285  -2.474  0.00  0.00     0.088 H 
BRANCH  23  25
ATOM     25  N   TRP d   1      -9.980  -6.580  -4.077  0.00  0.00    -0.346 N 
ATOM     26  C   PRO d   1     -10.283  -5.859  -5.155  0.00  0.00     0.241 C 
ATOM     27  O   PRO d   1      -9.800  -4.747  -5.395  0.00  0.00    -0.271 OA
ATOM     28  H28 TRP d   1     -10.271  -7.536  -4.040  0.00  0.00     0.163 HD
BRANCH  26  29
ATOM     29  CA  PRO d   1     -11.287  -6.473  -6.117  0.00  0.00     0.091 C 
ATOM     30  N   PRO d   1     -12.381  -5.536  -6.366  0.00  0.00    -0.337 N 
ATOM     31  C   PHE d   1     -13.075  -4.958  -5.371  0.00  0.00     0.243 C 
ATOM     32  CD  PRO d   1     -12.610  -5.316  -7.807  0.00  0.00    -0.001 C 
ATOM     33  O   PHE d   1     -12.928  -5.275  -4.186  0.00  0.00    -0.271 OA
ATOM     34  CG  PRO d   1     -11.757  -6.367  -8.462  0.00  0.00    -0.048 C 
ATOM     35  H26 PRO d   1     -12.290  -4.307  -8.107  0.00  0.00     0.064 H 
ATOM     36  H27 PRO d   1     -13.671  -5.455  -8.062  0.00  0.00     0.064 H 
ATOM     37  CB  PRO d   1     -10.666  -6.680  -7.500  0.00  0.00    -0.036 C 
ATOM     38  H24 PRO d   1     -12.354  -7.268  -8.667  0.00  0.00     0.035 H 
ATOM     39  H25 PRO d   1     -11.336  -5.984  -9.403  0.00  0.00     0.035 H 
ATOM     40  H22 PRO d   1     -10.330  -7.720  -7.621  0.00  0.00     0.036 H 
ATOM     41  H23 PRO d   1      -9.814  -6.000  -7.647  0.00  0.00     0.036 H 
ATOM     42  H21 PRO d   1     -11.662  -7.422  -5.707  0.00  0.00     0.087 H 
BRANCH  31  43
ATOM     43  CA  PHE d   1     -14.103  -3.912  -5.751  0.00  0.00     0.093 C 
ATOM     44  H13 PHE d   1     -14.361  -4.033  -6.813  0.00  0.00     0.088 H 
BRANCH  43  45
ATOM     45  N   PHE d   1     -15.297  -4.096  -4.955  0.00  0.00    -0.346 N 
ATOM     46  C   VAL d   1     -16.478  -4.320  -5.501  0.00  0.00     0.249 C 
ATOM     47  O   VAL d   1     -16.687  -4.272  -6.712  0.00  0.00    -0.271 OA
ATOM     48  H12 PHE d   1     -15.225  -4.052  -3.958  0.00  0.00     0.163 HD
BRANCH  46  49
ATOM     49  CA  VAL d   1     -17.586  -4.649  -4.522  0.00  0.00     0.178 C 
ATOM     50  H4  VAL d   1     -17.659  -3.842  -3.778  0.00  0.00     0.099 H 
BRANCH  49  51
ATOM     51  N   VAL d   1     -18.895  -4.760  -5.209  0.00  0.00    -0.066 N 
ATOM     52  H1  VAL d   1     -19.111  -3.887  -5.663  0.00  0.00     0.275 HD
ATOM     53  H2  VAL d   1     -19.612  -4.973  -4.534  0.00  0.00     0.275 HD
ATOM     54  H3  VAL d   1     -18.852  -5.495  -5.897  0.00  0.00     0.275 HD
ENDBRANCH  49  51
BRANCH  49  55
ATOM     55  CB  VAL d   1     -17.191  -5.953  -3.803  0.00  0.00    -0.025 C 
ATOM     56  H5  VAL d   1     -16.148  -5.851  -3.467  0.00  0.00     0.042 H 
BRANCH  55  57
ATOM     57  CG1 VAL d   1     -18.049  -6.195  -2.585  0.00  0.00    -0.071 C 
ATOM     58  H6  VAL d   1     -17.739  -7.132  -2.099  0.00  0.00     0.028 H 
ATOM     59  H7  VAL d   1     -19.104  -6.271  -2.889  0.00  0.00     0.028 H 
ATOM     60  H8  VAL d   1     -17.929  -5.359  -1.880  0.00  0.00     0.028 H 
ENDBRANCH  55  57
BRANCH  55  61
ATOM     61  CG2 VAL d   1     -17.265  -7.137  -4.753  0.00  0.00    -0.071 C 
ATOM     62  H9  VAL d   1     -16.634  -6.941  -5.633  0.00  0.00     0.028 H 
ATOM     63  H10 VAL d   1     -18.307  -7.285  -5.074  0.00  0.00     0.028 H 
ATOM     64  H11 VAL d   1     -16.908  -8.042  -4.240  0.00  0.00     0.028 H 
ENDBRANCH  55  61
ENDBRANCH  49  55
ENDBRANCH  46  49
ENDBRANCH  43  45
BRANCH  43  65
ATOM     65  CB  PHE d   1     -13.529  -2.511  -5.541  0.00  0.00    -0.014 C 
ATOM     66  H14 PHE d   1     -12.442  -2.549  -5.708  0.00  0.00     0.043 H 
ATOM     67  H15 PHE d   1     -13.730  -2.201  -4.505  0.00  0.00     0.043 H 
BRANCH  65  68
ATOM     68  CG  PHE d   1     -14.119  -1.493  -6.466  0.00  0.00    -0.056 A 
ATOM     69  CD1 PHE d   1     -15.468  -1.199  -6.423  0.00  0.00    -0.077 A 
ATOM     70  CE1 PHE d   1     -16.015  -0.273  -7.283  0.00  0.00    -0.082 A 
ATOM     71  H16 PHE d   1     -16.104  -1.703  -5.704  0.00  0.00     0.084 H 
ATOM     72  CZ  PHE d   1     -15.210   0.370  -8.203  0.00  0.00    -0.083 A 
ATOM     73  H18 PHE d   1     -17.075  -0.049  -7.238  0.00  0.00     0.083 H 
ATOM     74  CE2 PHE d   1     -13.862   0.082  -8.257  0.00  0.00    -0.082 A 
ATOM     75  H20 PHE d   1     -15.637   1.100  -8.882  0.00  0.00     0.083 H 
ATOM     76  CD2 PHE d   1     -13.323  -0.845  -7.390  0.00  0.00    -0.077 A 
ATOM     77  H19 PHE d   1     -13.228   0.583  -8.979  0.00  0.00     0.083 H 
ATOM     78  H17 PHE d   1     -12.263  -1.067  -7.434  0.00  0.00     0.084 H 
ENDBRANCH  65  68
ENDBRANCH  43  65
ENDBRANCH  31  43
ENDBRANCH  26  29
ENDBRANCH  23  25
BRANCH  23  79
ATOM     79  CB  TRP d   1      -8.947  -7.109  -1.908  0.00  0.00    -0.012 C 
ATOM     80  H30 TRP d   1      -9.897  -7.399  -1.436  0.00  0.00     0.044 H 
ATOM     81  H31 TRP d   1      -8.276  -6.681  -1.149  0.00  0.00     0.044 H 
BRANCH  79  82
ATOM     82  CG  TRP d   1      -8.304  -8.342  -2.458  0.00  0.00    -0.028 A 
ATOM     83  CD1 TRP d   1      -8.910  -9.344  -3.158  0.00  0.00    -0.015 A 
ATOM     84  NE1 TRP d   1      -7.996 -10.310  -3.485  0.00  0.00    -0.365 N 
ATOM     85  H32 TRP d   1      -9.967  -9.372  -3.419  0.00  0.00     0.112 H 
ATOM     86  CE2 TRP d   1      -6.777  -9.951  -2.978  0.00  0.00     0.042 A 
ATOM     87  H33 TRP d   1      -8.194 -11.165  -4.024  0.00  0.00     0.165 HD
ATOM     88  CD2 TRP d   1      -6.937  -8.720  -2.320  0.00  0.00    -0.002 A 
ATOM     89  CZ2 TRP d   1      -5.555 -10.604  -3.039  0.00  0.00    -0.056 A 
ATOM     90  CE3 TRP d   1      -5.828  -8.132  -1.712  0.00  0.00    -0.070 A 
ATOM     91  CZ3 TRP d   1      -4.616  -8.784  -1.776  0.00  0.00    -0.082 A 
ATOM     92  H34 TRP d   1      -5.918  -7.181  -1.199  0.00  0.00     0.084 H 
ATOM     93  CH2 TRP d   1      -4.489 -10.009  -2.435  0.00  0.00    -0.081 A 
ATOM     94  H36 TRP d   1      -3.746  -8.339  -1.307  0.00  0.00     0.083 H 
ATOM     95  H37 TRP d   1      -3.521 -10.497  -2.466  0.00  0.00     0.083 H 
ATOM     96  H35 TRP d   1      -5.452 -11.555  -3.550  0.00  0.00     0.086 H 
ENDBRANCH  79  82
ENDBRANCH  23  79
ENDBRANCH  20  23
ENDBRANCH  17  19
BRANCH  17  97
ATOM     97  CB  HIS d   1      -5.439  -5.729  -6.053  0.00  0.00     0.004 C 
ATOM     98  H40 HIS d   1      -5.089  -6.661  -5.585  0.00  0.00     0.046 H 
ATOM     99  H41 HIS d   1      -4.573  -5.133  -6.375  0.00  0.00     0.046 H 
BRANCH  97 100
ATOM    100  CG  HIS d   1      -6.234  -6.094  -7.279  0.00  0.00     0.053 A 
ATOM    101  ND1 HIS d   1      -6.105  -5.438  -8.486  0.00  0.00    -0.247 NA
ATOM    102  CE1 HIS d   1      -6.905  -5.992  -9.376  0.00  0.00     0.064 A 
ATOM    103  NE2 HIS d   1      -7.552  -6.984  -8.793  0.00  0.00    -0.359 N 
ATOM    104  H43 HIS d   1      -7.013  -5.684 -10.415  0.00  0.00     0.143 H 
ATOM    105  CD2 HIS d   1      -7.150  -7.067  -7.484  0.00  0.00     0.002 A 
ATOM    106  H44 HIS d   1      -8.245  -7.596  -9.247  0.00  0.00     0.166 HD
ATOM    107  H42 HIS d   1      -7.504  -7.785  -6.745  0.00  0.00     0.114 H 
ENDBRANCH  97 100
ENDBRANCH  17  97
ENDBRANCH  14  17
ENDBRANCH  11  13
BRANCH  11 108
ATOM    108  CB  SER d   1      -9.089  -1.311  -4.698  0.00  0.00     0.044 C 
ATOM    109  H47 SER d   1      -9.207  -1.494  -3.620  0.00  0.00     0.077 H 
ATOM    110  H48 SER d   1      -9.624  -2.089  -5.263  0.00  0.00     0.077 H 
BRANCH 108 111
ATOM    111  OG  SER d   1      -9.655  -0.049  -5.011  0.00  0.00    -0.398 OA
ATOM    112  H49 SER d   1      -9.203   0.629  -4.523  0.00  0.00     0.209 HD
ENDBRANCH 108 111
ENDBRANCH  11 108
ENDBRANCH   8  11
ENDBRANCH   5   7
BRANCH   5 113
ATOM    113  CB  LEU d   1      -6.220   0.531  -1.161  0.00  0.00    -0.035 C 
ATOM    114  H52 LEU d   1      -6.684   1.528  -1.178  0.00  0.00     0.037 H 
ATOM    115  H53 LEU d   1      -5.523   0.465  -0.312  0.00  0.00     0.037 H 
BRANCH 113 116
ATOM    116  CG  LEU d   1      -7.327  -0.509  -0.954  0.00  0.00    -0.059 C 
ATOM    117  H54 LEU d   1      -7.022  -1.442  -1.450  0.00  0.00     0.038 H 
BRANCH 116 118
ATOM    118  CD1 LEU d   1      -7.534  -0.791   0.515  0.00  0.00    -0.073 C 
ATOM    119  H55 LEU d   1      -8.332  -1.539   0.636  0.00  0.00     0.028 H 
ATOM    120  H56 LEU d   1      -7.821   0.138   1.030  0.00  0.00     0.028 H 
ATOM    121  H57 LEU d   1      -6.600  -1.178   0.949  0.00  0.00     0.028 H 
ENDBRANCH 116 118
BRANCH 116 122
ATOM    122  CD2 LEU d   1      -8.636  -0.036  -1.573  0.00  0.00    -0.073 C 
ATOM    123  H58 LEU d   1      -8.483   0.169  -2.643  0.00  0.00     0.028 H 
ATOM    124  H59 LEU d   1      -8.970   0.882  -1.068  0.00  0.00     0.028 H 
ATOM    125  H60 LEU d   1      -9.401  -0.818  -1.455  0.00  0.00     0.028 H 
ENDBRANCH 116 122
ENDBRANCH 113 116
ENDBRANCH   5 113
ENDBRANCH   3   5
BRANCH   1 126
ATOM    126  CA  VAL d   1      -2.282  -1.779  -2.382  0.00  0.00     0.092 C 
ATOM    127  H62 VAL d   1      -1.891  -1.312  -1.466  0.00  0.00     0.088 H 
BRANCH 126 128
ATOM    128  C   VAL d   1      -1.355  -1.408  -3.541  0.00  0.00     0.243 C 
ATOM    129  O   VAL d   1      -1.524  -1.880  -4.667  0.00  0.00    -0.271 OA
ATOM    130  N   PRO d   1      -0.389  -0.519  -3.287  0.00  0.00    -0.337 N 
ATOM    131  CA  PRO d   1       0.554  -0.075  -4.299  0.00  0.00     0.091 C 
ATOM    132  CD  PRO d   1      -0.131   0.127  -1.990  0.00  0.00    -0.001 C 
ATOM    133  CB  PRO d   1       0.952   1.307  -3.793  0.00  0.00    -0.036 C 
ATOM    134  H70 PRO d   1       0.074  -0.015  -5.287  0.00  0.00     0.087 H 
ATOM    135  CG  PRO d   1       0.899   1.189  -2.308  0.00  0.00    -0.048 C 
ATOM    136  H71 PRO d   1       0.244   2.070  -4.148  0.00  0.00     0.036 H 
ATOM    137  H72 PRO d   1       1.968   1.566  -4.127  0.00  0.00     0.036 H 
ATOM    138  H73 PRO d   1       0.602   2.150  -1.862  0.00  0.00     0.035 H 
ATOM    139  H74 PRO d   1       1.883   0.891  -1.916  0.00  0.00     0.035 H 
ATOM    140  H75 PRO d   1       0.266  -0.598  -1.264  0.00  0.00     0.064 H 
ATOM    141  H76 PRO d   1      -1.050   0.581  -1.590  0.00  0.00     0.064 H 
BRANCH 131 142
ATOM    142  C   PRO d   1       1.767  -0.988  -4.380  0.00  0.00     0.241 C 
ATOM    143  O   PRO d   1       1.967  -1.857  -3.529  0.00  0.00    -0.271 OA
ATOM    144  N   PHE d   1       2.573  -0.789  -5.402  0.00  0.00    -0.346 N 
ATOM    145  H77 PHE d   1       2.357  -0.072  -6.065  0.00  0.00     0.163 HD
BRANCH 144 146
ATOM    146  CA  PHE d   1       3.765  -1.587  -5.585  0.00  0.00     0.093 C 
ATOM    147  H78 PHE d   1       3.809  -2.357  -4.801  0.00  0.00     0.088 H 
BRANCH 146 148
ATOM    148  C   PHE d   1       4.979  -0.684  -5.468  0.00  0.00     0.241 C 
ATOM    149  O   PHE d   1       4.993   0.412  -6.027  0.00  0.00    -0.271 OA
ATOM    150  N   LEU d   1       5.992  -1.134  -4.743  0.00  0.00    -0.346 N 
ATOM    151  H86 LEU d   1       5.927  -2.036  -4.317  0.00  0.00     0.163 HD
BRANCH 150 152
ATOM    152  CA  LEU d   1       7.201  -0.339  -4.554  0.00  0.00     0.089 C 
ATOM    153  H87 LEU d   1       6.897   0.715  -4.471  0.00  0.00     0.087 H 
BRANCH 152 154
ATOM    154  C   LEU d   1       8.115  -0.452  -5.782  0.00  0.00     0.241 C 
ATOM    155  O   LEU d   1       9.335  -0.501  -5.669  0.00  0.00    -0.271 OA
ATOM    156  N   ALA d   1       7.484  -0.423  -6.964  0.00  0.00    -0.346 N 
ATOM    157  H97 ALA d   1       6.511  -0.191  -6.976  0.00  0.00     0.163 HD
BRANCH 156 158
ATOM    158  CA  ALA d   1       8.142  -0.713  -8.239  0.00  0.00     0.086 C 
ATOM    159  H98 ALA d   1       7.447  -0.451  -9.051  0.00  0.00     0.086 H 
BRANCH 158 160
ATOM    160  C   ALA d   1       8.446  -2.206  -8.336  0.00  0.00     0.243 C 
ATOM    161  O   ALA d   1       8.450  -2.905  -7.322  0.00  0.00    -0.271 OA
ATOM    162  N   PRO d   1       8.643  -2.731  -9.560  0.00  0.00    -0.337 N 
ATOM    163  CA  PRO d   1       9.013  -4.132  -9.767  0.00  0.00     0.091 C 
ATOM    164  CD  PRO d   1       8.501  -2.022 -10.837  0.00  0.00    -0.001 C 
ATOM    165  CB  PRO d   1       9.363  -4.212 -11.260  0.00  0.00    -0.036 C 
ATOM    166 2H10 PRO d   1       8.165  -4.791  -9.532  0.00  0.00     0.087 H 
ATOM    167  CG  PRO d   1       9.406  -2.799 -11.743  0.00  0.00    -0.048 C 
ATOM    168 3H10 PRO d   1       8.594  -4.780 -11.804  0.00  0.00     0.036 H 
ATOM    169 4H10 PRO d   1      10.342  -4.694 -11.399  0.00  0.00     0.036 H 
ATOM    170 5H10 PRO d   1       9.049  -2.740 -12.782  0.00  0.00     0.035 H 
ATOM    171 6H10 PRO d   1      10.432  -2.407 -11.685  0.00  0.00     0.035 H 
ATOM    172 7H10 PRO d   1       8.829  -0.976 -10.749  0.00  0.00     0.064 H 
ATOM    173 8H10 PRO d   1       7.461  -2.051 -11.194  0.00  0.00     0.064 H 
BRANCH 163 174
ATOM    174  C   PRO d   1      10.210  -4.534  -8.913  0.00  0.00     0.241 C 
ATOM    175  O   PRO d   1      11.354  -4.186  -9.217  0.00  0.00    -0.271 OA
ATOM    176  N   SER d   1       9.929  -5.245  -7.833  0.00  0.00    -0.344 N 
ATOM    177 9H10 SER d   1       8.977  -5.492  -7.652  0.00  0.00     0.163 HD
BRANCH 176 178
ATOM    178  CA  SER d   1      10.953  -5.677  -6.905  0.00  0.00     0.109 C 
ATOM    179 0H11 SER d   1      11.594  -4.815  -6.666  0.00  0.00     0.090 H 
BRANCH 178 180
ATOM    180  C   SER d   1      11.827  -6.765  -7.521  0.00  0.00     0.243 C 
ATOM    181  O   SER d   1      11.455  -7.389  -8.518  0.00  0.00    -0.271 OA
ATOM    182  N   GLN d   1      12.992  -6.972  -6.936  0.00  0.00    -0.345 N 
ATOM    183 4H11 GLN d   1      13.233  -6.433  -6.129  0.00  0.00     0.163 HD
BRANCH 182 184
ATOM    184  CA  GLN d   1      13.928  -7.956  -7.429  0.00  0.00     0.096 C 
ATOM    185 5H11 GLN d   1      13.647  -8.205  -8.463  0.00  0.00     0.089 H 
BRANCH 184 186
ATOM    186  C   GLN d   1      13.852  -9.233  -6.605  0.00  0.00     0.196 C 
ATOM    187  O   GLN d   1      13.307 -10.232  -7.118  0.00  0.00    -0.646 OA
ATOM    188  OXT GLN d   1      14.299  -9.228  -5.443  0.00  0.00    -0.646 OA
ENDBRANCH 184 186
BRANCH 184 189
ATOM    189  CB  GLN d   1      15.350  -7.382  -7.453  0.00  0.00    -0.029 C 
ATOM    190 6H11 GLN d   1      15.427  -6.687  -8.302  0.00  0.00     0.037 H 
ATOM    191 7H11 GLN d   1      16.055  -8.214  -7.596  0.00  0.00     0.037 H 
BRANCH 189 192
ATOM    192  CG  GLN d   1      15.744  -6.634  -6.186  0.00  0.00     0.011 C 
ATOM    193 8H11 GLN d   1      15.844  -7.359  -5.365  0.00  0.00     0.047 H 
ATOM    194 9H11 GLN d   1      14.952  -5.911  -5.942  0.00  0.00     0.047 H 
BRANCH 192 195
ATOM    195  CD  GLN d   1      17.054  -5.888  -6.339  0.00  0.00     0.215 C 
ATOM    196  OE1 GLN d   1      17.941  -6.306  -7.086  0.00  0.00    -0.274 OA
ATOM    197  NE2 GLN d   1      17.182  -4.772  -5.641  0.00  0.00    -0.370 N 
ATOM    198 0H12 GLN d   1      18.025  -4.238  -5.702  0.00  0.00     0.159 HD
ATOM    199 1H12 GLN d   1      16.436  -4.462  -5.052  0.00  0.00     0.159 HD
ENDBRANCH 192 195
ENDBRANCH 189 192
ENDBRANCH 184 189
ENDBRANCH 182 184
ENDBRANCH 178 180
BRANCH 178 200
ATOM    200  CB  SER d   1      10.297  -6.169  -5.613  0.00  0.00     0.044 C 
ATOM    201 1H11 SER d   1       9.952  -5.301  -5.032  0.00  0.00     0.077 H 
ATOM    202 2H11 SER d   1      11.037  -6.733  -5.026  0.00  0.00     0.077 H 
BRANCH 200 203
ATOM    203  OG  SER d   1       9.189  -7.010  -5.895  0.00  0.00    -0.398 OA
ATOM    204 3H11 SER d   1       8.799  -7.302  -5.080  0.00  0.00     0.209 HD
ENDBRANCH 200 203
ENDBRANCH 178 200
ENDBRANCH 176 178
ENDBRANCH 163 174
ENDBRANCH 158 160
BRANCH 158 205
ATOM    205  CB  ALA d   1       9.406   0.127  -8.416  0.00  0.00    -0.049 C 
ATOM    206  H99 ALA d   1       9.875  -0.115  -9.381  0.00  0.00     0.030 H 
ATOM    207 0H10 ALA d   1      10.111  -0.094  -7.601  0.00  0.00     0.030 H 
ATOM    208 1H10 ALA d   1       9.143   1.195  -8.393  0.00  0.00     0.030 H 
ENDBRANCH 158 205
ENDBRANCH 156 158
ENDBRANCH 152 154
BRANCH 152 209
ATOM    209  CB  LEU d   1       7.913  -0.717  -3.216  0.00  0.00    -0.035 C 
ATOM    210  H88 LEU d   1       7.150  -0.661  -2.426  0.00  0.00     0.037 H 
ATOM    211  H89 LEU d   1       8.681   0.051  -3.039  0.00  0.00     0.037 H 
BRANCH 209 212
ATOM    212  CG  LEU d   1       8.617  -2.096  -3.059  0.00  0.00    -0.059 C 
ATOM    213  H90 LEU d   1       8.589  -2.347  -1.988  0.00  0.00     0.038 H 
BRANCH 212 214
ATOM    214  CD1 LEU d   1       7.904  -3.217  -3.792  0.00  0.00    -0.073 C 
ATOM    215  H91 LEU d   1       8.450  -4.160  -3.641  0.00  0.00     0.028 H 
ATOM    216  H92 LEU d   1       7.863  -2.985  -4.867  0.00  0.00     0.028 H 
ATOM    217  H93 LEU d   1       6.881  -3.319  -3.400  0.00  0.00     0.028 H 
ENDBRANCH 212 214
BRANCH 212 218
ATOM    218  CD2 LEU d   1      10.086  -2.020  -3.466  0.00  0.00    -0.073 C 
ATOM    219  H94 LEU d   1      10.576  -1.200  -2.920  0.00  0.00     0.028 H 
ATOM    220  H95 LEU d   1      10.158  -1.834  -4.548  0.00  0.00     0.028 H 
ATOM    221  H96 LEU d   1      10.583  -2.971  -3.224  0.00  0.00     0.028 H 
ENDBRANCH 212 218
ENDBRANCH 209 212
ENDBRANCH 152 209
ENDBRANCH 150 152
ENDBRANCH 146 148
BRANCH 146 222
ATOM    222  CB  PHE d   1       3.747  -2.275  -6.955  0.00  0.00    -0.014 C 
ATOM    223  H79 PHE d   1       4.407  -3.154  -6.910  0.00  0.00     0.043 H 
ATOM    224  H80 PHE d   1       4.130  -1.566  -7.704  0.00  0.00     0.043 H 
BRANCH 222 225
ATOM    225  CG  PHE d   1       2.380  -2.731  -7.390  0.00  0.00    -0.056 A 
ATOM    226  CD1 PHE d   1       1.622  -3.578  -6.593  0.00  0.00    -0.077 A 
ATOM    227  CE1 PHE d   1       0.365  -3.988  -6.997  0.00  0.00    -0.082 A 
ATOM    228  H81 PHE d   1       2.019  -3.921  -5.645  0.00  0.00     0.084 H 
ATOM    229  CZ  PHE d   1      -0.148  -3.556  -8.204  0.00  0.00    -0.083 A 
ATOM    230  H83 PHE d   1      -0.218  -4.649  -6.366  0.00  0.00     0.083 H 
ATOM    231  CE2 PHE d   1       0.597  -2.715  -9.006  0.00  0.00    -0.082 A 
ATOM    232  H85 PHE d   1      -1.134  -3.877  -8.521  0.00  0.00     0.083 H 
ATOM    233  CD2 PHE d   1       1.852  -2.306  -8.598  0.00  0.00    -0.077 A 
ATOM    234  H84 PHE d   1       0.198  -2.376  -9.955  0.00  0.00     0.083 H 
ATOM    235  H82 PHE d   1       2.431  -1.644  -9.232  0.00  0.00     0.084 H 
ENDBRANCH 222 225
ENDBRANCH 146 222
ENDBRANCH 144 146
ENDBRANCH 131 142
ENDBRANCH 126 128
BRANCH 126 236
ATOM    236  CB  VAL d   1      -2.309  -3.314  -2.163  0.00  0.00    -0.033 C 
ATOM    237  H63 VAL d   1      -2.849  -3.513  -1.226  0.00  0.00     0.042 H 
BRANCH 236 238
ATOM    238  CG1 VAL d   1      -3.043  -4.032  -3.289  0.00  0.00    -0.071 C 
ATOM    239  H64 VAL d   1      -3.040  -5.115  -3.097  0.00  0.00     0.028 H 
ATOM    240  H65 VAL d   1      -2.538  -3.828  -4.245  0.00  0.00     0.028 H 
ATOM    241  H66 VAL d   1      -4.081  -3.671  -3.338  0.00  0.00     0.028 H 
ENDBRANCH 236 238
BRANCH 236 242
ATOM    242  CG2 VAL d   1      -0.904  -3.854  -2.021  0.00  0.00    -0.071 C 
ATOM    243  H67 VAL d   1      -0.389  -3.326  -1.205  0.00  0.00     0.028 H 
ATOM    244  H68 VAL d   1      -0.355  -3.700  -2.962  0.00  0.00     0.028 H 
ATOM    245  H69 VAL d   1      -0.946  -4.929  -1.793  0.00  0.00     0.028 H 
ENDBRANCH 236 242
ENDBRANCH 126 236
ENDBRANCH   1 126
TORSDOF 57
