REMARK WARNING: 32 MAX_TORS EXCEEDED!!!
REMARK  53 active torsions:
REMARK  status: ('A' for Active; 'I' for Inactive)
REMARK    1  A    between atoms: N_1  and  CA_2 
REMARK    2  A    between atoms: CA_2  and  C_3 
REMARK    3  A    between atoms: CA_2  and  CB_5 
REMARK       I    between atoms: C_3  and  N_9 
REMARK    4  A    between atoms: CB_5  and  CG_6 
REMARK    5  A    between atoms: N_9  and  CA_10 
REMARK    6  A    between atoms: CA_10  and  C_11 
REMARK    7  A    between atoms: CA_10  and  CB_13 
REMARK       I    between atoms: C_11  and  N_16 
REMARK    8  A    between atoms: CB_13  and  OG1_14 
REMARK    9  A    between atoms: CB_13  and  CG2_15 
REMARK   10  A    between atoms: N_16  and  CA_17 
REMARK   11  A    between atoms: CA_17  and  C_18 
REMARK   12  A    between atoms: CA_17  and  CB_20 
REMARK       I    between atoms: C_18  and  N_25 
REMARK   13  A    between atoms: CB_20  and  CG_21 
REMARK   14  A    between atoms: CG_21  and  CD_22 
REMARK   15  A    between atoms: N_25  and  CA_26 
REMARK   16  A    between atoms: CA_26  and  C_27 
REMARK   17  A    between atoms: CA_26  and  CB_29 
REMARK       I    between atoms: C_27  and  N_32 
REMARK   18  A    between atoms: CB_29  and  CG1_30 
REMARK   19  A    between atoms: CB_29  and  CG2_31 
REMARK   20  A    between atoms: N_32  and  CA_33 
REMARK   21  A    between atoms: CA_33  and  C_34 
REMARK   22  A    between atoms: CA_33  and  CB_36 
REMARK       I    between atoms: C_34  and  N_44 
REMARK   23  A    between atoms: CB_36  and  CG_37 
REMARK   24  A    between atoms: CZ_42  and  OH_43 
REMARK   25  A    between atoms: N_44  and  CA_45 
REMARK   26  A    between atoms: CA_45  and  C_46 
REMARK   27  A    between atoms: CA_45  and  CB_48 
REMARK       I    between atoms: C_46  and  N_53 
REMARK   28  A    between atoms: CB_48  and  CG_49 
REMARK   29  A    between atoms: CG_49  and  CD_50 
REMARK   30  A    between atoms: N_53  and  CA_54 
REMARK   31  A    between atoms: CA_54  and  C_55 
REMARK   32  A    between atoms: CA_54  and  CB_57 
REMARK       I    between atoms: C_55  and  N_59 
REMARK   33  A    between atoms: CB_57  and  OG_58 
REMARK   34  A    between atoms: CA_60  and  C_61 
REMARK       I    between atoms: C_61  and  N_66 
REMARK   35  A    between atoms: N_66  and  CA_67 
REMARK   36  A    between atoms: CA_67  and  C_68 
REMARK   37  A    between atoms: CA_67  and  CB_70 
REMARK       I    between atoms: C_68  and  N_82 
REMARK   38  A    between atoms: CB_70  and  CG_71 
REMARK   39  A    between atoms: CZ_76  and  OH_77 
REMARK   40  A    between atoms: OH_77  and  P_78 
REMARK   41  A    between atoms: N_82  and  CA_83 
REMARK   42  A    between atoms: CA_83  and  C_84 
REMARK   43  A    between atoms: CA_83  and  CB_86 
REMARK       I    between atoms: C_84  and  N_87 
REMARK   44  A    between atoms: N_87  and  CA_88 
REMARK   45  A    between atoms: CA_88  and  C_89 
REMARK   46  A    between atoms: CA_88  and  CB_91 
REMARK       I    between atoms: C_89  and  N_95 
REMARK   47  A    between atoms: CB_91  and  CG_92 
REMARK   48  A    between atoms: CA_96  and  C_97 
REMARK       I    between atoms: C_97  and  N_102 
REMARK   49  A    between atoms: N_102  and  CA_103 
REMARK   50  A    between atoms: CA_103  and  C_104 
REMARK   51  A    between atoms: CA_103  and  CB_106 
REMARK   52  A    between atoms: CB_106  and  CG_107 
REMARK   53  A    between atoms: CG_107  and  CD_108 
ROOT
ATOM      1  CA  SER d   1      -0.408   1.722  11.737  0.00  0.00     0.109 C 
ATOM      2  H45 SER d   1      -0.610   1.282  10.749  0.00  0.00     0.090 H 
ENDROOT
BRANCH   1   3
ATOM      3  N   SER d   1       1.038   1.879  11.889  0.00  0.00    -0.344 N 
ATOM      4  C   GLU d   1       1.843   0.827  12.015  0.00  0.00     0.241 C 
ATOM      5  O   GLU d   1       1.432  -0.337  12.013  0.00  0.00    -0.271 OA
ATOM      6  H44 SER d   1       1.431   2.799  11.899  0.00  0.00     0.163 HD
BRANCH   4   7
ATOM      7  CA  GLU d   1       3.333   1.132  12.159  0.00  0.00     0.090 C 
ATOM      8  H39 GLU d   1       3.829   0.269  12.627  0.00  0.00     0.087 H 
BRANCH   7   9
ATOM      9  N   GLU d   1       3.934   1.367  10.847  0.00  0.00    -0.346 N 
ATOM     10  C   TYR d   1       3.851   0.457   9.878  0.00  0.00     0.241 C 
ATOM     11  O   TYR d   1       3.275  -0.622  10.023  0.00  0.00    -0.271 OA
ATOM     12  H38 GLU d   1       4.416   2.226  10.674  0.00  0.00     0.163 HD
BRANCH  10  13
ATOM     13  CA  TYR d   1       4.520   0.810   8.551  0.00  0.00     0.093 C 
ATOM     14  H30 TYR d   1       4.690   1.896   8.513  0.00  0.00     0.088 H 
BRANCH  13  15
ATOM     15  N   TYR d   1       5.810   0.129   8.442  0.00  0.00    -0.346 N 
ATOM     16  C   VAL d   1       6.960   0.772   8.625  0.00  0.00     0.241 C 
ATOM     17  O   VAL d   1       7.022   1.973   8.892  0.00  0.00    -0.271 OA
ATOM     18  H29 TYR d   1       5.828  -0.847   8.224  0.00  0.00     0.163 HD
BRANCH  16  19
ATOM     19  CA  VAL d   1       8.234  -0.069   8.496  0.00  0.00     0.092 C 
ATOM     20  H21 VAL d   1       8.598  -0.009   7.460  0.00  0.00     0.088 H 
BRANCH  19  21
ATOM     21  N   VAL d   1       9.269   0.449   9.389  0.00  0.00    -0.346 N 
ATOM     22  C   GLU d   1      10.557   0.170   9.202  0.00  0.00     0.241 C 
ATOM     23  O   GLU d   1      10.966  -0.535   8.278  0.00  0.00    -0.271 OA
ATOM     24  H20 VAL d   1       9.003   1.028  10.160  0.00  0.00     0.163 HD
BRANCH  22  25
ATOM     25  CA  GLU d   1      11.531   0.787  10.207  0.00  0.00     0.090 C 
ATOM     26  H15 GLU d   1      11.268   0.433  11.215  0.00  0.00     0.087 H 
BRANCH  25  27
ATOM     27  N   GLU d   1      12.903   0.387   9.912  0.00  0.00    -0.346 N 
ATOM     28  C   THR d   1      13.505  -0.571  10.607  0.00  0.00     0.243 C 
ATOM     29  O   THR d   1      12.952  -1.173  11.528  0.00  0.00    -0.271 OA
ATOM     30  H14 GLU d   1      13.399   0.843   9.173  0.00  0.00     0.163 HD
BRANCH  28  31
ATOM     31  CA  THR d   1      14.941  -0.907  10.215  0.00  0.00     0.113 C 
ATOM     32  H8  THR d   1      14.951  -1.886   9.713  0.00  0.00     0.091 H 
BRANCH  31  33
ATOM     33  N   THR d   1      15.502   0.092   9.309  0.00  0.00    -0.344 N 
ATOM     34  C   ASP d   1      15.495  -0.062   7.988  0.00  0.00     0.249 C 
ATOM     35  O   ASP d   1      15.015  -1.049   7.426  0.00  0.00    -0.271 OA
ATOM     36  H7  THR d   1      15.906   0.921   9.696  0.00  0.00     0.163 HD
BRANCH  34  37
ATOM     37  CA  ASP d   1      16.150   1.060   7.176  0.00  0.00     0.185 C 
ATOM     38  H4  ASP d   1      16.487   0.654   6.211  0.00  0.00     0.100 H 
BRANCH  37  39
ATOM     39  N   ASP d   1      15.171   2.155   6.935  0.00  0.00    -0.066 N 
ATOM     40  H1  ASP d   1      15.611   2.888   6.401  0.00  0.00     0.275 HD
ATOM     41  H2  ASP d   1      14.857   2.526   7.818  0.00  0.00     0.275 HD
ATOM     42  H3  ASP d   1      14.382   1.793   6.423  0.00  0.00     0.275 HD
ENDBRANCH  37  39
BRANCH  37  43
ATOM     43  CB  ASP d   1      17.353   1.632   7.932  0.00  0.00     0.050 C 
ATOM     44  H5  ASP d   1      17.942   2.269   7.256  0.00  0.00     0.052 H 
ATOM     45  H6  ASP d   1      17.982   0.807   8.298  0.00  0.00     0.052 H 
BRANCH  43  46
ATOM     46  CG  ASP d   1      16.866   2.457   9.108  0.00  0.00     0.175 C 
ATOM     47  OD1 ASP d   1      16.478   3.587   8.884  0.00  0.00    -0.648 OA
ATOM     48  OD2 ASP d   1      16.850   1.922  10.210  0.00  0.00    -0.648 OA
ENDBRANCH  43  46
ENDBRANCH  37  43
ENDBRANCH  34  37
ENDBRANCH  31  33
BRANCH  31  49
ATOM     49  CB  THR d   1      15.807  -0.977  11.480  0.00  0.00     0.060 C 
ATOM     50  H9  THR d   1      15.296  -0.453  12.301  0.00  0.00     0.086 H 
BRANCH  49  51
ATOM     51  OG1 THR d   1      17.066  -0.358  11.234  0.00  0.00    -0.393 OA
ATOM     52  H10 THR d   1      16.929   0.551  10.995  0.00  0.00     0.210 HD
ENDBRANCH  49  51
BRANCH  49  53
ATOM     53  CG2 THR d   1      16.032  -2.437  11.872  0.00  0.00    -0.050 C 
ATOM     54  H11 THR d   1      16.653  -2.482  12.779  0.00  0.00     0.031 H 
ATOM     55  H12 THR d   1      16.543  -2.962  11.052  0.00  0.00     0.031 H 
ATOM     56  H13 THR d   1      15.062  -2.918  12.068  0.00  0.00     0.031 H 
ENDBRANCH  49  53
ENDBRANCH  31  49
ENDBRANCH  28  31
ENDBRANCH  25  27
BRANCH  25  57
ATOM     57  CB  GLU d   1      11.426   2.318  10.175  0.00  0.00    -0.029 C 
ATOM     58  H16 GLU d   1      12.396   2.752  10.461  0.00  0.00     0.037 H 
ATOM     59  H17 GLU d   1      10.655   2.642  10.889  0.00  0.00     0.037 H 
BRANCH  57  60
ATOM     60  CG  GLU d   1      11.048   2.811   8.766  0.00  0.00     0.018 C 
ATOM     61  H18 GLU d   1      11.227   3.895   8.706  0.00  0.00     0.049 H 
ATOM     62  H19 GLU d   1       9.982   2.605   8.589  0.00  0.00     0.049 H 
BRANCH  60  63
ATOM     63  CD  GLU d   1      11.875   2.111   7.688  0.00  0.00     0.172 C 
ATOM     64  OE1 GLU d   1      13.057   1.887   7.913  0.00  0.00    -0.648 OA
ATOM     65  OE2 GLU d   1      11.313   1.814   6.647  0.00  0.00    -0.648 OA
ENDBRANCH  60  63
ENDBRANCH  57  60
ENDBRANCH  25  57
ENDBRANCH  22  25
ENDBRANCH  19  21
BRANCH  19  66
ATOM     66  CB  VAL d   1       7.923  -1.541   8.830  0.00  0.00    -0.033 C 
ATOM     67  H22 VAL d   1       7.029  -1.857   8.271  0.00  0.00     0.042 H 
BRANCH  66  68
ATOM     68  CG1 VAL d   1       9.102  -2.432   8.439  0.00  0.00    -0.071 C 
ATOM     69  H23 VAL d   1       8.867  -3.479   8.682  0.00  0.00     0.028 H 
ATOM     70  H24 VAL d   1       9.998  -2.119   8.994  0.00  0.00     0.028 H 
ATOM     71  H25 VAL d   1       9.289  -2.340   7.359  0.00  0.00     0.028 H 
ENDBRANCH  66  68
BRANCH  66  72
ATOM     72  CG2 VAL d   1       7.659  -1.683  10.331  0.00  0.00    -0.071 C 
ATOM     73  H26 VAL d   1       6.811  -1.043  10.616  0.00  0.00     0.028 H 
ATOM     74  H27 VAL d   1       8.555  -1.376  10.891  0.00  0.00     0.028 H 
ATOM     75  H28 VAL d   1       7.422  -2.732  10.564  0.00  0.00     0.028 H 
ENDBRANCH  66  72
ENDBRANCH  19  66
ENDBRANCH  16  19
ENDBRANCH  13  15
BRANCH  13  76
ATOM     76  CB  TYR d   1       3.591   0.411   7.389  0.00  0.00    -0.014 C 
ATOM     77  H31 TYR d   1       3.633   1.188   6.612  0.00  0.00     0.043 H 
ATOM     78  H32 TYR d   1       2.561   0.324   7.765  0.00  0.00     0.043 H 
BRANCH  76  79
ATOM     79  CG  TYR d   1       4.013  -0.914   6.788  0.00  0.00    -0.056 A 
ATOM     80  CD1 TYR d   1       4.366  -1.995   7.614  0.00  0.00    -0.074 A 
ATOM     81  CE1 TYR d   1       4.762  -3.211   7.046  0.00  0.00    -0.051 A 
ATOM     82  H33 TYR d   1       4.332  -1.887   8.692  0.00  0.00     0.084 H 
ATOM     83  CZ  TYR d   1       4.806  -3.348   5.659  0.00  0.00     0.065 A 
ATOM     84  H35 TYR d   1       5.034  -4.045   7.683  0.00  0.00     0.087 H 
ATOM     85  CE2 TYR d   1       4.453  -2.276   4.837  0.00  0.00    -0.051 A 
ATOM     86  CD2 TYR d   1       4.055  -1.063   5.397  0.00  0.00    -0.074 A 
ATOM     87  H36 TYR d   1       4.489  -2.387   3.759  0.00  0.00     0.087 H 
ATOM     88  H34 TYR d   1       3.778  -0.235   4.755  0.00  0.00     0.084 H 
BRANCH  83  89
ATOM     89  OH  TYR d   1       5.223  -4.537   5.093  0.00  0.00    -0.361 OA
ATOM     90  H37 TYR d   1       5.425  -5.160   5.781  0.00  0.00     0.217 HD
ENDBRANCH  83  89
ENDBRANCH  76  79
ENDBRANCH  13  76
ENDBRANCH  10  13
ENDBRANCH   7   9
BRANCH   7  91
ATOM     91  CB  GLU d   1       3.528   2.363  13.054  0.00  0.00    -0.029 C 
ATOM     92  H40 GLU d   1       2.987   2.216  14.001  0.00  0.00     0.037 H 
ATOM     93  H41 GLU d   1       3.135   3.253  12.541  0.00  0.00     0.037 H 
BRANCH  91  94
ATOM     94  CG  GLU d   1       5.023   2.561  13.346  0.00  0.00     0.018 C 
ATOM     95  H42 GLU d   1       5.438   1.628  13.755  0.00  0.00     0.049 H 
ATOM     96  H43 GLU d   1       5.144   3.370  14.082  0.00  0.00     0.049 H 
BRANCH  94  97
ATOM     97  CD  GLU d   1       5.775   2.927  12.071  0.00  0.00     0.172 C 
ATOM     98  OE1 GLU d   1       5.188   3.581  11.221  0.00  0.00    -0.648 OA
ATOM     99  OE2 GLU d   1       6.924   2.541  11.952  0.00  0.00    -0.648 OA
ENDBRANCH  94  97
ENDBRANCH  91  94
ENDBRANCH   7  91
ENDBRANCH   4   7
ENDBRANCH   1   3
BRANCH   1 100
ATOM    100  C   SER d   1      -1.118   3.068  11.829  0.00  0.00     0.245 C 
ATOM    101  O   SER d   1      -1.677   3.406  12.872  0.00  0.00    -0.271 OA
ATOM    102  N   PRO d   1      -1.119   3.829  10.761  0.00  0.00    -0.337 N 
ATOM    103  CA  PRO d   1      -1.788   5.160  10.719  0.00  0.00     0.091 C 
ATOM    104  CD  PRO d   1      -0.482   3.513   9.467  0.00  0.00    -0.001 C 
ATOM    105  CB  PRO d   1      -2.011   5.364   9.217  0.00  0.00    -0.036 C 
ATOM    106  H49 PRO d   1      -1.124   5.940  11.120  0.00  0.00     0.087 H 
ATOM    107  CG  PRO d   1      -0.833   4.719   8.586  0.00  0.00    -0.048 C 
ATOM    108  H50 PRO d   1      -2.049   6.435   8.970  0.00  0.00     0.036 H 
ATOM    109  H51 PRO d   1      -2.943   4.879   8.891  0.00  0.00     0.036 H 
ATOM    110  H52 PRO d   1       0.012   5.422   8.548  0.00  0.00     0.035 H 
ATOM    111  H53 PRO d   1      -1.080   4.387   7.567  0.00  0.00     0.035 H 
ATOM    112  H54 PRO d   1      -0.893   2.585   9.043  0.00  0.00     0.064 H 
ATOM    113  H55 PRO d   1       0.608   3.413   9.580  0.00  0.00     0.064 H 
BRANCH 103 114
ATOM    114  C   PRO d   1      -3.099   5.178  11.514  0.00  0.00     0.241 C 
ATOM    115  O   PRO d   1      -3.293   6.033  12.382  0.00  0.00    -0.271 OA
ATOM    116  N   PTR d   1      -3.992   4.225  11.227  0.00  0.00    -0.346 N 
ATOM    117  H56 PTR d   1      -3.783   3.549  10.521  0.00  0.00     0.163 HD
BRANCH 116 118
ATOM    118  CA  PTR d   1      -5.275   4.160  11.936  0.00  0.00     0.093 C 
ATOM    119  H57 PTR d   1      -5.082   4.308  13.009  0.00  0.00     0.088 H 
BRANCH 118 120
ATOM    120  C   PTR d   1      -5.965   2.796  11.757  0.00  0.00     0.241 C 
ATOM    121  O   PTR d   1      -5.724   2.078  10.783  0.00  0.00    -0.271 OA
ATOM    122  N   ALA d   1      -6.834   2.471  12.716  0.00  0.00    -0.346 N 
ATOM    123  H64 ALA d   1      -6.966   3.114  13.471  0.00  0.00     0.163 HD
BRANCH 122 124
ATOM    124  CA  ALA d   1      -7.608   1.220  12.725  0.00  0.00     0.086 C 
ATOM    125  H65 ALA d   1      -7.735   0.857  11.695  0.00  0.00     0.086 H 
BRANCH 124 126
ATOM    126  C   ALA d   1      -8.970   1.505  13.340  0.00  0.00     0.240 C 
ATOM    127  O   ALA d   1      -9.156   2.528  14.002  0.00  0.00    -0.271 OA
ATOM    128  N   ASP d   1      -9.921   0.620  13.103  0.00  0.00    -0.346 N 
ATOM    129  H69 ASP d   1      -9.711  -0.194  12.561  0.00  0.00     0.163 HD
BRANCH 128 130
ATOM    130  CA  ASP d   1     -11.266   0.808  13.616  0.00  0.00     0.099 C 
ATOM    131  H70 ASP d   1     -11.319   1.775  14.137  0.00  0.00     0.088 H 
BRANCH 130 132
ATOM    132  C   ASP d   1     -11.639  -0.302  14.602  0.00  0.00     0.243 C 
ATOM    133  O   ASP d   1     -11.659  -1.480  14.244  0.00  0.00    -0.271 OA
ATOM    134  N   PRO d   1     -11.927   0.059  15.831  0.00  0.00    -0.337 N 
ATOM    135  CA  PRO d   1     -12.304  -0.917  16.897  0.00  0.00     0.091 C 
ATOM    136  CD  PRO d   1     -11.924   1.442  16.343  0.00  0.00    -0.001 C 
ATOM    137  CB  PRO d   1     -12.052  -0.134  18.184  0.00  0.00    -0.036 C 
ATOM    138  H73 PRO d   1     -11.660  -1.807  16.847  0.00  0.00     0.087 H 
ATOM    139  CG  PRO d   1     -12.277   1.296  17.824  0.00  0.00    -0.048 C 
ATOM    140  H74 PRO d   1     -11.020  -0.286  18.532  0.00  0.00     0.036 H 
ATOM    141  H75 PRO d   1     -12.754  -0.449  18.970  0.00  0.00     0.036 H 
ATOM    142  H76 PRO d   1     -11.631   1.946  18.433  0.00  0.00     0.035 H 
ATOM    143  H77 PRO d   1     -13.330   1.567  17.990  0.00  0.00     0.035 H 
ATOM    144  H78 PRO d   1     -12.676   2.053  15.821  0.00  0.00     0.064 H 
ATOM    145  H79 PRO d   1     -10.931   1.900  16.222  0.00  0.00     0.064 H 
BRANCH 135 146
ATOM    146  C   PRO d   1     -13.765  -1.357  16.813  0.00  0.00     0.241 C 
ATOM    147  O   PRO d   1     -14.498  -0.954  15.906  0.00  0.00    -0.271 OA
ATOM    148  N   GLU d   1     -14.172  -2.186  17.769  0.00  0.00    -0.345 N 
ATOM    149  H80 GLU d   1     -13.523  -2.475  18.473  0.00  0.00     0.163 HD
BRANCH 148 150
ATOM    150  CA  GLU d   1     -15.540  -2.684  17.817  0.00  0.00     0.097 C 
ATOM    151  H81 GLU d   1     -15.858  -2.943  16.796  0.00  0.00     0.089 H 
BRANCH 150 152
ATOM    152  C   GLU d   1     -16.493  -1.620  18.372  0.00  0.00     0.196 C 
ATOM    153  O   GLU d   1     -16.014  -0.660  18.959  0.00  0.00    -0.646 OA
ATOM    154  OXT GLU d   1     -17.693  -1.780  18.200  0.00  0.00    -0.646 OA
ENDBRANCH 150 152
BRANCH 150 155
ATOM    155  CB  GLU d   1     -15.598  -3.944  18.692  0.00  0.00    -0.028 C 
ATOM    156  H82 GLU d   1     -15.051  -4.758  18.194  0.00  0.00     0.037 H 
ATOM    157  H83 GLU d   1     -16.648  -4.240  18.834  0.00  0.00     0.037 H 
BRANCH 155 158
ATOM    158  CG  GLU d   1     -14.959  -3.664  20.059  0.00  0.00     0.018 C 
ATOM    159  H84 GLU d   1     -15.443  -4.292  20.821  0.00  0.00     0.049 H 
ATOM    160  H85 GLU d   1     -15.100  -2.603  20.315  0.00  0.00     0.049 H 
BRANCH 158 161
ATOM    161  CD  GLU d   1     -13.466  -3.979  20.022  0.00  0.00     0.172 C 
ATOM    162  OE1 GLU d   1     -12.726  -3.186  19.459  0.00  0.00    -0.648 OA
ATOM    163  OE2 GLU d   1     -13.086  -5.008  20.555  0.00  0.00    -0.648 OA
ENDBRANCH 158 161
ENDBRANCH 155 158
ENDBRANCH 150 155
ENDBRANCH 148 150
ENDBRANCH 135 146
ENDBRANCH 130 132
BRANCH 130 164
ATOM    164  CB  ASP d   1     -12.243   0.817  12.440  0.00  0.00     0.043 C 
ATOM    165  H71 ASP d   1     -13.233   1.137  12.796  0.00  0.00     0.052 H 
ATOM    166  H72 ASP d   1     -12.314  -0.198  12.022  0.00  0.00     0.052 H 
BRANCH 164 167
ATOM    167  CG  ASP d   1     -11.767   1.778  11.348  0.00  0.00     0.175 C 
ATOM    168  OD1 ASP d   1     -10.719   1.530  10.764  0.00  0.00    -0.648 OA
ATOM    169  OD2 ASP d   1     -12.485   2.727  11.073  0.00  0.00    -0.648 OA
ENDBRANCH 164 167
ENDBRANCH 130 164
ENDBRANCH 128 130
ENDBRANCH 124 126
BRANCH 124 170
ATOM    170  CB  ALA d   1      -6.878   0.157  13.551  0.00  0.00    -0.049 C 
ATOM    171  H66 ALA d   1      -7.465  -0.774  13.551  0.00  0.00     0.030 H 
ATOM    172  H67 ALA d   1      -6.757   0.515  14.584  0.00  0.00     0.030 H 
ATOM    173  H68 ALA d   1      -5.888  -0.034  13.111  0.00  0.00     0.030 H 
ENDBRANCH 124 170
ENDBRANCH 122 124
ENDBRANCH 118 120
BRANCH 118 174
ATOM    174  CB  PTR d   1      -6.206   5.289  11.443  0.00  0.00    -0.014 C 
ATOM    175  H58 PTR d   1      -6.536   5.891  12.302  0.00  0.00     0.043 H 
ATOM    176  H59 PTR d   1      -7.082   4.849  10.945  0.00  0.00     0.043 H 
BRANCH 174 177
ATOM    177  CG  PTR d   1      -5.463   6.175  10.463  0.00  0.00    -0.056 A 
ATOM    178  CD1 PTR d   1      -5.131   5.694   9.189  0.00  0.00    -0.074 A 
ATOM    179  CE1 PTR d   1      -4.414   6.501   8.298  0.00  0.00    -0.050 A 
ATOM    180  H60 PTR d   1      -5.430   4.695   8.893  0.00  0.00     0.084 H 
ATOM    181  CZ  PTR d   1      -4.032   7.790   8.685  0.00  0.00     0.082 A 
ATOM    182  H62 PTR d   1      -4.156   6.129   7.313  0.00  0.00     0.087 H 
ATOM    183  CE2 PTR d   1      -4.368   8.273   9.954  0.00  0.00    -0.050 A 
ATOM    184  CD2 PTR d   1      -5.079   7.465  10.844  0.00  0.00    -0.074 A 
ATOM    185  H63 PTR d   1      -4.076   9.275  10.247  0.00  0.00     0.087 H 
ATOM    186  H61 PTR d   1      -5.333   7.837  11.830  0.00  0.00     0.084 H 
BRANCH 181 187
ATOM    187  OH  PTR d   1      -3.308   8.587   7.820  0.00  0.00    -0.240 OA
BRANCH 187 188
ATOM    188  P   PTR d   1      -1.770   8.991   8.213  0.00  0.00     0.427 P 
ATOM    189  O1P PTR d   1      -0.745   8.559   7.161  0.00  0.00    -0.617 OA
ATOM    190  O2P PTR d   1      -1.783  10.521   8.293  0.00  0.00    -0.617 OA
ATOM    191  O3P PTR d   1      -1.386   8.411   9.573  0.00  0.00    -0.617 OA
ENDBRANCH 187 188
ENDBRANCH 181 187
ENDBRANCH 174 177
ENDBRANCH 118 174
ENDBRANCH 116 118
ENDBRANCH 103 114
ENDBRANCH   1 100
BRANCH   1 192
ATOM    192  CB  SER d   1      -0.960   0.791  12.817  0.00  0.00     0.044 C 
ATOM    193  H46 SER d   1      -2.028   1.001  12.976  0.00  0.00     0.077 H 
ATOM    194  H47 SER d   1      -0.411   0.949  13.757  0.00  0.00     0.077 H 
BRANCH 192 195
ATOM    195  OG  SER d   1      -0.796  -0.556  12.388  0.00  0.00    -0.398 OA
ATOM    196  H48 SER d   1       0.127  -0.733  12.250  0.00  0.00     0.209 HD
ENDBRANCH 192 195
ENDBRANCH   1 192
TORSDOF 53
