REMARK WARNING: 32 MAX_TORS EXCEEDED!!!
REMARK  77 active torsions:
REMARK  status: ('A' for Active; 'I' for Inactive)
REMARK    1  A    between atoms: N_1  and  CA_2 
REMARK    2  A    between atoms: CA_2  and  CB_3 
REMARK    3  A    between atoms: CA_2  and  C_6 
REMARK    4  A    between atoms: CB_3  and  CG2_4 
REMARK    5  A    between atoms: CB_3  and  OG1_5 
REMARK       I    between atoms: C_6  and  N_8 
REMARK    6  A    between atoms: N_8  and  CA_9 
REMARK    7  A    between atoms: CA_9  and  C_10 
REMARK    8  A    between atoms: CA_9  and  CB_12 
REMARK       I    between atoms: C_10  and  N_19 
REMARK    9  A    between atoms: CB_12  and  CG_13 
REMARK   10  A    between atoms: N_19  and  CA_20 
REMARK   11  A    between atoms: CA_20  and  C_21 
REMARK   12  A    between atoms: CA_20  and  CB_23 
REMARK       I    between atoms: C_21  and  N_28 
REMARK   13  A    between atoms: CB_23  and  CG_24 
REMARK   14  A    between atoms: CG_24  and  CD_25 
REMARK   15  A    between atoms: CD_25  and  CE_26 
REMARK   16  A    between atoms: CE_26  and  NZ_27 
REMARK   17  A    between atoms: N_28  and  CA_29 
REMARK   18  A    between atoms: CA_29  and  C_30 
REMARK   19  A    between atoms: CA_29  and  CB_32 
REMARK       I    between atoms: C_30  and  N_37 
REMARK   20  A    between atoms: CB_32  and  CG_33 
REMARK   21  A    between atoms: CG_33  and  CD_34 
REMARK   22  A    between atoms: N_37  and  CA_38 
REMARK   23  A    between atoms: CA_38  and  C_39 
REMARK   24  A    between atoms: CA_38  and  CB_41 
REMARK       I    between atoms: C_39  and  N_44 
REMARK   25  A    between atoms: CB_41  and  CG1_42 
REMARK   26  A    between atoms: CB_41  and  CG2_43 
REMARK   27  A    between atoms: N_44  and  CA_45 
REMARK   28  A    between atoms: CA_45  and  C_46 
REMARK   29  A    between atoms: CA_45  and  CB_48 
REMARK       I    between atoms: C_46  and  N_49 
REMARK   30  A    between atoms: N_49  and  CA_50 
REMARK   31  A    between atoms: CA_50  and  C_51 
REMARK   32  A    between atoms: CA_50  and  CB_53 
REMARK       I    between atoms: C_51  and  N_57 
REMARK   33  A    between atoms: CB_53  and  CG_54 
REMARK       I    between atoms: CG_54  and  ND2_56 
REMARK   34  A    between atoms: N_57  and  CA_58 
REMARK   35  A    between atoms: CA_58  and  C_59 
REMARK   36  A    between atoms: CA_58  and  CB_61 
REMARK       I    between atoms: C_59  and  N_62 
REMARK   37  A    between atoms: N_62  and  CA_63 
REMARK   38  A    between atoms: CA_63  and  C_64 
REMARK   39  A    between atoms: CA_63  and  CB_66 
REMARK       I    between atoms: C_64  and  N_69 
REMARK   40  A    between atoms: CB_66  and  CG1_67 
REMARK   41  A    between atoms: CB_66  and  CG2_68 
REMARK   42  A    between atoms: N_69  and  CA_70 
REMARK   43  A    between atoms: CA_70  and  C_71 
REMARK   44  A    between atoms: CA_70  and  CB_73 
REMARK       I    between atoms: C_71  and  N_78 
REMARK   45  A    between atoms: CB_73  and  CG_74 
REMARK   46  A    between atoms: CG_74  and  CD_75 
REMARK   47  A    between atoms: CD_75  and  CE_76 
REMARK   48  A    between atoms: CE_76  and  NZ_77 
REMARK   49  A    between atoms: N_78  and  CA_79 
REMARK   50  A    between atoms: CA_79  and  C_80 
REMARK   51  A    between atoms: CA_79  and  CB_82 
REMARK       I    between atoms: C_80  and  N_86 
REMARK   52  A    between atoms: CB_82  and  CG1_83 
REMARK   53  A    between atoms: CB_82  and  CG2_84 
REMARK   54  A    between atoms: CG1_83  and  CD1_85 
REMARK   55  A    between atoms: N_86  and  CA_87 
REMARK   56  A    between atoms: CA_87  and  C_88 
REMARK   57  A    between atoms: CA_87  and  CB_90 
REMARK       I    between atoms: C_88  and  N_92 
REMARK   58  A    between atoms: CB_90  and  OG_91 
REMARK   59  A    between atoms: N_92  and  CA_93 
REMARK   60  A    between atoms: CA_93  and  C_94 
REMARK   61  A    between atoms: CA_93  and  CB_96 
REMARK       I    between atoms: C_94  and  N_97 
REMARK   62  A    between atoms: N_97  and  CA_98 
REMARK   63  A    between atoms: CA_98  and  C_99 
REMARK   64  A    between atoms: CA_98  and  CB_101 
REMARK       I    between atoms: C_99  and  N_103 
REMARK   65  A    between atoms: CB_101  and  OG_102 
REMARK   66  A    between atoms: N_103  and  CA_104 
REMARK   67  A    between atoms: CA_104  and  C_105 
REMARK   68  A    between atoms: CA_104  and  CB_107 
REMARK       I    between atoms: C_105  and  N_111 
REMARK   69  A    between atoms: CB_107  and  CG_108 
REMARK   70  A    between atoms: CG_108  and  CD1_109 
REMARK   71  A    between atoms: CG_108  and  CD2_110 
REMARK   72  A    between atoms: N_111  and  CA_112 
REMARK   73  A    between atoms: CA_112  and  C_113 
REMARK   74  A    between atoms: CA_112  and  CB_115 
REMARK   75  A    between atoms: CB_115  and  CG_116 
REMARK   76  A    between atoms: CG_116  and  SD_117 
REMARK   77  A    between atoms: SD_117  and  CE_118 
ROOT
ATOM      1  N   VAL d   1      -0.135   0.311   1.288  0.00  0.00    -0.346 N 
ATOM      2  H   VAL d   1       0.650   0.859   1.578  0.00  0.00     0.163 HD
ATOM      3  C   ALA d   1      -0.975   0.818   0.364  0.00  0.00     0.240 C 
ATOM      4  O   ALA d   1      -1.946   0.198  -0.069  0.00  0.00    -0.271 OA
ENDROOT
BRANCH   1   5
ATOM      5  CA  VAL d   1      -0.332  -1.026   1.888  0.00  0.00     0.092 C 
ATOM      6  H   VAL d   1      -0.581  -1.716   1.068  0.00  0.00     0.088 H 
BRANCH   5   7
ATOM      7  C   VAL d   1      -1.529  -1.032   2.877  0.00  0.00     0.241 C 
ATOM      8  O   VAL d   1      -2.171  -2.068   3.072  0.00  0.00    -0.271 OA
ATOM      9  N   LYS d   1      -1.808   0.135   3.487  0.00  0.00    -0.346 N 
ATOM     10  H   LYS d   1      -1.249   0.935   3.268  0.00  0.00     0.163 HD
BRANCH   9  11
ATOM     11  CA  LYS d   1      -2.902   0.286   4.465  0.00  0.00     0.089 C 
ATOM     12  H   LYS d   1      -2.835  -0.550   5.177  0.00  0.00     0.087 H 
BRANCH  11  13
ATOM     13  C   LYS d   1      -4.299   0.244   3.817  0.00  0.00     0.241 C 
ATOM     14  O   LYS d   1      -5.295   0.045   4.519  0.00  0.00    -0.271 OA
ATOM     15  N   ILE d   1      -4.371   0.430   2.485  0.00  0.00    -0.346 N 
ATOM     16  H   ILE d   1      -3.528   0.589   1.971  0.00  0.00     0.163 HD
BRANCH  15  17
ATOM     17  CA  ILE d   1      -5.658   0.407   1.760  0.00  0.00     0.092 C 
ATOM     18  H   ILE d   1      -6.386   0.965   2.367  0.00  0.00     0.088 H 
BRANCH  17  19
ATOM     19  C   ILE d   1      -6.209  -1.038   1.600  0.00  0.00     0.241 C 
ATOM     20  O   ILE d   1      -7.241  -1.248   0.956  0.00  0.00    -0.271 OA
ATOM     21  N   SER d   1      -5.503  -2.006   2.196  0.00  0.00    -0.344 N 
ATOM     22  H   SER d   1      -4.673  -1.756   2.694  0.00  0.00     0.163 HD
BRANCH  21  23
ATOM     23  CA  SER d   1      -5.895  -3.417   2.150  0.00  0.00     0.109 C 
ATOM     24  H   SER d   1      -6.574  -3.567   1.297  0.00  0.00     0.090 H 
BRANCH  23  25
ATOM     25  C   SER d   1      -6.627  -3.824   3.439  0.00  0.00     0.243 C 
ATOM     26  O   SER d   1      -6.911  -5.008   3.660  0.00  0.00    -0.271 OA
ATOM     27  N   ALA d   1      -6.947  -2.824   4.274  0.00  0.00    -0.346 N 
ATOM     28  H   ALA d   1      -6.711  -1.888   4.013  0.00  0.00     0.163 HD
BRANCH  27  29
ATOM     29  CA  ALA d   1      -7.628  -3.045   5.554  0.00  0.00     0.086 C 
ATOM     30  H   ALA d   1      -7.285  -4.010   5.956  0.00  0.00     0.086 H 
BRANCH  29  31
ATOM     31  C   ALA d   1      -9.157  -3.112   5.415  0.00  0.00     0.240 C 
ATOM     32  O   ALA d   1      -9.853  -3.445   6.380  0.00  0.00    -0.271 OA
ATOM     33  N   SER d   1      -9.672  -2.805   4.214  0.00  0.00    -0.344 N 
ATOM     34  H   SER d   1      -9.052  -2.550   3.472  0.00  0.00     0.163 HD
BRANCH  33  35
ATOM     35  CA  SER d   1     -11.115  -2.832   3.957  0.00  0.00     0.109 C 
ATOM     36  H   SER d   1     -11.632  -2.566   4.891  0.00  0.00     0.090 H 
BRANCH  35  37
ATOM     37  C   SER d   1     -11.582  -4.230   3.540  0.00  0.00     0.243 C 
ATOM     38  O   SER d   1     -12.503  -4.783   4.147  0.00  0.00    -0.271 OA
ATOM     39  N   LEU d   1     -10.929  -4.804   2.519  0.00  0.00    -0.346 N 
ATOM     40  H   LEU d   1     -10.181  -4.306   2.079  0.00  0.00     0.163 HD
BRANCH  39  41
ATOM     41  CA  LEU d   1     -11.281  -6.144   2.028  0.00  0.00     0.089 C 
ATOM     42  H   LEU d   1     -12.363  -6.283   2.171  0.00  0.00     0.087 H 
BRANCH  41  43
ATOM     43  C   LEU d   1     -10.555  -7.247   2.810  0.00  0.00     0.241 C 
ATOM     44  O   LEU d   1     -10.931  -8.420   2.726  0.00  0.00    -0.271 OA
ATOM     45  N   MET d   1      -9.517  -6.859   3.566  0.00  0.00    -0.345 N 
ATOM     46  H   MET d   1      -9.264  -5.892   3.576  0.00  0.00     0.163 HD
BRANCH  45  47
ATOM     47  CA  MET d   1      -8.741  -7.799   4.376  0.00  0.00     0.097 C 
ATOM     48  H   MET d   1      -9.311  -8.736   4.463  0.00  0.00     0.089 H 
BRANCH  47  49
ATOM     49  C   MET d   1      -8.523  -7.232   5.783  0.00  0.00     0.196 C 
ATOM     50  O   MET d   1      -9.001  -7.860   6.752  0.00  0.00    -0.646 OA
ATOM     51  OXT MET d   1      -7.885  -6.163   5.903  0.00  0.00    -0.646 OA
ENDBRANCH  47  49
BRANCH  47  52
ATOM     52  CB  MET d   1      -7.393  -8.113   3.700  0.00  0.00    -0.029 C 
ATOM     53  H   MET d   1      -6.689  -7.303   3.941  0.00  0.00     0.037 H 
ATOM     54  H   MET d   1      -7.552  -8.149   2.612  0.00  0.00     0.037 H 
BRANCH  52  55
ATOM     55  CG  MET d   1      -6.769  -9.437   4.138  0.00  0.00    -0.021 C 
ATOM     56  H   MET d   1      -6.610  -9.408   5.226  0.00  0.00     0.049 H 
ATOM     57  H   MET d   1      -5.801  -9.555   3.629  0.00  0.00     0.049 H 
BRANCH  55  58
ATOM     58  SD  MET d   1      -7.805 -10.861   3.745  0.00  0.00    -0.173 SA
BRANCH  58  59
ATOM     59  CE  MET d   1      -7.173 -12.070   4.906  0.00  0.00    -0.035 C 
ATOM     60  H   MET d   1      -7.720 -13.016   4.784  0.00  0.00     0.041 H 
ATOM     61  H   MET d   1      -7.308 -11.698   5.932  0.00  0.00     0.041 H 
ATOM     62  H   MET d   1      -6.103 -12.238   4.714  0.00  0.00     0.041 H 
ENDBRANCH  58  59
ENDBRANCH  55  58
ENDBRANCH  52  55
ENDBRANCH  47  52
ENDBRANCH  45  47
ENDBRANCH  41  43
BRANCH  41  63
ATOM     63  CB  LEU d   1     -10.975  -6.268   0.528  0.00  0.00    -0.035 C 
ATOM     64  H   LEU d   1     -10.900  -7.338   0.285  0.00  0.00     0.037 H 
ATOM     65  H   LEU d   1     -10.008  -5.780   0.338  0.00  0.00     0.037 H 
BRANCH  63  66
ATOM     66  CG  LEU d   1     -12.015  -5.640  -0.416  0.00  0.00    -0.059 C 
ATOM     67  H   LEU d   1     -12.388  -4.715   0.047  0.00  0.00     0.038 H 
BRANCH  66  68
ATOM     68  CD1 LEU d   1     -11.380  -5.289  -1.753  0.00  0.00    -0.073 C 
ATOM     69  H   LEU d   1     -12.138  -4.842  -2.413  0.00  0.00     0.028 H 
ATOM     70  H   LEU d   1     -10.980  -6.201  -2.220  0.00  0.00     0.028 H 
ATOM     71  H   LEU d   1     -10.563  -4.570  -1.593  0.00  0.00     0.028 H 
ENDBRANCH  66  68
BRANCH  66  72
ATOM     72  CD2 LEU d   1     -13.196  -6.582  -0.631  0.00  0.00    -0.073 C 
ATOM     73  H   LEU d   1     -13.649  -6.830   0.340  0.00  0.00     0.028 H 
ATOM     74  H   LEU d   1     -12.846  -7.504  -1.119  0.00  0.00     0.028 H 
ATOM     75  H   LEU d   1     -13.945  -6.091  -1.270  0.00  0.00     0.028 H 
ENDBRANCH  66  72
ENDBRANCH  63  66
ENDBRANCH  41  63
ENDBRANCH  39  41
ENDBRANCH  35  37
BRANCH  35  76
ATOM     76  CB  SER d   1     -11.492  -1.795   2.892  0.00  0.00     0.044 C 
ATOM     77  H   SER d   1     -12.441  -2.091   2.422  0.00  0.00     0.077 H 
ATOM     78  H   SER d   1     -10.700  -1.759   2.129  0.00  0.00     0.077 H 
BRANCH  76  79
ATOM     79  OG  SER d   1     -11.641  -0.509   3.466  0.00  0.00    -0.398 OA
ATOM     80  H   SER d   1     -11.874   0.114   2.788  0.00  0.00     0.209 HD
ENDBRANCH  76  79
ENDBRANCH  35  76
ENDBRANCH  33  35
ENDBRANCH  29  31
BRANCH  29  81
ATOM     81  CB  ALA d   1      -7.237  -1.950   6.535  0.00  0.00    -0.049 C 
ATOM     82  H   ALA d   1      -7.749  -2.117   7.494  0.00  0.00     0.030 H 
ATOM     83  H   ALA d   1      -7.531  -0.971   6.128  0.00  0.00     0.030 H 
ATOM     84  H   ALA d   1      -6.148  -1.970   6.692  0.00  0.00     0.030 H 
ENDBRANCH  29  81
ENDBRANCH  27  29
ENDBRANCH  23  25
BRANCH  23  85
ATOM     85  CB  SER d   1      -4.651  -4.292   1.955  0.00  0.00     0.044 C 
ATOM     86  H   SER d   1      -4.967  -5.329   1.771  0.00  0.00     0.077 H 
ATOM     87  H   SER d   1      -4.038  -4.252   2.867  0.00  0.00     0.077 H 
BRANCH  85  88
ATOM     88  OG  SER d   1      -3.875  -3.844   0.857  0.00  0.00    -0.398 OA
ATOM     89  H   SER d   1      -3.113  -4.403   0.760  0.00  0.00     0.209 HD
ENDBRANCH  85  88
ENDBRANCH  23  85
ENDBRANCH  21  23
ENDBRANCH  17  19
BRANCH  17  90
ATOM     90  CB  ILE d   1      -5.538   1.145   0.380  0.00  0.00    -0.030 C 
ATOM     91  H   ILE d   1      -4.930   2.047   0.543  0.00  0.00     0.043 H 
BRANCH  90  92
ATOM     92  CG1 ILE d   1      -6.914   1.595  -0.141  0.00  0.00    -0.063 C 
ATOM     93  H   ILE d   1      -7.644   1.501   0.676  0.00  0.00     0.033 H 
ATOM     94  H   ILE d   1      -7.205   0.935  -0.971  0.00  0.00     0.033 H 
BRANCH  92  95
ATOM     95  CD1 ILE d   1      -6.931   3.028  -0.638  0.00  0.00    -0.076 C 
ATOM     96  H   ILE d   1      -7.941   3.281  -0.994  0.00  0.00     0.027 H 
ATOM     97  H   ILE d   1      -6.213   3.138  -1.464  0.00  0.00     0.027 H 
ATOM     98  H   ILE d   1      -6.652   3.704   0.183  0.00  0.00     0.027 H 
ENDBRANCH  92  95
ENDBRANCH  90  92
BRANCH  90  99
ATOM     99  CG2 ILE d   1      -4.827   0.293  -0.674  0.00  0.00    -0.071 C 
ATOM    100  H   ILE d   1      -3.846  -0.022  -0.290  0.00  0.00     0.028 H 
ATOM    101  H   ILE d   1      -4.689   0.884  -1.591  0.00  0.00     0.028 H 
ATOM    102  H   ILE d   1      -5.435  -0.596  -0.898  0.00  0.00     0.028 H 
ENDBRANCH  90  99
ENDBRANCH  17  90
ENDBRANCH  15  17
ENDBRANCH  11  13
BRANCH  11 103
ATOM    103  CB  LYS d   1      -2.732   1.599   5.240  0.00  0.00    -0.038 C 
ATOM    104  H   LYS d   1      -3.252   2.396   4.688  0.00  0.00     0.036 H 
ATOM    105  H   LYS d   1      -1.658   1.831   5.295  0.00  0.00     0.036 H 
BRANCH 103 106
ATOM    106  CG  LYS d   1      -3.286   1.560   6.659  0.00  0.00    -0.061 C 
ATOM    107  H   LYS d   1      -2.740   0.799   7.235  0.00  0.00     0.033 H 
ATOM    108  H   LYS d   1      -4.353   1.294   6.619  0.00  0.00     0.033 H 
BRANCH 106 109
ATOM    109  CD  LYS d   1      -3.137   2.907   7.353  0.00  0.00    -0.043 C 
ATOM    110  H   LYS d   1      -3.623   3.680   6.739  0.00  0.00     0.035 H 
ATOM    111  H   LYS d   1      -2.067   3.139   7.455  0.00  0.00     0.035 H 
BRANCH 109 112
ATOM    112  CE  LYS d   1      -3.774   2.902   8.736  0.00  0.00     0.080 C 
ATOM    113  H   LYS d   1      -4.776   2.455   8.663  0.00  0.00     0.075 H 
ATOM    114  H   LYS d   1      -3.861   3.940   9.090  0.00  0.00     0.075 H 
BRANCH 112 115
ATOM    115  NZ  LYS d   1      -2.972   2.124   9.723  0.00  0.00    -0.079 N 
ATOM    116  H   LYS d   1      -3.429   2.148  10.621  0.00  0.00     0.274 HD
ATOM    117  H   LYS d   1      -2.053   2.530   9.803  0.00  0.00     0.274 HD
ATOM    118  H   LYS d   1      -2.892   1.169   9.412  0.00  0.00     0.274 HD
ENDBRANCH 112 115
ENDBRANCH 109 112
ENDBRANCH 106 109
ENDBRANCH 103 106
ENDBRANCH  11 103
ENDBRANCH   9  11
ENDBRANCH   5   7
BRANCH   5 119
ATOM    119  CB  VAL d   1       0.980  -1.573   2.575  0.00  0.00    -0.033 C 
ATOM    120  H   VAL d   1       1.760  -1.617   1.801  0.00  0.00     0.042 H 
BRANCH 119 121
ATOM    121  CG1 VAL d   1       1.485  -0.649   3.684  0.00  0.00    -0.071 C 
ATOM    122  H   VAL d   1       2.397  -1.074   4.128  0.00  0.00     0.028 H 
ATOM    123  H   VAL d   1       0.711  -0.550   4.460  0.00  0.00     0.028 H 
ATOM    124  H   VAL d   1       1.710   0.342   3.262  0.00  0.00     0.028 H 
ENDBRANCH 119 121
BRANCH 119 125
ATOM    125  CG2 VAL d   1       0.779  -2.992   3.112  0.00  0.00    -0.071 C 
ATOM    126  H   VAL d   1       0.416  -3.642   2.303  0.00  0.00     0.028 H 
ATOM    127  H   VAL d   1       0.041  -2.974   3.927  0.00  0.00     0.028 H 
ATOM    128  H   VAL d   1       1.736  -3.379   3.492  0.00  0.00     0.028 H 
ENDBRANCH 119 125
ENDBRANCH   5 119
ENDBRANCH   1   5
BRANCH   3 129
ATOM    129  CA  ALA d   1      -0.661   2.227  -0.163  0.00  0.00     0.086 C 
ATOM    130  H   ALA d   1      -1.539   2.579  -0.725  0.00  0.00     0.086 H 
BRANCH 129 131
ATOM    131  N   ALA d   1      -0.412   3.180   0.929  0.00  0.00    -0.346 N 
ATOM    132  C   ASN d   1      -1.395   3.727   1.668  0.00  0.00     0.241 C 
ATOM    133  O   ASN d   1      -2.594   3.492   1.488  0.00  0.00    -0.271 OA
ATOM    134  H   ALA d   1       0.534   3.434   1.132  0.00  0.00     0.163 HD
BRANCH 132 135
ATOM    135  CA  ASN d   1      -0.945   4.693   2.786  0.00  0.00     0.097 C 
ATOM    136  H   ASN d   1      -1.598   4.534   3.657  0.00  0.00     0.088 H 
BRANCH 135 137
ATOM    137  N   ASN d   1       0.439   4.421   3.185  0.00  0.00    -0.346 N 
ATOM    138  C   ALA d   1       0.783   3.339   3.890  0.00  0.00     0.240 C 
ATOM    139  O   ALA d   1      -0.027   2.493   4.273  0.00  0.00    -0.271 OA
ATOM    140  H   ASN d   1       1.153   5.069   2.920  0.00  0.00     0.163 HD
BRANCH 138 141
ATOM    141  CA  ALA d   1       2.272   3.179   4.212  0.00  0.00     0.086 C 
ATOM    142  H   ALA d   1       2.460   2.127   4.473  0.00  0.00     0.086 H 
BRANCH 141 143
ATOM    143  N   ALA d   1       3.153   3.539   3.079  0.00  0.00    -0.346 N 
ATOM    144  C   VAL d   1       2.969   3.066   1.836  0.00  0.00     0.241 C 
ATOM    145  O   VAL d   1       2.040   2.310   1.539  0.00  0.00    -0.271 OA
ATOM    146  H   ALA d   1       3.918   4.161   3.246  0.00  0.00     0.163 HD
BRANCH 144 147
ATOM    147  CA  VAL d   1       3.984   3.495   0.748  0.00  0.00     0.092 C 
ATOM    148  H   VAL d   1       3.405   3.630  -0.177  0.00  0.00     0.088 H 
BRANCH 147 149
ATOM    149  N   VAL d   1       4.653   4.788   1.019  0.00  0.00    -0.346 N 
ATOM    150  C   GLU d   1       4.010   5.918   1.329  0.00  0.00     0.241 C 
ATOM    151  O   GLU d   1       2.784   5.993   1.447  0.00  0.00    -0.271 OA
ATOM    152  H   VAL d   1       5.651   4.818   0.967  0.00  0.00     0.163 HD
BRANCH 150 153
ATOM    153  CA  GLU d   1       4.888   7.161   1.535  0.00  0.00     0.090 C 
ATOM    154  H   GLU d   1       4.313   7.848   2.174  0.00  0.00     0.087 H 
BRANCH 153 155
ATOM    155  N   GLU d   1       6.170   6.908   2.248  0.00  0.00    -0.346 N 
ATOM    156  C   LYS d   1       6.243   6.772   3.589  0.00  0.00     0.241 C 
ATOM    157  O   LYS d   1       5.248   6.804   4.317  0.00  0.00    -0.271 OA
ATOM    158  H   GLU d   1       7.011   6.836   1.712  0.00  0.00     0.163 HD
BRANCH 156 159
ATOM    159  CA  LYS d   1       7.648   6.570   4.216  0.00  0.00     0.089 C 
ATOM    160  H   LYS d   1       7.495   6.416   5.294  0.00  0.00     0.087 H 
BRANCH 159 161
ATOM    161  N   LYS d   1       8.427   5.411   3.723  0.00  0.00    -0.346 N 
ATOM    162  C   PHE d   1       8.156   4.144   4.090  0.00  0.00     0.241 C 
ATOM    163  O   PHE d   1       7.222   3.842   4.828  0.00  0.00    -0.271 OA
ATOM    164  H   LYS d   1       9.185   5.576   3.092  0.00  0.00     0.163 HD
BRANCH 162 165
ATOM    165  CA  PHE d   1       9.063   3.041   3.525  0.00  0.00     0.093 C 
ATOM    166  H   PHE d   1       8.455   2.126   3.472  0.00  0.00     0.088 H 
BRANCH 165 167
ATOM    167  N   PHE d   1       9.517   3.339   2.164  0.00  0.00    -0.346 N 
ATOM    168  C   TPO d   1       8.718   3.186   1.110  0.00  0.00     0.251 C 
ATOM    169  O   TPO d   1       7.574   2.766   1.206  0.00  0.00    -0.271 OA
ATOM    170  H   PHE d   1      10.451   3.666   2.023  0.00  0.00     0.163 HD
BRANCH 168 171
ATOM    171  CA  TPO d   1       9.299   3.539  -0.251  0.00  0.00     0.199 C 
ATOM    172  H   TPO d   1      10.393   3.615  -0.159  0.00  0.00     0.103 H 
BRANCH 171 173
ATOM    173  N   TPO d   1       8.990   2.481  -1.249  0.00  0.00    -0.064 N 
ATOM    174  H   TPO d   1       9.384   2.736  -2.141  0.00  0.00     0.275 HD
ATOM    175  H   TPO d   1       7.991   2.385  -1.338  0.00  0.00     0.275 HD
ATOM    176  H   TPO d   1       9.386   1.606  -0.944  0.00  0.00     0.275 HD
ENDBRANCH 171 173
BRANCH 171 177
ATOM    177  CB  TPO d   1       8.744   4.915  -0.688  0.00  0.00     0.068 C 
ATOM    178  H   TPO d   1       8.474   5.482   0.215  0.00  0.00     0.086 H 
BRANCH 177 179
ATOM    179  CG2 TPO d   1       9.783   5.708  -1.463  0.00  0.00    -0.050 C 
ATOM    180  H   TPO d   1       9.358   6.679  -1.758  0.00  0.00     0.031 H 
ATOM    181  H   TPO d   1      10.076   5.147  -2.363  0.00  0.00     0.031 H 
ATOM    182  H   TPO d   1      10.667   5.872  -0.829  0.00  0.00     0.031 H 
ENDBRANCH 177 179
BRANCH 177 183
ATOM    183  OG1 TPO d   1       7.572   4.749  -1.494  0.00  0.00    -0.393 OA
ATOM    184  H   TPO d   1       6.923   4.253  -1.009  0.00  0.00     0.210 HD
ENDBRANCH 177 183
ENDBRANCH 171 177
ENDBRANCH 168 171
ENDBRANCH 165 167
BRANCH 165 185
ATOM    185  CB  PHE d   1      10.258   2.737   4.433  0.00  0.00    -0.014 C 
ATOM    186  H   PHE d   1      10.189   3.347   5.346  0.00  0.00     0.043 H 
ATOM    187  H   PHE d   1      11.192   2.975   3.902  0.00  0.00     0.043 H 
BRANCH 185 188
ATOM    188  CG  PHE d   1      10.249   1.280   4.802  0.00  0.00    -0.056 A 
ATOM    189  CD1 PHE d   1      10.739   0.316   3.929  0.00  0.00    -0.077 A 
ATOM    190  CE1 PHE d   1      10.657  -1.026   4.243  0.00  0.00    -0.082 A 
ATOM    191  H   PHE d   1      11.190   0.621   2.992  0.00  0.00     0.084 H 
ATOM    192  CZ  PHE d   1      10.088  -1.419   5.436  0.00  0.00    -0.083 A 
ATOM    193  H   PHE d   1      11.039  -1.769   3.553  0.00  0.00     0.083 H 
ATOM    194  CE2 PHE d   1       9.603  -0.470   6.313  0.00  0.00    -0.082 A 
ATOM    195  H   PHE d   1      10.022  -2.472   5.685  0.00  0.00     0.083 H 
ATOM    196  CD2 PHE d   1       9.679   0.871   5.990  0.00  0.00    -0.077 A 
ATOM    197  H   PHE d   1       9.163  -0.777   7.255  0.00  0.00     0.083 H 
ATOM    198  H   PHE d   1       9.286   1.611   6.678  0.00  0.00     0.084 H 
ENDBRANCH 185 188
ENDBRANCH 165 185
ENDBRANCH 162 165
ENDBRANCH 159 161
BRANCH 159 199
ATOM    199  CB  LYS d   1       8.477   7.843   4.026  0.00  0.00    -0.038 C 
ATOM    200  H   LYS d   1       7.874   8.706   4.344  0.00  0.00     0.036 H 
ATOM    201  H   LYS d   1       8.727   7.944   2.960  0.00  0.00     0.036 H 
BRANCH 199 202
ATOM    202  CG  LYS d   1       9.763   7.830   4.826  0.00  0.00    -0.061 C 
ATOM    203  H   LYS d   1      10.218   6.831   4.754  0.00  0.00     0.033 H 
ATOM    204  H   LYS d   1       9.531   8.052   5.878  0.00  0.00     0.033 H 
BRANCH 202 205
ATOM    205  CD  LYS d   1      10.753   8.860   4.312  0.00  0.00    -0.043 C 
ATOM    206  H   LYS d   1      10.258   9.842   4.272  0.00  0.00     0.035 H 
ATOM    207  H   LYS d   1      11.077   8.571   3.301  0.00  0.00     0.035 H 
BRANCH 205 208
ATOM    208  CE  LYS d   1      11.974   8.959   5.212  0.00  0.00     0.080 C 
ATOM    209  H   LYS d   1      12.460   7.973   5.262  0.00  0.00     0.075 H 
ATOM    210  H   LYS d   1      11.650   9.260   6.219  0.00  0.00     0.075 H 
BRANCH 208 211
ATOM    211  NZ  LYS d   1      12.958   9.955   4.706  0.00  0.00    -0.079 N 
ATOM    212  H   LYS d   1      13.750   9.991   5.328  0.00  0.00     0.274 HD
ATOM    213  H   LYS d   1      12.524  10.864   4.662  0.00  0.00     0.274 HD
ATOM    214  H   LYS d   1      13.266   9.685   3.785  0.00  0.00     0.274 HD
ENDBRANCH 208 211
ENDBRANCH 205 208
ENDBRANCH 202 205
ENDBRANCH 199 202
ENDBRANCH 159 199
ENDBRANCH 156 159
ENDBRANCH 153 155
BRANCH 153 215
ATOM    215  CB  GLU d   1       5.115   7.879   0.185  0.00  0.00    -0.029 C 
ATOM    216  H   GLU d   1       5.275   8.947   0.393  0.00  0.00     0.037 H 
ATOM    217  H   GLU d   1       4.205   7.756  -0.421  0.00  0.00     0.037 H 
BRANCH 215 218
ATOM    218  CG  GLU d   1       6.299   7.378  -0.639  0.00  0.00     0.018 C 
ATOM    219  H   GLU d   1       6.089   7.559  -1.704  0.00  0.00     0.049 H 
ATOM    220  H   GLU d   1       6.416   6.298  -0.467  0.00  0.00     0.049 H 
BRANCH 218 221
ATOM    221  CD  GLU d   1       7.598   8.072  -0.275  0.00  0.00     0.172 C 
ATOM    222  OE1 GLU d   1       8.298   7.585   0.637  0.00  0.00    -0.648 OA
ATOM    223  OE2 GLU d   1       7.915   9.104  -0.903  0.00  0.00    -0.648 OA
ENDBRANCH 218 221
ENDBRANCH 215 218
ENDBRANCH 153 215
ENDBRANCH 150 153
ENDBRANCH 147 149
BRANCH 147 224
ATOM    224  CB  VAL d   1       5.037   2.383   0.467  0.00  0.00    -0.033 C 
ATOM    225  H   VAL d   1       5.863   2.510   1.182  0.00  0.00     0.042 H 
BRANCH 224 226
ATOM    226  CG1 VAL d   1       4.480   0.972   0.634  0.00  0.00    -0.071 C 
ATOM    227  H   VAL d   1       5.271   0.238   0.422  0.00  0.00     0.028 H 
ATOM    228  H   VAL d   1       3.644   0.823  -0.065  0.00  0.00     0.028 H 
ATOM    229  H   VAL d   1       4.123   0.838   1.666  0.00  0.00     0.028 H 
ENDBRANCH 224 226
BRANCH 224 230
ATOM    230  CG2 VAL d   1       5.584   2.537  -0.946  0.00  0.00    -0.071 C 
ATOM    231  H   VAL d   1       5.988   3.552  -1.074  0.00  0.00     0.028 H 
ATOM    232  H   VAL d   1       4.775   2.369  -1.673  0.00  0.00     0.028 H 
ATOM    233  H   VAL d   1       6.384   1.801  -1.112  0.00  0.00     0.028 H 
ENDBRANCH 224 230
ENDBRANCH 147 224
ENDBRANCH 144 147
ENDBRANCH 141 143
BRANCH 141 234
ATOM    234  CB  ALA d   1       2.601   4.052   5.403  0.00  0.00    -0.049 C 
ATOM    235  H   ALA d   1       1.946   3.785   6.245  0.00  0.00     0.030 H 
ATOM    236  H   ALA d   1       2.445   5.108   5.138  0.00  0.00     0.030 H 
ATOM    237  H   ALA d   1       3.651   3.898   5.692  0.00  0.00     0.030 H 
ENDBRANCH 141 234
ENDBRANCH 138 141
ENDBRANCH 135 137
BRANCH 135 238
ATOM    238  CB  ASN d   1      -1.066   6.161   2.352  0.00  0.00     0.036 C 
ATOM    239  H   ASN d   1      -0.565   6.280   1.380  0.00  0.00     0.051 H 
ATOM    240  H   ASN d   1      -0.564   6.789   3.102  0.00  0.00     0.051 H 
BRANCH 238 241
ATOM    241  CG  ASN d   1      -2.507   6.633   2.214  0.00  0.00     0.217 C 
ATOM    242  OD1 ASN d   1      -3.101   7.141   3.164  0.00  0.00    -0.274 OA
ATOM    243  ND2 ASN d   1      -3.072   6.464   1.024  0.00  0.00    -0.370 N 
ATOM    244  H   ASN d   1      -4.017   6.755   0.873  0.00  0.00     0.159 HD
ATOM    245  H   ASN d   1      -2.553   6.046   0.279  0.00  0.00     0.159 HD
ENDBRANCH 238 241
ENDBRANCH 135 238
ENDBRANCH 132 135
ENDBRANCH 129 131
BRANCH 129 246
ATOM    246  CB  ALA d   1       0.528   2.192  -1.115  0.00  0.00    -0.049 C 
ATOM    247  H   ALA d   1       0.328   1.476  -1.926  0.00  0.00     0.030 H 
ATOM    248  H   ALA d   1       1.429   1.881  -0.565  0.00  0.00     0.030 H 
ATOM    249  H   ALA d   1       0.686   3.194  -1.541  0.00  0.00     0.030 H 
ENDBRANCH 129 246
ENDBRANCH   3 129
TORSDOF 77
