REMARK  3 active torsions:
REMARK  status: ('A' for Active; 'I' for Inactive)
REMARK    1  A    between atoms: C8_7  and  C9_8 
REMARK    2  A    between atoms: C1_16  and  C10_9 
REMARK    3  A    between atoms: C1_16  and  C2_17 
ROOT
ATOM      1  C4  KTR d   1      -1.031   0.166  -4.139  0.00  0.00    -0.058 A 
ATOM      2  C5  KTR d   1       0.001   0.508  -3.375  0.00  0.00     0.026 A 
ATOM      3  C6  KTR d   1       1.978  -0.217  -2.414  0.00  0.00     0.001 C 
ATOM      4  N1  KTR d   1       0.779  -0.584  -3.209  0.00  0.00    -0.346 N 
ATOM      5  C7  KTR d   1       1.606   1.006  -1.667  0.00  0.00    -0.032 C 
ATOM      6  C8  KTR d   1       0.628   1.667  -2.607  0.00  0.00     0.072 C 
ATOM      7  C2  KTR d   1       0.213  -1.602  -3.867  0.00  0.00     0.086 A 
ATOM      8  C3  KTR d   1      -0.898  -1.165  -4.447  0.00  0.00    -0.051 A 
ATOM      9  H   KTR d   1      -1.837   0.823  -4.462  0.00  0.00     0.086 H 
ATOM     10  H   KTR d   1       2.831  -0.016  -3.078  0.00  0.00     0.065 H 
ATOM     11  H   KTR d   1       2.239  -1.027  -1.717  0.00  0.00     0.065 H 
ATOM     12  H   KTR d   1       2.482   1.646  -1.488  0.00  0.00     0.037 H 
ATOM     13  H   KTR d   1       1.131   0.758  -0.707  0.00  0.00     0.037 H 
ATOM     14  H   KTR d   1      -0.141   2.208  -2.036  0.00  0.00     0.066 H 
ATOM     15  H   KTR d   1      -1.580  -1.755  -5.057  0.00  0.00     0.087 H 
ENDROOT
BRANCH   7  16
ATOM     16  C1  KTR d   1       0.755  -3.030  -3.939  0.00  0.00     0.208 C 
ATOM     17  O1  KTR d   1       0.571  -3.812  -3.006  0.00  0.00    -0.285 OA
BRANCH  16  18
ATOM     18  C10 KTR d   1       1.525  -3.477  -5.182  0.00  0.00     0.016 A 
ATOM     19  C11 KTR d   1       2.304  -2.570  -5.894  0.00  0.00    -0.069 A 
ATOM     20  C12 KTR d   1       3.004  -2.972  -7.024  0.00  0.00    -0.082 A 
ATOM     21  H   KTR d   1       2.365  -1.540  -5.563  0.00  0.00     0.085 H 
ATOM     22  C13 KTR d   1       2.928  -4.292  -7.452  0.00  0.00    -0.083 A 
ATOM     23  H   KTR d   1       3.608  -2.258  -7.571  0.00  0.00     0.083 H 
ATOM     24  C14 KTR d   1       2.153  -5.206  -6.749  0.00  0.00    -0.082 A 
ATOM     25  H   KTR d   1       3.473  -4.608  -8.334  0.00  0.00     0.083 H 
ATOM     26  C15 KTR d   1       1.456  -4.797  -5.619  0.00  0.00    -0.069 A 
ATOM     27  H   KTR d   1       2.092  -6.236  -7.082  0.00  0.00     0.083 H 
ATOM     28  H   KTR d   1       0.853  -5.513  -5.072  0.00  0.00     0.085 H 
ENDBRANCH  16  18
ENDBRANCH   7  16
BRANCH   6  29
ATOM     29  C9  KTR d   1       1.322   2.649  -3.554  0.00  0.00     0.183 C 
ATOM     30  O3  KTR d   1       1.282   3.859  -3.245  0.00  0.00    -0.647 OA
ATOM     31  O2  KTR d   1       1.875   2.166  -4.566  0.00  0.00    -0.647 OA
ENDBRANCH   6  29
TORSDOF 3
