REMARK WARNING: 32 MAX_TORS EXCEEDED!!!
REMARK  61 active torsions:
REMARK  status: ('A' for Active; 'I' for Inactive)
REMARK    1  A    between atoms: N_1  and  CA_2 
REMARK    2  A    between atoms: CA_2  and  C_3 
REMARK    3  A    between atoms: CA_2  and  CB_5 
REMARK       I    between atoms: C_3  and  N_9 
REMARK    4  A    between atoms: CB_5  and  CG_6 
REMARK    5  A    between atoms: N_9  and  CA_10 
REMARK    6  A    between atoms: CA_10  and  C_11 
REMARK    7  A    between atoms: CA_10  and  CB_13 
REMARK       I    between atoms: C_11  and  N_17 
REMARK    8  A    between atoms: CB_13  and  CG_14 
REMARK    9  A    between atoms: CG_14  and  CD1_15 
REMARK   10  A    between atoms: CG_14  and  CD2_16 
REMARK   11  A    between atoms: N_17  and  CA_18 
REMARK   12  A    between atoms: CA_18  and  C_19 
REMARK   13  A    between atoms: CA_18  and  CB_21 
REMARK       I    between atoms: C_19  and  N_25 
REMARK   14  A    between atoms: CB_21  and  CG_22 
REMARK   15  A    between atoms: N_25  and  CA_26 
REMARK   16  A    between atoms: CA_26  and  C_27 
REMARK   17  A    between atoms: CA_26  and  CB_29 
REMARK       I    between atoms: C_27  and  N_34 
REMARK   18  A    between atoms: CB_29  and  CG_30 
REMARK   19  A    between atoms: CG_30  and  CD_31 
REMARK   20  A    between atoms: N_34  and  CA_35 
REMARK   21  A    between atoms: CA_35  and  C_36 
REMARK   22  A    between atoms: CA_35  and  CB_38 
REMARK       I    between atoms: C_36  and  N_40 
REMARK   23  A    between atoms: CB_38  and  OG_39 
REMARK   24  A    between atoms: N_40  and  CA_41 
REMARK   25  A    between atoms: CA_41  and  C_42 
REMARK   26  A    between atoms: CA_41  and  CB_44 
REMARK       I    between atoms: C_42  and  N_54 
REMARK   27  A    between atoms: CB_44  and  CG_45 
REMARK   28  A    between atoms: N_54  and  CA_55 
REMARK   29  A    between atoms: CA_55  and  C_56 
REMARK   30  A    between atoms: CA_55  and  CB_58 
REMARK       I    between atoms: C_56  and  N_62 
REMARK   31  A    between atoms: CB_58  and  CG_59 
REMARK   32  A    between atoms: N_62  and  CA_63 
REMARK   33  A    between atoms: CA_63  and  C_64 
REMARK   34  A    between atoms: CA_63  and  CB_66 
REMARK       I    between atoms: C_64  and  N_74 
REMARK   35  A    between atoms: CB_66  and  CG_67 
REMARK   36  A    between atoms: CZ_72  and  OH_73 
REMARK   37  A    between atoms: N_74  and  CA_75 
REMARK   38  A    between atoms: CA_75  and  C_76 
REMARK   39  A    between atoms: CA_75  and  CB_78 
REMARK       I    between atoms: C_76  and  N_82 
REMARK   40  A    between atoms: CB_78  and  CG1_79 
REMARK   41  A    between atoms: CB_78  and  CG2_80 
REMARK   42  A    between atoms: CG1_79  and  CD1_81 
REMARK   43  A    between atoms: N_82  and  CA_83 
REMARK   44  A    between atoms: CA_83  and  C_84 
REMARK   45  A    between atoms: CA_83  and  CB_86 
REMARK       I    between atoms: C_84  and  N_93 
REMARK   46  A    between atoms: CB_86  and  CG_87 
REMARK   47  A    between atoms: N_93  and  CA_94 
REMARK   48  A    between atoms: CA_94  and  C_95 
REMARK   49  A    between atoms: CA_94  and  CB_97 
REMARK       I    between atoms: C_95  and  N_102 
REMARK   50  A    between atoms: CB_97  and  CG_98 
REMARK   51  A    between atoms: CG_98  and  CD_99 
REMARK   52  A    between atoms: N_102  and  CA_103 
REMARK   53  A    between atoms: CA_103  and  C_104 
REMARK   54  A    between atoms: CA_103  and  CB_106 
REMARK       I    between atoms: C_104  and  N_109 
REMARK   55  A    between atoms: CB_106  and  OG1_107 
REMARK   56  A    between atoms: CB_106  and  CG2_108 
REMARK   57  A    between atoms: N_109  and  CA_110 
REMARK   58  A    between atoms: CA_110  and  C_111 
REMARK   59  A    between atoms: CA_110  and  CB_113 
REMARK   60  A    between atoms: CB_113  and  OG1_114 
REMARK   61  A    between atoms: CB_113  and  CG2_115 
ROOT
ATOM      1  C   ASP d   1      -7.131  -6.256  -7.123  0.00  0.00     0.241 C 
ATOM      2  O   ASP d   1      -6.309  -5.451  -7.561  0.00  0.00    -0.271 OA
ATOM      3  N   TYR d   1      -8.325  -6.443  -7.677  0.00  0.00    -0.346 N 
ATOM      4  H   TYR d   1      -8.950  -7.113  -7.276  0.00  0.00     0.163 HD
ENDROOT
BRANCH   1   5
ATOM      5  CA  ASP d   1      -6.818  -7.103  -5.894  0.00  0.00     0.098 C 
ATOM      6  H   ASP d   1      -6.139  -6.535  -5.242  0.00  0.00     0.088 H 
BRANCH   5   7
ATOM      7  N   ASP d   1      -8.032  -7.404  -5.145  0.00  0.00    -0.345 N 
ATOM      8  C   TRP d   1      -8.592  -6.507  -4.338  0.00  0.00     0.241 C 
ATOM      9  O   TRP d   1      -8.131  -5.378  -4.170  0.00  0.00    -0.271 OA
ATOM     10  H   ASP d   1      -8.454  -8.306  -5.240  0.00  0.00     0.163 HD
BRANCH   8  11
ATOM     11  CA  TRP d   1      -9.859  -6.950  -3.613  0.00  0.00     0.093 C 
ATOM     12  H   TRP d   1     -10.508  -6.072  -3.479  0.00  0.00     0.088 H 
BRANCH  11  13
ATOM     13  N   TRP d   1     -10.587  -7.947  -4.391  0.00  0.00    -0.346 N 
ATOM     14  C   SER d   1     -11.018  -7.692  -5.622  0.00  0.00     0.243 C 
ATOM     15  O   SER d   1     -10.836  -6.612  -6.185  0.00  0.00    -0.271 OA
ATOM     16  H   TRP d   1     -10.766  -8.845  -3.988  0.00  0.00     0.163 HD
BRANCH  14  17
ATOM     17  CA  SER d   1     -11.765  -8.823  -6.322  0.00  0.00     0.109 C 
ATOM     18  H   SER d   1     -11.576  -8.750  -7.403  0.00  0.00     0.090 H 
BRANCH  17  19
ATOM     19  N   SER d   1     -11.295 -10.123  -5.859  0.00  0.00    -0.344 N 
ATOM     20  C   GLU d   1     -10.030 -10.501  -6.009  0.00  0.00     0.241 C 
ATOM     21  O   GLU d   1      -9.177  -9.791  -6.542  0.00  0.00    -0.271 OA
ATOM     22  H   SER d   1     -11.941 -10.746  -5.417  0.00  0.00     0.163 HD
BRANCH  20  23
ATOM     23  CA  GLU d   1      -9.674 -11.886  -5.479  0.00  0.00     0.090 C 
ATOM     24  H   GLU d   1      -8.585 -11.934  -5.331  0.00  0.00     0.087 H 
BRANCH  23  25
ATOM     25  N   GLU d   1     -10.325 -12.137  -4.198  0.00  0.00    -0.346 N 
ATOM     26  C   ASP d   1     -10.105 -11.362  -3.141  0.00  0.00     0.241 C 
ATOM     27  O   ASP d   1      -9.347 -10.392  -3.167  0.00  0.00    -0.271 OA
ATOM     28  H   GLU d   1     -10.952 -12.911  -4.113  0.00  0.00     0.163 HD
BRANCH  26  29
ATOM     29  CA  ASP d   1     -10.851 -11.737  -1.864  0.00  0.00     0.098 C 
ATOM     30  H   ASP d   1     -10.674 -10.953  -1.113  0.00  0.00     0.088 H 
BRANCH  29  31
ATOM     31  N   ASP d   1     -12.286 -11.828  -2.107  0.00  0.00    -0.346 N 
ATOM     32  C   LEU d   1     -13.028 -10.742  -2.310  0.00  0.00     0.241 C 
ATOM     33  O   LEU d   1     -12.558  -9.604  -2.307  0.00  0.00    -0.271 OA
ATOM     34  H   ASP d   1     -12.723 -12.727  -2.121  0.00  0.00     0.163 HD
BRANCH  32  35
ATOM     35  CA  LEU d   1     -14.520 -10.967  -2.554  0.00  0.00     0.089 C 
ATOM     36  H   LEU d   1     -14.731 -10.776  -3.616  0.00  0.00     0.087 H 
BRANCH  35  37
ATOM     37  N   LEU d   1     -14.906 -12.341  -2.249  0.00  0.00    -0.346 N 
ATOM     38  C   ASP d   1     -15.650 -13.057  -3.085  0.00  0.00     0.249 C 
ATOM     39  O   ASP d   1     -16.060 -12.620  -4.160  0.00  0.00    -0.271 OA
ATOM     40  H   LEU d   1     -14.603 -12.754  -1.390  0.00  0.00     0.163 HD
BRANCH  38  41
ATOM     41  CA  ASP d   1     -15.980 -14.479  -2.643  0.00  0.00     0.185 C 
ATOM     42  H   ASP d   1     -15.095 -14.906  -2.149  0.00  0.00     0.100 H 
BRANCH  41  43
ATOM     43  N   ASP d   1     -17.087 -14.485  -1.694  0.00  0.00    -0.066 N 
ATOM     44  H   ASP d   1     -17.287 -15.433  -1.417  0.00  0.00     0.275 HD
ATOM     45  H   ASP d   1     -17.903 -14.083  -2.127  0.00  0.00     0.275 HD
ATOM     46  H   ASP d   1     -16.836 -13.943  -0.882  0.00  0.00     0.275 HD
ENDBRANCH  41  43
BRANCH  41  47
ATOM     47  CB  ASP d   1     -16.322 -15.338  -3.862  0.00  0.00     0.050 C 
ATOM     48  H   ASP d   1     -15.812 -14.921  -4.743  0.00  0.00     0.052 H 
ATOM     49  H   ASP d   1     -17.410 -15.309  -4.021  0.00  0.00     0.052 H 
BRANCH  47  50
ATOM     50  CG  ASP d   1     -15.894 -16.782  -3.690  0.00  0.00     0.175 C 
ATOM     51  OD1 ASP d   1     -14.771 -17.014  -3.196  0.00  0.00    -0.648 OA
ATOM     52  OD2 ASP d   1     -16.683 -17.682  -4.048  0.00  0.00    -0.648 OA
ENDBRANCH  47  50
ENDBRANCH  41  47
ENDBRANCH  38  41
ENDBRANCH  35  37
BRANCH  35  53
ATOM     53  CB  LEU d   1     -15.338  -9.989  -1.709  0.00  0.00    -0.035 C 
ATOM     54  H   LEU d   1     -15.090  -8.968  -2.034  0.00  0.00     0.037 H 
ATOM     55  H   LEU d   1     -15.045 -10.120  -0.657  0.00  0.00     0.037 H 
BRANCH  53  56
ATOM     56  CG  LEU d   1     -16.854 -10.162  -1.804  0.00  0.00    -0.059 C 
ATOM     57  H   LEU d   1     -17.083 -11.237  -1.771  0.00  0.00     0.038 H 
BRANCH  56  58
ATOM     58  CD1 LEU d   1     -17.543  -9.489  -0.627  0.00  0.00    -0.073 C 
ATOM     59  H   LEU d   1     -18.631  -9.624  -0.713  0.00  0.00     0.028 H 
ATOM     60  H   LEU d   1     -17.306  -8.415  -0.628  0.00  0.00     0.028 H 
ATOM     61  H   LEU d   1     -17.191  -9.941   0.312  0.00  0.00     0.028 H 
ENDBRANCH  56  58
BRANCH  56  62
ATOM     62  CD2 LEU d   1     -17.372  -9.601  -3.120  0.00  0.00    -0.073 C 
ATOM     63  H   LEU d   1     -16.862 -10.100  -3.957  0.00  0.00     0.028 H 
ATOM     64  H   LEU d   1     -17.173  -8.520  -3.161  0.00  0.00     0.028 H 
ATOM     65  H   LEU d   1     -18.455  -9.778  -3.193  0.00  0.00     0.028 H 
ENDBRANCH  56  62
ENDBRANCH  53  56
ENDBRANCH  35  53
ENDBRANCH  32  35
ENDBRANCH  29  31
BRANCH  29  66
ATOM     66  CB  ASP d   1     -10.319 -13.064  -1.321  0.00  0.00     0.043 C 
ATOM     67  H   ASP d   1      -9.220 -13.053  -1.375  0.00  0.00     0.052 H 
ATOM     68  H   ASP d   1     -10.709 -13.883  -1.944  0.00  0.00     0.052 H 
BRANCH  66  69
ATOM     69  CG  ASP d   1     -10.733 -13.307   0.117  0.00  0.00     0.175 C 
ATOM     70  OD1 ASP d   1     -11.909 -13.659   0.345  0.00  0.00    -0.648 OA
ATOM     71  OD2 ASP d   1      -9.880 -13.146   1.016  0.00  0.00    -0.648 OA
ENDBRANCH  66  69
ENDBRANCH  29  66
ENDBRANCH  26  29
ENDBRANCH  23  25
BRANCH  23  72
ATOM     72  CB  GLU d   1     -10.076 -12.954  -6.497  0.00  0.00    -0.029 C 
ATOM     73  H   GLU d   1      -9.643 -13.915  -6.182  0.00  0.00     0.037 H 
ATOM     74  H   GLU d   1      -9.666 -12.671  -7.478  0.00  0.00     0.037 H 
BRANCH  72  75
ATOM     75  CG  GLU d   1     -11.580 -13.127  -6.636  0.00  0.00     0.018 C 
ATOM     76  H   GLU d   1     -12.067 -12.704  -5.745  0.00  0.00     0.049 H 
ATOM     77  H   GLU d   1     -11.807 -14.201  -6.703  0.00  0.00     0.049 H 
BRANCH  75  78
ATOM     78  CD  GLU d   1     -12.134 -12.436  -7.867  0.00  0.00     0.172 C 
ATOM     79  OE1 GLU d   1     -11.691 -11.307  -8.165  0.00  0.00    -0.648 OA
ATOM     80  OE2 GLU d   1     -13.011 -13.025  -8.534  0.00  0.00    -0.648 OA
ENDBRANCH  75  78
ENDBRANCH  72  75
ENDBRANCH  23  72
ENDBRANCH  20  23
ENDBRANCH  17  19
BRANCH  17  81
ATOM     81  CB  SER d   1     -13.269  -8.684  -6.078  0.00  0.00     0.044 C 
ATOM     82  H   SER d   1     -13.431  -8.129  -5.142  0.00  0.00     0.077 H 
ATOM     83  H   SER d   1     -13.713  -9.687  -5.991  0.00  0.00     0.077 H 
BRANCH  81  84
ATOM     84  OG  SER d   1     -13.897  -7.990  -7.143  0.00  0.00    -0.398 OA
ATOM     85  H   SER d   1     -14.828  -7.918  -6.967  0.00  0.00     0.209 HD
ENDBRANCH  81  84
ENDBRANCH  17  81
ENDBRANCH  14  17
ENDBRANCH  11  13
BRANCH  11  86
ATOM     86  CB  TRP d   1      -9.504  -7.509  -2.233  0.00  0.00    -0.012 C 
ATOM     87  H   TRP d   1      -8.442  -7.795  -2.235  0.00  0.00     0.044 H 
ATOM     88  H   TRP d   1     -10.123  -8.399  -2.048  0.00  0.00     0.044 H 
BRANCH  86  89
ATOM     89  CG  TRP d   1      -9.731  -6.533  -1.120  0.00  0.00    -0.028 A 
ATOM     90  CD1 TRP d   1      -8.882  -6.254  -0.088  0.00  0.00    -0.015 A 
ATOM     91  NE1 TRP d   1      -9.436  -5.304   0.735  0.00  0.00    -0.365 N 
ATOM     92  H   TRP d   1      -7.908  -6.717   0.061  0.00  0.00     0.112 H 
ATOM     93  CE2 TRP d   1     -10.665  -4.952   0.242  0.00  0.00     0.042 A 
ATOM     94  H   TRP d   1      -8.999  -4.919   1.584  0.00  0.00     0.165 HD
ATOM     95  CD2 TRP d   1     -10.884  -5.706  -0.926  0.00  0.00    -0.002 A 
ATOM     96  CZ2 TRP d   1     -11.598  -4.037   0.724  0.00  0.00    -0.056 A 
ATOM     97  CE3 TRP d   1     -12.081  -5.529  -1.627  0.00  0.00    -0.070 A 
ATOM     98  CZ3 TRP d   1     -13.006  -4.621  -1.148  0.00  0.00    -0.082 A 
ATOM     99  H   TRP d   1     -12.280  -6.094  -2.530  0.00  0.00     0.084 H 
ATOM    100  CH2 TRP d   1     -12.760  -3.884   0.017  0.00  0.00    -0.081 A 
ATOM    101  H   TRP d   1     -13.938  -4.477  -1.683  0.00  0.00     0.083 H 
ATOM    102  H   TRP d   1     -13.505  -3.178   0.366  0.00  0.00     0.083 H 
ATOM    103  H   TRP d   1     -11.411  -3.467   1.627  0.00  0.00     0.086 H 
ENDBRANCH  86  89
ENDBRANCH  11  86
ENDBRANCH   8  11
ENDBRANCH   5   7
BRANCH   5 104
ATOM    104  CB  ASP d   1      -6.121  -8.398  -6.317  0.00  0.00     0.043 C 
ATOM    105  H   ASP d   1      -6.687  -8.850  -7.144  0.00  0.00     0.052 H 
ATOM    106  H   ASP d   1      -6.109  -9.088  -5.461  0.00  0.00     0.052 H 
BRANCH 104 107
ATOM    107  CG  ASP d   1      -4.695  -8.164  -6.774  0.00  0.00     0.175 C 
ATOM    108  OD1 ASP d   1      -3.973  -7.399  -6.100  0.00  0.00    -0.648 OA
ATOM    109  OD2 ASP d   1      -4.299  -8.746  -7.806  0.00  0.00    -0.648 OA
ENDBRANCH 104 107
ENDBRANCH   5 104
ENDBRANCH   1   5
BRANCH   3 110
ATOM    110  CA  TYR d   1      -8.746  -5.695  -8.856  0.00  0.00     0.093 C 
ATOM    111  H   TYR d   1      -7.933  -5.726  -9.597  0.00  0.00     0.088 H 
BRANCH 110 112
ATOM    112  C   TYR d   1      -9.026  -4.237  -8.506  0.00  0.00     0.241 C 
ATOM    113  O   TYR d   1      -8.645  -3.328  -9.243  0.00  0.00    -0.271 OA
ATOM    114  N   ILE d   1      -9.695  -4.022  -7.378  0.00  0.00    -0.346 N 
ATOM    115  H   ILE d   1      -9.979  -4.804  -6.823  0.00  0.00     0.163 HD
BRANCH 114 116
ATOM    116  CA  ILE d   1     -10.026  -2.674  -6.930  0.00  0.00     0.092 C 
ATOM    117  H   ILE d   1     -10.648  -2.201  -7.704  0.00  0.00     0.088 H 
BRANCH 116 118
ATOM    118  C   ILE d   1      -8.767  -1.831  -6.739  0.00  0.00     0.241 C 
ATOM    119  O   ILE d   1      -8.804  -0.607  -6.864  0.00  0.00    -0.271 OA
ATOM    120  N   PHE d   1      -7.655  -2.493  -6.436  0.00  0.00    -0.346 N 
ATOM    121  H   PHE d   1      -7.688  -3.489  -6.349  0.00  0.00     0.163 HD
BRANCH 120 122
ATOM    122  CA  PHE d   1      -6.388  -1.801  -6.228  0.00  0.00     0.093 C 
ATOM    123  H   PHE d   1      -6.598  -0.737  -6.046  0.00  0.00     0.088 H 
BRANCH 122 124
ATOM    124  C   PHE d   1      -5.496  -1.915  -7.460  0.00  0.00     0.241 C 
ATOM    125  O   PHE d   1      -4.710  -1.014  -7.754  0.00  0.00    -0.271 OA
ATOM    126  N   GLU d   1      -5.624  -3.026  -8.177  0.00  0.00    -0.346 N 
ATOM    127  H   GLU d   1      -6.281  -3.721  -7.886  0.00  0.00     0.163 HD
BRANCH 126 128
ATOM    128  CA  GLU d   1      -4.829  -3.256  -9.378  0.00  0.00     0.090 C 
ATOM    129  H   GLU d   1      -3.765  -3.185  -9.110  0.00  0.00     0.087 H 
BRANCH 128 130
ATOM    130  C   GLU d   1      -5.133  -2.205 -10.441  0.00  0.00     0.241 C 
ATOM    131  O   GLU d   1      -4.246  -1.467 -10.870  0.00  0.00    -0.271 OA
ATOM    132  N   THR d   1      -6.392  -2.143 -10.862  0.00  0.00    -0.344 N 
ATOM    133  H   THR d   1      -7.067  -2.771 -10.475  0.00  0.00     0.163 HD
BRANCH 132 134
ATOM    134  CA  THR d   1      -6.813  -1.182 -11.874  0.00  0.00     0.113 C 
ATOM    135  H   THR d   1      -5.921  -0.833 -12.415  0.00  0.00     0.091 H 
BRANCH 134 136
ATOM    136  C   THR d   1      -7.492   0.023 -11.232  0.00  0.00     0.243 C 
ATOM    137  O   THR d   1      -7.553   0.134 -10.007  0.00  0.00    -0.271 OA
ATOM    138  N   THR d   1      -8.002   0.924 -12.066  0.00  0.00    -0.342 N 
ATOM    139  H   THR d   1      -7.921   0.777 -13.052  0.00  0.00     0.163 HD
BRANCH 138 140
ATOM    140  CA  THR d   1      -8.677   2.121 -11.579  0.00  0.00     0.120 C 
ATOM    141  H   THR d   1      -9.179   1.877 -10.631  0.00  0.00     0.093 H 
BRANCH 140 142
ATOM    142  C   THR d   1      -9.729   2.596 -12.577  0.00  0.00     0.199 C 
ATOM    143  O   THR d   1     -10.921   2.624 -12.271  0.00  0.00    -0.646 OA
ATOM    144  O1  THR d   1      -9.373   2.964 -13.728  0.00  0.00    -0.646 OA
ENDBRANCH 140 142
BRANCH 140 145
ATOM    145  CB  THR d   1      -7.662   3.235 -11.321  0.00  0.00     0.061 C 
ATOM    146  H   THR d   1      -8.215   4.183 -11.250  0.00  0.00     0.086 H 
BRANCH 145 147
ATOM    147  OG1 THR d   1      -6.733   3.324 -12.387  0.00  0.00    -0.393 OA
ATOM    148  H   THR d   1      -7.197   3.512 -13.195  0.00  0.00     0.210 HD
ENDBRANCH 145 147
BRANCH 145 149
ATOM    149  CG2 THR d   1      -6.876   3.044 -10.042  0.00  0.00    -0.050 C 
ATOM    150  H   THR d   1      -6.168   3.877  -9.919  0.00  0.00     0.031 H 
ATOM    151  H   THR d   1      -6.321   2.095 -10.091  0.00  0.00     0.031 H 
ATOM    152  H   THR d   1      -7.567   3.021  -9.187  0.00  0.00     0.031 H 
ENDBRANCH 145 149
ENDBRANCH 140 145
ENDBRANCH 138 140
ENDBRANCH 134 136
BRANCH 134 153
ATOM    153  CB  THR d   1      -7.763  -1.845 -12.873  0.00  0.00     0.060 C 
ATOM    154  H   THR d   1      -7.989  -1.111 -13.660  0.00  0.00     0.086 H 
BRANCH 153 155
ATOM    155  OG1 THR d   1      -8.972  -2.224 -12.239  0.00  0.00    -0.393 OA
ATOM    156  H   THR d   1      -8.783  -2.839 -11.540  0.00  0.00     0.210 HD
ENDBRANCH 153 155
BRANCH 153 157
ATOM    157  CG2 THR d   1      -7.180  -3.079 -13.525  0.00  0.00    -0.050 C 
ATOM    158  H   THR d   1      -7.912  -3.503 -14.228  0.00  0.00     0.031 H 
ATOM    159  H   THR d   1      -6.940  -3.824 -12.752  0.00  0.00     0.031 H 
ATOM    160  H   THR d   1      -6.264  -2.808 -14.070  0.00  0.00     0.031 H 
ENDBRANCH 153 157
ENDBRANCH 134 153
ENDBRANCH 132 134
ENDBRANCH 128 130
BRANCH 128 161
ATOM    161  CB  GLU d   1      -5.100  -4.654  -9.935  0.00  0.00    -0.029 C 
ATOM    162  H   GLU d   1      -4.936  -4.633 -11.023  0.00  0.00     0.037 H 
ATOM    163  H   GLU d   1      -6.148  -4.914  -9.727  0.00  0.00     0.037 H 
BRANCH 161 164
ATOM    164  CG  GLU d   1      -4.210  -5.731  -9.336  0.00  0.00     0.018 C 
ATOM    165  H   GLU d   1      -4.782  -6.668  -9.276  0.00  0.00     0.049 H 
ATOM    166  H   GLU d   1      -3.911  -5.419  -8.325  0.00  0.00     0.049 H 
BRANCH 164 167
ATOM    167  CD  GLU d   1      -2.960  -5.977 -10.158  0.00  0.00     0.172 C 
ATOM    168  OE1 GLU d   1      -2.384  -4.995 -10.672  0.00  0.00    -0.648 OA
ATOM    169  OE2 GLU d   1      -2.556  -7.152 -10.288  0.00  0.00    -0.648 OA
ENDBRANCH 164 167
ENDBRANCH 161 164
ENDBRANCH 128 161
ENDBRANCH 126 128
ENDBRANCH 122 124
BRANCH 122 170
ATOM    170  CB  PHE d   1      -5.666  -2.373  -5.006  0.00  0.00    -0.014 C 
ATOM    171  H   PHE d   1      -4.666  -1.918  -4.947  0.00  0.00     0.043 H 
ATOM    172  H   PHE d   1      -5.567  -3.461  -5.138  0.00  0.00     0.043 H 
BRANCH 170 173
ATOM    173  CG  PHE d   1      -6.383  -2.114  -3.712  0.00  0.00    -0.056 A 
ATOM    174  CD1 PHE d   1      -6.689  -0.820  -3.322  0.00  0.00    -0.077 A 
ATOM    175  CE1 PHE d   1      -7.350  -0.578  -2.132  0.00  0.00    -0.082 A 
ATOM    176  H   PHE d   1      -6.407   0.012  -3.957  0.00  0.00     0.084 H 
ATOM    177  CZ  PHE d   1      -7.711  -1.634  -1.318  0.00  0.00    -0.083 A 
ATOM    178  H   PHE d   1      -7.585   0.439  -1.838  0.00  0.00     0.083 H 
ATOM    179  CE2 PHE d   1      -7.411  -2.928  -1.696  0.00  0.00    -0.082 A 
ATOM    180  H   PHE d   1      -8.229  -1.447  -0.384  0.00  0.00     0.083 H 
ATOM    181  CD2 PHE d   1      -6.751  -3.164  -2.886  0.00  0.00    -0.077 A 
ATOM    182  H   PHE d   1      -7.694  -3.758  -1.059  0.00  0.00     0.083 H 
ATOM    183  H   PHE d   1      -6.518  -4.182  -3.177  0.00  0.00     0.084 H 
ENDBRANCH 170 173
ENDBRANCH 122 170
ENDBRANCH 120 122
ENDBRANCH 116 118
BRANCH 116 184
ATOM    184  CB  ILE d   1     -10.825  -2.701  -5.611  0.00  0.00    -0.030 C 
ATOM    185  H   ILE d   1     -11.744  -3.283  -5.774  0.00  0.00     0.043 H 
BRANCH 184 186
ATOM    186  CG1 ILE d   1     -11.220  -1.283  -5.193  0.00  0.00    -0.063 C 
ATOM    187  H   ILE d   1     -11.816  -0.835  -6.002  0.00  0.00     0.033 H 
ATOM    188  H   ILE d   1     -10.302  -0.695  -5.045  0.00  0.00     0.033 H 
BRANCH 186 189
ATOM    189  CD1 ILE d   1     -12.031  -1.232  -3.917  0.00  0.00    -0.076 C 
ATOM    190  H   ILE d   1     -12.277  -0.186  -3.680  0.00  0.00     0.027 H 
ATOM    191  H   ILE d   1     -11.446  -1.666  -3.093  0.00  0.00     0.027 H 
ATOM    192  H   ILE d   1     -12.960  -1.806  -4.050  0.00  0.00     0.027 H 
ENDBRANCH 186 189
ENDBRANCH 184 186
BRANCH 184 193
ATOM    193  CG2 ILE d   1     -10.018  -3.379  -4.513  0.00  0.00    -0.071 C 
ATOM    194  H   ILE d   1      -9.745  -4.395  -4.833  0.00  0.00     0.028 H 
ATOM    195  H   ILE d   1     -10.621  -3.434  -3.595  0.00  0.00     0.028 H 
ATOM    196  H   ILE d   1      -9.105  -2.798  -4.317  0.00  0.00     0.028 H 
ENDBRANCH 184 193
ENDBRANCH 116 184
ENDBRANCH 114 116
ENDBRANCH 110 112
BRANCH 110 197
ATOM    197  CB  TYR d   1      -9.993  -6.333  -9.471  0.00  0.00    -0.014 C 
ATOM    198  H   TYR d   1     -10.607  -5.537  -9.917  0.00  0.00     0.043 H 
ATOM    199  H   TYR d   1     -10.561  -6.829  -8.670  0.00  0.00     0.043 H 
BRANCH 197 200
ATOM    200  CG  TYR d   1      -9.685  -7.356 -10.542  0.00  0.00    -0.056 A 
ATOM    201  CD1 TYR d   1      -9.490  -6.970 -11.862  0.00  0.00    -0.074 A 
ATOM    202  CE1 TYR d   1      -9.208  -7.901 -12.843  0.00  0.00    -0.051 A 
ATOM    203  H   TYR d   1      -9.560  -5.921 -12.127  0.00  0.00     0.084 H 
ATOM    204  CZ  TYR d   1      -9.118  -9.236 -12.511  0.00  0.00     0.065 A 
ATOM    205  H   TYR d   1      -9.058  -7.583 -13.869  0.00  0.00     0.087 H 
ATOM    206  CE2 TYR d   1      -9.307  -9.644 -11.207  0.00  0.00    -0.051 A 
ATOM    207  CD2 TYR d   1      -9.589  -8.706 -10.232  0.00  0.00    -0.074 A 
ATOM    208  H   TYR d   1      -9.235 -10.694 -10.948  0.00  0.00     0.087 H 
ATOM    209  H   TYR d   1      -9.738  -9.030  -9.208  0.00  0.00     0.084 H 
BRANCH 204 210
ATOM    210  OH  TYR d   1      -8.837 -10.166 -13.485  0.00  0.00    -0.361 OA
ATOM    211  H   TYR d   1      -8.736  -9.726 -14.321  0.00  0.00     0.217 HD
ENDBRANCH 204 210
ENDBRANCH 197 200
ENDBRANCH 110 197
ENDBRANCH   3 110
TORSDOF 61
