REMARK  5 active torsions:
REMARK  status: ('A' for Active; 'I' for Inactive)
REMARK    1  A    between atoms: S2_1  and  C5_2 
REMARK    2  A    between atoms: C10_4  and  C11_8 
REMARK       I    between atoms: C11_8  and  N3_10 
REMARK    3  A    between atoms: N3_10  and  C12_11 
REMARK    4  A    between atoms: C12_11  and  C13_12 
REMARK       I    between atoms: C13_12  and  N4_14 
REMARK    5  A    between atoms: N4_14  and  C14_15 
ROOT
ATOM      1  C14 2W7 d   1      26.963  16.729  10.347  0.00  0.00     0.034 C 
ATOM      2  C18 2W7 d   1      25.858  15.767   9.951  0.00  0.00    -0.038 C 
ATOM      3  C17 2W7 d   1      26.383  14.340   9.990  0.00  0.00    -0.051 C 
ATOM      4  C19 2W7 d   1      27.545  14.198   9.018  0.00  0.00    -0.058 C 
ATOM      5  C23 2W7 d   1      28.652  15.158   9.422  0.00  0.00    -0.051 C 
ATOM      6  C24 2W7 d   1      28.129  16.582   9.387  0.00  0.00    -0.038 C 
ATOM      7  C25 2W7 d   1      29.123  14.832  10.830  0.00  0.00    -0.058 C 
ATOM      8  C20 2W7 d   1      27.963  14.974  11.799  0.00  0.00    -0.051 C 
ATOM      9  C26 2W7 d   1      27.431  16.399  11.759  0.00  0.00    -0.038 C 
ATOM     10  C16 2W7 d   1      26.858  14.014  11.399  0.00  0.00    -0.058 C 
ATOM     11  H10 2W7 d   1      25.515  16.003   8.933  0.00  0.00     0.037 H 
ATOM     12  H11 2W7 d   1      25.017  15.867  10.653  0.00  0.00     0.037 H 
ATOM     13  H12 2W7 d   1      25.579  13.646   9.704  0.00  0.00     0.040 H 
ATOM     14  H13 2W7 d   1      27.204  14.436   8.000  0.00  0.00     0.034 H 
ATOM     15  H14 2W7 d   1      27.924  13.166   9.046  0.00  0.00     0.034 H 
ATOM     16  H15 2W7 d   1      29.494  15.059   8.722  0.00  0.00     0.040 H 
ATOM     17  H16 2W7 d   1      28.933  17.273   9.681  0.00  0.00     0.037 H 
ATOM     18  H17 2W7 d   1      27.794  16.822   8.367  0.00  0.00     0.037 H 
ATOM     19  H18 2W7 d   1      29.927  15.525  11.117  0.00  0.00     0.034 H 
ATOM     20  H19 2W7 d   1      29.501  13.800  10.860  0.00  0.00     0.034 H 
ATOM     21  H20 2W7 d   1      28.305  14.739  12.818  0.00  0.00     0.040 H 
ATOM     22  H21 2W7 d   1      26.586  16.494  12.457  0.00  0.00     0.037 H 
ATOM     23  H22 2W7 d   1      28.229  17.096  12.053  0.00  0.00     0.037 H 
ATOM     24  H23 2W7 d   1      27.241  12.983  11.427  0.00  0.00     0.034 H 
ATOM     25  H24 2W7 d   1      26.017  14.112  12.101  0.00  0.00     0.034 H 
ENDROOT
BRANCH   1  26
ATOM     26  N4  2W7 d   1      26.468  18.113  10.292  0.00  0.00    -0.350 N 
ATOM     27  C13 2W7 d   1      25.400  18.491  11.009  0.00  0.00     0.235 C 
ATOM     28  O3  2W7 d   1      24.816  17.760  11.809  0.00  0.00    -0.272 OA
ATOM     29  H9  2W7 d   1      26.934  18.781   9.712  0.00  0.00     0.163 HD
BRANCH  27  30
ATOM     30  C12 2W7 d   1      24.947  19.932  10.766  0.00  0.00     0.069 C 
ATOM     31  H7  2W7 d   1      25.448  20.595  11.486  0.00  0.00     0.078 H 
ATOM     32  H8  2W7 d   1      25.220  20.229   9.743  0.00  0.00     0.078 H 
BRANCH  30  33
ATOM     33  N3  2W7 d   1      23.491  20.050  10.932  0.00  0.00    -0.348 N 
ATOM     34  C11 2W7 d   1      22.943  20.875  11.837  0.00  0.00     0.253 C 
ATOM     35  O2  2W7 d   1      23.465  21.160  12.921  0.00  0.00    -0.268 OA
ATOM     36  H6  2W7 d   1      22.891  19.498  10.353  0.00  0.00     0.163 HD
BRANCH  34  37
ATOM     37  C10 2W7 d   1      21.726  21.437  11.452  0.00  0.00     0.048 A 
ATOM     38  C5  2W7 d   1      20.583  21.279  12.240  0.00  0.00     0.013 A 
ATOM     39  C6  2W7 d   1      19.385  21.888  11.852  0.00  0.00    -0.066 A 
ATOM     40  C7  2W7 d   1      19.331  22.641  10.685  0.00  0.00    -0.082 A 
ATOM     41  H2  2W7 d   1      18.497  21.772  12.463  0.00  0.00     0.085 H 
ATOM     42  C8  2W7 d   1      20.468  22.792   9.901  0.00  0.00    -0.082 A 
ATOM     43  H3  2W7 d   1      18.401  23.111  10.386  0.00  0.00     0.083 H 
ATOM     44  C9  2W7 d   1      21.662  22.191  10.283  0.00  0.00    -0.066 A 
ATOM     45  H4  2W7 d   1      20.424  23.379   8.991  0.00  0.00     0.083 H 
ATOM     46  H5  2W7 d   1      22.547  22.310   9.668  0.00  0.00     0.085 H 
BRANCH  38  47
ATOM     47  S2  2W7 d   1      20.645  20.294  13.691  0.00  0.00    -0.142 SA
ATOM     48  H1  2W7 d   1      20.000  19.524  13.601  0.00  0.00     0.107 HD
ENDBRANCH  38  47
ENDBRANCH  34  37
ENDBRANCH  30  33
ENDBRANCH  27  30
ENDBRANCH   1  26
TORSDOF 5
