REMARK WARNING: 32 MAX_TORS EXCEEDED!!!
REMARK  51 active torsions:
REMARK  status: ('A' for Active; 'I' for Inactive)
REMARK    1  A    between atoms: N_1  and  CA_2 
REMARK    2  A    between atoms: CA_2  and  C_3 
REMARK    3  A    between atoms: CA_2  and  CB_5 
REMARK       I    between atoms: C_3  and  N_6 
REMARK    4  A    between atoms: N_6  and  CA_7 
REMARK    5  A    between atoms: CA_7  and  C_8 
REMARK    6  A    between atoms: CA_7  and  CB_10 
REMARK       I    between atoms: C_8  and  N_17 
REMARK    7  A    between atoms: CB_10  and  CG_11 
REMARK    8  A    between atoms: CG_11  and  CD_12 
REMARK    9  A    between atoms: CD_12  and  NE_13 
REMARK       I    between atoms: NE_13  and  CZ_14 
REMARK       I    between atoms: CZ_14  and  NH1_15 
REMARK       I    between atoms: CZ_14  and  NH2_16 
REMARK   10  A    between atoms: N_17  and  CA_18 
REMARK   11  A    between atoms: CA_18  and  C_19 
REMARK   12  A    between atoms: CA_18  and  CB_21 
REMARK       I    between atoms: C_19  and  N_24 
REMARK   13  A    between atoms: CB_21  and  OG1_22 
REMARK   14  A    between atoms: CB_21  and  CG2_23 
REMARK   15  A    between atoms: N_24  and  CA_25 
REMARK   16  A    between atoms: CA_25  and  C_26 
REMARK   17  A    between atoms: CA_25  and  CB_28 
REMARK       I    between atoms: C_26  and  N_33 
REMARK   18  A    between atoms: CB_28  and  CG_29 
REMARK   19  A    between atoms: CG_29  and  CD_30 
REMARK   20  A    between atoms: CD_30  and  CE_31 
REMARK   21  A    between atoms: CE_31  and  NZ_32 
REMARK   22  A    between atoms: N_33  and  CA_34 
REMARK   23  A    between atoms: CA_34  and  C_35 
REMARK   24  A    between atoms: CA_34  and  CB_37 
REMARK       I    between atoms: C_35  and  N_42 
REMARK   25  A    between atoms: CB_37  and  CG_38 
REMARK   26  A    between atoms: CG_38  and  CD_39 
REMARK       I    between atoms: CD_39  and  NE2_41 
REMARK   27  A    between atoms: N_42  and  CA_43 
REMARK   28  A    between atoms: CA_43  and  C_44 
REMARK   29  A    between atoms: CA_43  and  CB_46 
REMARK       I    between atoms: C_44  and  N_49 
REMARK   30  A    between atoms: CB_46  and  OG1_47 
REMARK   31  A    between atoms: CB_46  and  CG2_48 
REMARK   32  A    between atoms: N_49  and  CA_50 
REMARK   33  A    between atoms: CA_50  and  C_51 
REMARK   34  A    between atoms: CA_50  and  CB_53 
REMARK       I    between atoms: C_51  and  N_54 
REMARK   35  A    between atoms: N_54  and  CA_55 
REMARK   36  A    between atoms: CA_55  and  C_56 
REMARK   37  A    between atoms: CA_55  and  CB_58 
REMARK       I    between atoms: C_56  and  N_65 
REMARK   38  A    between atoms: CB_58  and  CG_59 
REMARK   39  A    between atoms: CG_59  and  CD_60 
REMARK   40  A    between atoms: CD_60  and  NE_61 
REMARK       I    between atoms: NE_61  and  CZ_62 
REMARK       I    between atoms: CZ_62  and  NH1_63 
REMARK   41  A    between atoms: N_65  and  CA_66 
REMARK   42  A    between atoms: CA_66  and  C_67 
REMARK   43  A    between atoms: CA_66  and  CB_69 
REMARK       I    between atoms: C_67  and  N_74 
REMARK   44  A    between atoms: CB_69  and  CG_70 
REMARK   45  A    between atoms: CG_70  and  CD_71 
REMARK   46  A    between atoms: CD_71  and  CE_72 
REMARK   47  A    between atoms: CE_72  and  NZ_73 
REMARK   48  A    between atoms: N_74  and  CA_75 
REMARK   49  A    between atoms: CA_75  and  C_76 
REMARK   50  A    between atoms: CA_75  and  CB_78 
REMARK   51  A    between atoms: CB_78  and  OG_79 
ROOT
ATOM      1  CA  GLN d   1       9.335   0.569   1.635  0.00  0.00     0.090 C 
ATOM      2  H   GLN d   1       8.790   1.438   1.237  0.00  0.00     0.087 H 
ENDROOT
BRANCH   1   3
ATOM      3  N   GLN d   1       8.362  -0.449   2.129  0.00  0.00    -0.346 N 
ATOM      4  C   LYS d   1       7.089  -0.159   2.204  0.00  0.00     0.241 C 
ATOM      5  O   LYS d   1       6.664   0.935   1.877  0.00  0.00    -0.271 OA
ATOM      6  H   GLN d   1       8.684  -1.355   2.403  0.00  0.00     0.163 HD
BRANCH   4   7
ATOM      7  CA  LYS d   1       6.147  -1.242   2.737  0.00  0.00     0.089 C 
ATOM      8  H   LYS d   1       6.716  -1.968   3.337  0.00  0.00     0.087 H 
BRANCH   7   9
ATOM      9  N   LYS d   1       5.118  -0.585   3.587  0.00  0.00    -0.346 N 
ATOM     10  C   THR d   1       4.830  -1.060   4.770  0.00  0.00     0.243 C 
ATOM     11  O   THR d   1       5.385  -2.043   5.216  0.00  0.00    -0.271 OA
ATOM     12  H   LYS d   1       4.642   0.228   3.250  0.00  0.00     0.163 HD
BRANCH  10  13
ATOM     13  CA  THR d   1       3.781  -0.292   5.576  0.00  0.00     0.113 C 
ATOM     14  H   THR d   1       3.179   0.319   4.888  0.00  0.00     0.091 H 
BRANCH  13  15
ATOM     15  N   THR d   1       2.879  -1.221   6.314  0.00  0.00    -0.344 N 
ATOM     16  C   ARG d   1       1.919  -1.846   5.687  0.00  0.00     0.241 C 
ATOM     17  O   ARG d   1       1.735  -1.690   4.497  0.00  0.00    -0.271 OA
ATOM     18  H   THR d   1       3.010  -1.367   7.295  0.00  0.00     0.163 HD
BRANCH  16  19
ATOM     19  CA  ARG d   1       1.008  -2.747   6.525  0.00  0.00     0.089 C 
ATOM     20  H   ARG d   1       1.111  -2.477   7.586  0.00  0.00     0.087 H 
BRANCH  19  21
ATOM     21  N   ARG d   1      -0.401  -2.544   6.091  0.00  0.00    -0.346 N 
ATOM     22  C   ALA d   1      -1.259  -1.997   6.905  0.00  0.00     0.248 C 
ATOM     23  O   ALA d   1      -0.942  -1.644   8.023  0.00  0.00    -0.271 OA
ATOM     24  H   ARG d   1      -0.689  -2.827   5.176  0.00  0.00     0.163 HD
BRANCH  22  25
ATOM     25  CA  ALA d   1      -2.682  -1.811   6.397  0.00  0.00     0.172 C 
ATOM     26  H   ALA d   1      -2.931  -2.620   5.694  0.00  0.00     0.098 H 
BRANCH  25  27
ATOM     27  N   ALA d   1      -3.627  -1.848   7.547  0.00  0.00    -0.067 N 
ATOM     28  H   ALA d   1      -4.569  -1.725   7.212  0.00  0.00     0.275 HD
ATOM     29  H   ALA d   1      -3.401  -1.107   8.192  0.00  0.00     0.275 HD
ATOM     30  H   ALA d   1      -3.551  -2.737   8.016  0.00  0.00     0.275 HD
ENDBRANCH  25  27
BRANCH  25  31
ATOM     31  CB  ALA d   1      -2.783  -0.462   5.679  0.00  0.00    -0.042 C 
ATOM     32  H   ALA d   1      -2.082  -0.444   4.832  0.00  0.00     0.030 H 
ATOM     33  H   ALA d   1      -2.531   0.347   6.381  0.00  0.00     0.030 H 
ATOM     34  H   ALA d   1      -3.809  -0.320   5.309  0.00  0.00     0.030 H 
ENDBRANCH  25  31
ENDBRANCH  22  25
ENDBRANCH  19  21
BRANCH  19  35
ATOM     35  CB  ARG d   1       1.370  -4.220   6.345  0.00  0.00    -0.036 C 
ATOM     36  H   ARG d   1       2.450  -4.357   6.499  0.00  0.00     0.036 H 
ATOM     37  H   ARG d   1       1.100  -4.546   5.330  0.00  0.00     0.036 H 
BRANCH  35  38
ATOM     38  CG  ARG d   1       0.595  -5.044   7.374  0.00  0.00    -0.048 C 
ATOM     39  H   ARG d   1      -0.416  -4.626   7.490  0.00  0.00     0.035 H 
ATOM     40  H   ARG d   1       1.120  -5.009   8.340  0.00  0.00     0.035 H 
BRANCH  38  41
ATOM     41  CD  ARG d   1       0.493  -6.494   6.904  0.00  0.00     0.009 C 
ATOM     42  H   ARG d   1       0.077  -6.520   5.886  0.00  0.00     0.064 H 
ATOM     43  H   ARG d   1      -0.166  -7.054   7.584  0.00  0.00     0.064 H 
BRANCH  41  44
ATOM     44  NE  ARG d   1       1.846  -7.116   6.902  0.00  0.00    -0.227 N 
ATOM     45  CZ  ARG d   1       2.098  -8.126   6.113  0.00  0.00     0.665 C 
ATOM     46  NH1 ARG d   1       1.163  -8.591   5.328  0.00  0.00    -0.235 N 
ATOM     47  NH2 ARG d   1       3.283  -8.671   6.108  0.00  0.00    -0.235 N 
ATOM     48  H   ARG d   1       1.362  -9.387   4.706  0.00  0.00     0.174 HD
ATOM     49  H   ARG d   1       0.227  -8.161   5.331  0.00  0.00     0.174 HD
ATOM     50  H   ARG d   1       4.021  -8.305   6.727  0.00  0.00     0.174 HD
ATOM     51  H   ARG d   1       3.481  -9.467   5.486  0.00  0.00     0.174 HD
ATOM     52  H   ARG d   1       2.583  -6.750   7.522  0.00  0.00     0.177 HD
ENDBRANCH  41  44
ENDBRANCH  38  41
ENDBRANCH  35  38
ENDBRANCH  19  35
ENDBRANCH  16  19
ENDBRANCH  13  15
BRANCH  13  53
ATOM     53  CB  THR d   1       4.490   0.624   6.580  0.00  0.00     0.060 C 
ATOM     54  H   THR d   1       4.610   0.093   7.536  0.00  0.00     0.086 H 
BRANCH  53  55
ATOM     55  OG1 THR d   1       3.709   1.791   6.786  0.00  0.00    -0.393 OA
ATOM     56  H   THR d   1       4.148   2.359   7.408  0.00  0.00     0.210 HD
ENDBRANCH  53  55
BRANCH  53  57
ATOM     57  CG2 THR d   1       5.868   1.014   6.043  0.00  0.00    -0.050 C 
ATOM     58  H   THR d   1       6.371   1.671   6.768  0.00  0.00     0.031 H 
ATOM     59  H   THR d   1       5.752   1.544   5.086  0.00  0.00     0.031 H 
ATOM     60  H   THR d   1       6.472   0.107   5.889  0.00  0.00     0.031 H 
ENDBRANCH  53  57
ENDBRANCH  13  53
ENDBRANCH  10  13
ENDBRANCH   7   9
BRANCH   7  61
ATOM     61  CB  LYS d   1       5.474  -1.965   1.566  0.00  0.00    -0.038 C 
ATOM     62  H   LYS d   1       5.707  -1.439   0.629  0.00  0.00     0.036 H 
ATOM     63  H   LYS d   1       4.385  -1.975   1.720  0.00  0.00     0.036 H 
BRANCH  61  64
ATOM     64  CG  LYS d   1       5.989  -3.404   1.483  0.00  0.00    -0.061 C 
ATOM     65  H   LYS d   1       7.074  -3.417   1.661  0.00  0.00     0.033 H 
ATOM     66  H   LYS d   1       5.777  -3.813   0.484  0.00  0.00     0.033 H 
BRANCH  64  67
ATOM     67  CD  LYS d   1       5.287  -4.255   2.544  0.00  0.00    -0.043 C 
ATOM     68  H   LYS d   1       4.212  -4.311   2.317  0.00  0.00     0.035 H 
ATOM     69  H   LYS d   1       5.429  -3.797   3.534  0.00  0.00     0.035 H 
BRANCH  67  70
ATOM     70  CE  LYS d   1       5.882  -5.663   2.544  0.00  0.00     0.080 C 
ATOM     71  H   LYS d   1       5.549  -6.203   1.645  0.00  0.00     0.075 H 
ATOM     72  H   LYS d   1       5.547  -6.204   3.441  0.00  0.00     0.075 H 
BRANCH  70  73
ATOM     73  NZ  LYS d   1       7.370  -5.569   2.546  0.00  0.00    -0.079 N 
ATOM     74  H   LYS d   1       7.765  -6.496   2.546  0.00  0.00     0.274 HD
ATOM     75  H   LYS d   1       7.674  -5.074   3.370  0.00  0.00     0.274 HD
ATOM     76  H   LYS d   1       7.676  -5.073   1.724  0.00  0.00     0.274 HD
ENDBRANCH  70  73
ENDBRANCH  67  70
ENDBRANCH  64  67
ENDBRANCH  61  64
ENDBRANCH   7  61
ENDBRANCH   4   7
ENDBRANCH   1   3
BRANCH   1  77
ATOM     77  C   GLN d   1      10.210  -0.035   0.538  0.00  0.00     0.241 C 
ATOM     78  O   GLN d   1      10.413  -1.232   0.483  0.00  0.00    -0.271 OA
ATOM     79  N   THR d   1      10.741   0.783  -0.332  0.00  0.00    -0.344 N 
ATOM     80  H   THR d   1      10.564   1.766  -0.274  0.00  0.00     0.163 HD
BRANCH  79  81
ATOM     81  CA  THR d   1      11.614   0.236  -1.413  0.00  0.00     0.113 C 
ATOM     82  H   THR d   1      12.043  -0.722  -1.083  0.00  0.00     0.091 H 
BRANCH  81  83
ATOM     83  C   THR d   1      12.746   1.219  -1.717  0.00  0.00     0.243 C 
ATOM     84  O   THR d   1      12.517   2.387  -1.968  0.00  0.00    -0.271 OA
ATOM     85  N   ALA d   1      13.965   0.754  -1.712  0.00  0.00    -0.346 N 
ATOM     86  H   ALA d   1      14.131  -0.211  -1.507  0.00  0.00     0.163 HD
BRANCH  85  87
ATOM     87  CA  ALA d   1      15.110   1.659  -2.011  0.00  0.00     0.086 C 
ATOM     88  H   ALA d   1      14.757   2.512  -2.609  0.00  0.00     0.086 H 
BRANCH  87  89
ATOM     89  C   ALA d   1      16.175   0.892  -2.796  0.00  0.00     0.240 C 
ATOM     90  O   ALA d   1      16.292  -0.312  -2.682  0.00  0.00    -0.271 OA
ATOM     91  N   ARG d   1      16.951   1.580  -3.590  0.00  0.00    -0.346 N 
ATOM     92  H   ARG d   1      16.835   2.570  -3.665  0.00  0.00     0.163 HD
BRANCH  91  93
ATOM     93  CA  ARG d   1      18.010   0.893  -4.386  0.00  0.00     0.089 C 
ATOM     94  H   ARG d   1      18.055  -0.168  -4.100  0.00  0.00     0.087 H 
BRANCH  93  95
ATOM     95  C   ARG d   1      19.363   1.554  -4.112  0.00  0.00     0.241 C 
ATOM     96  O   ARG d   1      19.450   2.748  -3.902  0.00  0.00    -0.271 OA
ATOM     97  N   LYS d   1      20.419   0.785  -4.117  0.00  0.00    -0.346 N 
ATOM     98  H   LYS d   1      20.321  -0.195  -4.293  0.00  0.00     0.163 HD
BRANCH  97  99
ATOM     99  CA  LYS d   1      21.769   1.363  -3.861  0.00  0.00     0.089 C 
ATOM    100  H   LYS d   1      21.665   2.399  -3.507  0.00  0.00     0.087 H 
BRANCH  99 101
ATOM    101  C   LYS d   1      22.582   1.343  -5.156  0.00  0.00     0.241 C 
ATOM    102  O   LYS d   1      22.451   0.449  -5.969  0.00  0.00    -0.271 OA
ATOM    103  N   SER d   1      23.422   2.320  -5.356  0.00  0.00    -0.343 N 
ATOM    104  H   SER d   1      23.516   3.046  -4.675  0.00  0.00     0.163 HD
BRANCH 103 105
ATOM    105  CA  SER d   1      24.242   2.355  -6.600  0.00  0.00     0.116 C 
ATOM    106  H   SER d   1      24.820   1.423  -6.684  0.00  0.00     0.093 H 
BRANCH 105 107
ATOM    107  C   SER d   1      25.200   3.546  -6.546  0.00  0.00     0.198 C 
ATOM    108  O   SER d   1      26.394   3.328  -6.672  0.00  0.00    -0.646 OA
ATOM    109  OXT SER d   1      24.724   4.657  -6.381  0.00  0.00    -0.646 OA
ENDBRANCH 105 107
BRANCH 105 110
ATOM    110  CB  SER d   1      23.322   2.495  -7.814  0.00  0.00     0.045 C 
ATOM    111  H   SER d   1      22.978   1.500  -8.132  0.00  0.00     0.077 H 
ATOM    112  H   SER d   1      23.871   2.974  -8.638  0.00  0.00     0.077 H 
BRANCH 110 113
ATOM    113  OG  SER d   1      22.201   3.295  -7.462  0.00  0.00    -0.398 OA
ATOM    114  H   SER d   1      22.500   4.154  -7.187  0.00  0.00     0.209 HD
ENDBRANCH 110 113
ENDBRANCH 105 110
ENDBRANCH 103 105
ENDBRANCH  99 101
BRANCH  99 115
ATOM    115  CB  LYS d   1      22.489   0.529  -2.797  0.00  0.00    -0.038 C 
ATOM    116  H   LYS d   1      23.434   1.022  -2.526  0.00  0.00     0.036 H 
ATOM    117  H   LYS d   1      22.700  -0.472  -3.200  0.00  0.00     0.036 H 
BRANCH 115 118
ATOM    118  CG  LYS d   1      21.609   0.398  -1.547  0.00  0.00    -0.061 C 
ATOM    119  H   LYS d   1      22.096  -0.276  -0.827  0.00  0.00     0.033 H 
ATOM    120  H   LYS d   1      20.630  -0.014  -1.832  0.00  0.00     0.033 H 
BRANCH 118 121
ATOM    121  CD  LYS d   1      21.413   1.774  -0.902  0.00  0.00    -0.043 C 
ATOM    122  H   LYS d   1      20.697   2.360  -1.497  0.00  0.00     0.035 H 
ATOM    123  H   LYS d   1      22.377   2.302  -0.864  0.00  0.00     0.035 H 
BRANCH 121 124
ATOM    124  CE  LYS d   1      20.872   1.596   0.517  0.00  0.00     0.080 C 
ATOM    125  H   LYS d   1      21.633   1.105   1.141  0.00  0.00     0.075 H 
ATOM    126  H   LYS d   1      19.965   0.975   0.488  0.00  0.00     0.075 H 
BRANCH 124 127
ATOM    127  NZ  LYS d   1      20.542   2.930   1.095  0.00  0.00    -0.079 N 
ATOM    128  H   LYS d   1      20.185   2.812   2.030  0.00  0.00     0.274 HD
ATOM    129  H   LYS d   1      19.844   3.380   0.524  0.00  0.00     0.274 HD
ATOM    130  H   LYS d   1      21.373   3.500   1.122  0.00  0.00     0.274 HD
ENDBRANCH 124 127
ENDBRANCH 121 124
ENDBRANCH 118 121
ENDBRANCH 115 118
ENDBRANCH  99 115
ENDBRANCH  97  99
ENDBRANCH  93  95
BRANCH  93 131
ATOM    131  CB  ARG d   1      17.681   1.008  -5.877  0.00  0.00    -0.036 C 
ATOM    132  H   ARG d   1      18.497   0.566  -6.468  0.00  0.00     0.036 H 
ATOM    133  H   ARG d   1      17.566   2.068  -6.146  0.00  0.00     0.036 H 
BRANCH 131 134
ATOM    134  CG  ARG d   1      16.377   0.263  -6.172  0.00  0.00    -0.048 C 
ATOM    135  H   ARG d   1      15.547   0.752  -5.641  0.00  0.00     0.035 H 
ATOM    136  H   ARG d   1      16.466  -0.780  -5.833  0.00  0.00     0.035 H 
BRANCH 134 137
ATOM    137  CD  ARG d   1      16.104   0.288  -7.676  0.00  0.00     0.009 C 
ATOM    138  H   ARG d   1      16.850  -0.333  -8.195  0.00  0.00     0.064 H 
ATOM    139  H   ARG d   1      16.169   1.323  -8.043  0.00  0.00     0.064 H 
BRANCH 137 140
ATOM    140  NE  ARG d   1      14.740  -0.249  -7.941  0.00  0.00    -0.227 N 
ATOM    141  CZ  ARG d   1      13.689   0.465  -7.642  0.00  0.00     0.665 C 
ATOM    142  NH1 ARG d   1      13.832   1.648  -7.110  0.00  0.00    -0.235 N 
ATOM    143  NH2 ARG d   1      12.493  -0.005  -7.874  0.00  0.00    -0.235 N 
ATOM    144  H   ARG d   1      13.002   2.211  -6.875  0.00  0.00     0.174 HD
ATOM    145  H   ARG d   1      14.775   2.019  -6.926  0.00  0.00     0.174 HD
ATOM    146  H   ARG d   1      12.379  -0.939  -8.294  0.00  0.00     0.174 HD
ATOM    147  H   ARG d   1      11.664   0.558  -7.637  0.00  0.00     0.174 HD
ATOM    148  H   ARG d   1      14.626  -1.183  -8.360  0.00  0.00     0.177 HD
ENDBRANCH 137 140
ENDBRANCH 134 137
ENDBRANCH 131 134
ENDBRANCH  93 131
ENDBRANCH  91  93
ENDBRANCH  87  89
BRANCH  87 149
ATOM    149  CB  ALA d   1      15.712   2.170  -0.699  0.00  0.00    -0.049 C 
ATOM    150  H   ALA d   1      16.558   2.838  -0.919  0.00  0.00     0.030 H 
ATOM    151  H   ALA d   1      16.065   1.317  -0.101  0.00  0.00     0.030 H 
ATOM    152  H   ALA d   1      14.946   2.722  -0.134  0.00  0.00     0.030 H 
ENDBRANCH  87 149
ENDBRANCH  85  87
ENDBRANCH  81  83
BRANCH  81 153
ATOM    153  CB  THR d   1      10.788   0.011  -2.678  0.00  0.00     0.060 C 
ATOM    154  H   THR d   1      10.510   0.983  -3.111  0.00  0.00     0.086 H 
BRANCH 153 155
ATOM    155  OG1 THR d   1       9.611  -0.715  -2.353  0.00  0.00    -0.393 OA
ATOM    156  H   THR d   1       9.099  -0.221  -1.724  0.00  0.00     0.210 HD
ENDBRANCH 153 155
BRANCH 153 157
ATOM    157  CG2 THR d   1      11.613  -0.780  -3.694  0.00  0.00    -0.050 C 
ATOM    158  H   THR d   1      11.017  -0.941  -4.604  0.00  0.00     0.031 H 
ATOM    159  H   THR d   1      11.893  -1.752  -3.262  0.00  0.00     0.031 H 
ATOM    160  H   THR d   1      12.523  -0.216  -3.947  0.00  0.00     0.031 H 
ENDBRANCH 153 157
ENDBRANCH  81 153
ENDBRANCH  79  81
ENDBRANCH   1  77
BRANCH   1 161
ATOM    161  CB  GLN d   1      10.231   1.004   2.795  0.00  0.00    -0.030 C 
ATOM    162  H   GLN d   1       9.606   1.306   3.648  0.00  0.00     0.037 H 
ATOM    163  H   GLN d   1      10.855   1.853   2.478  0.00  0.00     0.037 H 
BRANCH 161 164
ATOM    164  CG  GLN d   1      11.130  -0.164   3.209  0.00  0.00     0.011 C 
ATOM    165  H   GLN d   1      11.884  -0.340   2.428  0.00  0.00     0.047 H 
ATOM    166  H   GLN d   1      10.518  -1.069   3.339  0.00  0.00     0.047 H 
BRANCH 164 167
ATOM    167  CD  GLN d   1      11.829   0.172   4.526  0.00  0.00     0.215 C 
ATOM    168  OE1 GLN d   1      11.227   0.730   5.424  0.00  0.00    -0.274 OA
ATOM    169  NE2 GLN d   1      13.085  -0.147   4.685  0.00  0.00    -0.370 N 
ATOM    170  H   GLN d   1      13.551   0.069   5.543  0.00  0.00     0.159 HD
ATOM    171  H   GLN d   1      13.581  -0.607   3.949  0.00  0.00     0.159 HD
ENDBRANCH 164 167
ENDBRANCH 161 164
ENDBRANCH   1 161
TORSDOF 51
