REMARK  8 active torsions:
REMARK  status: ('A' for Active; 'I' for Inactive)
REMARK    1  A    between atoms: N_1  and  CA_2 
REMARK    2  A    between atoms: CA_2  and  C_3 
REMARK    3  A    between atoms: CA_2  and  CB_5 
REMARK    4  A    between atoms: CB_5  and  CG_6 
REMARK    5  A    between atoms: CG_6  and  CD_7 
REMARK    6  A    between atoms: CD_7  and  NE_8 
REMARK    7  A    between atoms: C4_12  and  O4_13 
REMARK    8  A    between atoms: C3_14  and  C6_15 
ROOT
ATOM      1  CD  IOR d   1      12.440  -4.274  -7.516  0.00  0.00     0.009 C 
ATOM      2  H9  IOR d   1      13.461  -4.676  -7.436  0.00  0.00     0.064 H 
ATOM      3  H10 IOR d   1      12.450  -3.199  -7.283  0.00  0.00     0.064 H 
ENDROOT
BRANCH   1   4
ATOM      4  CG  IOR d   1      11.530  -4.987  -6.642  0.00  0.00    -0.047 C 
ATOM      5  H7  IOR d   1      11.563  -6.050  -6.923  0.00  0.00     0.035 H 
ATOM      6  H8  IOR d   1      11.897  -4.869  -5.612  0.00  0.00     0.035 H 
BRANCH   4   7
ATOM      7  CB  IOR d   1      10.079  -4.552  -6.664  0.00  0.00    -0.028 C 
ATOM      8  H5  IOR d   1       9.927  -3.798  -7.450  0.00  0.00     0.036 H 
ATOM      9  H6  IOR d   1       9.432  -5.420  -6.858  0.00  0.00     0.036 H 
BRANCH   7  10
ATOM     10  CA  IOR d   1       9.735  -3.929  -5.247  0.00  0.00     0.182 C 
ATOM     11  H4  IOR d   1       8.709  -3.533  -5.226  0.00  0.00     0.101 H 
BRANCH  10  12
ATOM     12  N   IOR d   1      10.688  -2.857  -4.946  0.00  0.00    -0.065 N 
ATOM     13  H1  IOR d   1      10.566  -2.104  -5.605  0.00  0.00     0.275 HD
ATOM     14  H2  IOR d   1      11.628  -3.214  -5.014  0.00  0.00     0.275 HD
ATOM     15  H3  IOR d   1      10.525  -2.515  -4.012  0.00  0.00     0.275 HD
ENDBRANCH  10  12
BRANCH  10  16
ATOM     16  C   IOR d   1       9.885  -5.072  -4.284  0.00  0.00     0.204 C 
ATOM     17  O   IOR d   1       9.148  -5.126  -3.294  0.00  0.00    -0.646 OA
ATOM     18  O1  IOR d   1      10.752  -5.965  -4.483  0.00  0.00    -0.646 OA
ENDBRANCH  10  16
ENDBRANCH   7  10
ENDBRANCH   4   7
ENDBRANCH   1   4
BRANCH   1  19
ATOM     19  NE  IOR d   1      11.893  -4.513  -8.818  0.00  0.00    -0.227 N 
ATOM     20  C1  IOR d   1      11.281  -3.511  -9.457  0.00  0.00     0.672 C 
ATOM     21  N5  IOR d   1      11.180  -2.258  -8.910  0.00  0.00    -0.198 N 
ATOM     22  N2  IOR d   1      10.660  -3.556 -10.720  0.00  0.00    -0.218 N 
ATOM     23  C4  IOR d   1      10.246  -1.587  -9.717  0.00  0.00     0.136 C 
ATOM     24  H11 IOR d   1      11.679  -1.889  -8.088  0.00  0.00     0.180 HD
ATOM     25  C3  IOR d   1      10.308  -2.227 -11.079  0.00  0.00     0.065 C 
ATOM     26  H13 IOR d   1       9.264  -1.867  -9.308  0.00  0.00     0.121 H 
ATOM     27  H15 IOR d   1       9.361  -2.160 -11.634  0.00  0.00     0.079 H 
ATOM     28  H12 IOR d   1      10.491  -4.402 -11.283  0.00  0.00     0.178 HD
ATOM     29  H19 IOR d   1      11.970  -5.442  -9.255  0.00  0.00     0.177 HD
BRANCH  23  30
ATOM     30  O4  IOR d   1      10.217  -0.174  -9.683  0.00  0.00    -0.374 OA
ATOM     31  H14 IOR d   1       9.543   0.142 -10.273  0.00  0.00     0.212 HD
ENDBRANCH  23  30
BRANCH  25  32
ATOM     32  C6  IOR d   1      11.474  -1.617 -11.871  0.00  0.00    -0.053 C 
ATOM     33  H16 IOR d   1      11.222  -0.586 -12.159  0.00  0.00     0.030 H 
ATOM     34  H17 IOR d   1      11.656  -2.216 -12.775  0.00  0.00     0.030 H 
ATOM     35  H18 IOR d   1      12.379  -1.612 -11.246  0.00  0.00     0.030 H 
ENDBRANCH  25  32
ENDBRANCH   1  19
TORSDOF 8
