REMARK WARNING: 32 MAX_TORS EXCEEDED!!!
REMARK  49 active torsions:
REMARK  status: ('A' for Active; 'I' for Inactive)
REMARK    1  A    between atoms: N_1  and  CA_2 
REMARK    2  A    between atoms: CA_2  and  C_3 
REMARK    3  A    between atoms: CA_2  and  CB_5 
REMARK       I    between atoms: C_3  and  N_9 
REMARK    4  A    between atoms: CB_5  and  CG_6 
REMARK    5  A    between atoms: N_9  and  CA_10 
REMARK    6  A    between atoms: CA_10  and  C_11 
REMARK    7  A    between atoms: CA_10  and  CB_13 
REMARK       I    between atoms: C_11  and  N_17 
REMARK    8  A    between atoms: CB_13  and  CG_14 
REMARK    9  A    between atoms: N_17  and  CA_18 
REMARK   10  A    between atoms: CA_18  and  C_19 
REMARK   11  A    between atoms: CA_18  and  CB_21 
REMARK       I    between atoms: C_19  and  N_25 
REMARK   12  A    between atoms: CB_21  and  CG_22 
REMARK   13  A    between atoms: N_25  and  CA_26 
REMARK   14  A    between atoms: CA_26  and  C_27 
REMARK   15  A    between atoms: CA_26  and  CB_29 
REMARK       I    between atoms: C_27  and  N_34 
REMARK   16  A    between atoms: CB_29  and  CG_30 
REMARK   17  A    between atoms: CG_30  and  CD_31 
REMARK   18  A    between atoms: N_34  and  CA_35 
REMARK   19  A    between atoms: CA_35  and  C_36 
REMARK   20  A    between atoms: CA_35  and  CB_38 
REMARK       I    between atoms: C_36  and  N_42 
REMARK   21  A    between atoms: CB_38  and  CG_39 
REMARK   22  A    between atoms: N_42  and  CA_43 
REMARK   23  A    between atoms: CA_43  and  C_44 
REMARK       I    between atoms: C_44  and  N_46 
REMARK   24  A    between atoms: N_46  and  CA_47 
REMARK   25  A    between atoms: CA_47  and  C_48 
REMARK   26  A    between atoms: CA_47  and  CB_50 
REMARK       I    between atoms: C_48  and  N_58 
REMARK   27  A    between atoms: CB_50  and  CG_51 
REMARK   28  A    between atoms: CZ_56  and  OH_57 
REMARK   29  A    between atoms: N_58  and  CA_59 
REMARK   30  A    between atoms: CA_59  and  C_60 
REMARK   31  A    between atoms: CA_59  and  CB_62 
REMARK       I    between atoms: C_60  and  N_66 
REMARK   32  A    between atoms: CB_62  and  CG_63 
REMARK       I    between atoms: CG_63  and  ND2_65 
REMARK   33  A    between atoms: CA_67  and  C_68 
REMARK       I    between atoms: C_68  and  N_73 
REMARK   34  A    between atoms: N_73  and  CA_74 
REMARK   35  A    between atoms: CA_74  and  C_75 
REMARK   36  A    between atoms: CA_74  and  CB_77 
REMARK       I    between atoms: C_75  and  N_85 
REMARK   37  A    between atoms: CB_77  and  CG_78 
REMARK   38  A    between atoms: CZ_83  and  OH_84 
REMARK   39  A    between atoms: N_85  and  CA_86 
REMARK   40  A    between atoms: CA_86  and  C_87 
REMARK   41  A    between atoms: CA_86  and  CB_89 
REMARK       I    between atoms: C_87  and  N_92 
REMARK   42  A    between atoms: CB_89  and  OG1_90 
REMARK   43  A    between atoms: CB_89  and  CG2_91 
REMARK   44  A    between atoms: N_92  and  CA_93 
REMARK   45  A    between atoms: CA_93  and  C_94 
REMARK   46  A    between atoms: CA_93  and  CB_96 
REMARK   47  A    between atoms: CB_96  and  CG_97 
REMARK   48  A    between atoms: CG_97  and  CD1_98 
REMARK   49  A    between atoms: CG_97  and  CD2_99 
ROOT
ATOM      1  CA  TYR d   1     -11.441   5.417  20.317  0.00  0.00     0.093 C 
ATOM      2  H   TYR d   1     -10.578   4.869  20.722  0.00  0.00     0.088 H 
ENDROOT
BRANCH   1   3
ATOM      3  N   TYR d   1     -12.660   4.818  20.849  0.00  0.00    -0.346 N 
ATOM      4  C   GLY d   1     -12.663   4.148  21.996  0.00  0.00     0.236 C 
ATOM      5  O   GLY d   1     -11.654   3.990  22.683  0.00  0.00    -0.272 OA
ATOM      6  H   TYR d   1     -13.514   4.914  20.338  0.00  0.00     0.163 HD
BRANCH   4   7
ATOM      7  CA  GLY d   1     -13.995   3.571  22.434  0.00  0.00     0.069 C 
ATOM      8  H   GLY d   1     -13.974   3.424  23.524  0.00  0.00     0.078 H 
ATOM      9  H   GLY d   1     -14.791   4.285  22.176  0.00  0.00     0.078 H 
BRANCH   7  10
ATOM     10  N   GLY d   1     -14.286   2.300  21.798  0.00  0.00    -0.351 N 
ATOM     11  C   ASP d   1     -13.498   1.247  21.992  0.00  0.00     0.241 C 
ATOM     12  O   ASP d   1     -12.498   1.282  22.707  0.00  0.00    -0.271 OA
ATOM     13  H   GLY d   1     -15.088   2.215  21.207  0.00  0.00     0.163 HD
BRANCH  11  14
ATOM     14  CA  ASP d   1     -13.900  -0.037  21.271  0.00  0.00     0.098 C 
ATOM     15  H   ASP d   1     -13.924   0.162  20.189  0.00  0.00     0.088 H 
BRANCH  14  16
ATOM     16  N   ASP d   1     -12.933  -1.099  21.524  0.00  0.00    -0.346 N 
ATOM     17  C   GLU d   1     -11.672  -1.002  21.119  0.00  0.00     0.241 C 
ATOM     18  O   GLU d   1     -11.235  -0.025  20.511  0.00  0.00    -0.271 OA
ATOM     19  H   ASP d   1     -13.226  -1.920  22.014  0.00  0.00     0.163 HD
BRANCH  17  20
ATOM     20  CA  GLU d   1     -10.767  -2.186  21.450  0.00  0.00     0.090 C 
ATOM     21  H   GLU d   1     -10.476  -2.119  22.509  0.00  0.00     0.087 H 
BRANCH  20  22
ATOM     22  N   GLU d   1     -11.466  -3.449  21.243  0.00  0.00    -0.346 N 
ATOM     23  C   ASP d   1     -12.055  -3.736  20.086  0.00  0.00     0.241 C 
ATOM     24  O   ASP d   1     -12.051  -2.970  19.123  0.00  0.00    -0.271 OA
ATOM     25  H   GLU d   1     -11.503  -4.115  21.988  0.00  0.00     0.163 HD
BRANCH  23  26
ATOM     26  CA  ASP d   1     -12.753  -5.090  20.004  0.00  0.00     0.098 C 
ATOM     27  H   ASP d   1     -12.010  -5.850  19.721  0.00  0.00     0.088 H 
BRANCH  26  28
ATOM     28  N   ASP d   1     -13.322  -5.460  21.294  0.00  0.00    -0.345 N 
ATOM     29  C   ASP d   1     -13.608  -6.723  21.593  0.00  0.00     0.241 C 
ATOM     30  O   ASP d   1     -13.417  -7.656  20.813  0.00  0.00    -0.271 OA
ATOM     31  H   ASP d   1     -13.502  -4.746  21.971  0.00  0.00     0.163 HD
BRANCH  29  32
ATOM     32  CA  ASP d   1     -14.199  -6.970  22.978  0.00  0.00     0.098 C 
ATOM     33  H   ASP d   1     -13.901  -6.142  23.638  0.00  0.00     0.088 H 
BRANCH  32  34
ATOM     34  N   ASP d   1     -15.656  -7.013  22.921  0.00  0.00    -0.345 N 
ATOM     35  C   ASP d   1     -16.385  -5.902  22.898  0.00  0.00     0.249 C 
ATOM     36  O   ASP d   1     -15.891  -4.775  22.924  0.00  0.00    -0.271 OA
ATOM     37  H   ASP d   1     -16.117  -7.900  22.899  0.00  0.00     0.163 HD
BRANCH  35  38
ATOM     38  CA  ASP d   1     -17.897  -6.091  22.838  0.00  0.00     0.185 C 
ATOM     39  H   ASP d   1     -18.111  -7.167  22.759  0.00  0.00     0.100 H 
BRANCH  38  40
ATOM     40  N   ASP d   1     -18.533  -5.582  24.047  0.00  0.00    -0.066 N 
ATOM     41  H   ASP d   1     -19.530  -5.718  23.985  0.00  0.00     0.275 HD
ATOM     42  H   ASP d   1     -18.333  -4.599  24.143  0.00  0.00     0.275 HD
ATOM     43  H   ASP d   1     -18.176  -6.078  24.849  0.00  0.00     0.275 HD
ENDBRANCH  38  40
BRANCH  38  44
ATOM     44  CB  ASP d   1     -18.463  -5.388  21.603  0.00  0.00     0.050 C 
ATOM     45  H   ASP d   1     -17.868  -5.682  20.726  0.00  0.00     0.052 H 
ATOM     46  H   ASP d   1     -18.387  -4.301  21.750  0.00  0.00     0.052 H 
BRANCH  44  47
ATOM     47  CG  ASP d   1     -19.915  -5.744  21.348  0.00  0.00     0.175 C 
ATOM     48  OD1 ASP d   1     -20.417  -6.686  21.996  0.00  0.00    -0.648 OA
ATOM     49  OD2 ASP d   1     -20.548  -5.080  20.501  0.00  0.00    -0.648 OA
ENDBRANCH  44  47
ENDBRANCH  38  44
ENDBRANCH  35  38
ENDBRANCH  32  34
BRANCH  32  50
ATOM     50  CB  ASP d   1     -13.651  -8.276  23.554  0.00  0.00     0.043 C 
ATOM     51  H   ASP d   1     -13.631  -9.033  22.756  0.00  0.00     0.052 H 
ATOM     52  H   ASP d   1     -14.317  -8.613  24.362  0.00  0.00     0.052 H 
BRANCH  50  53
ATOM     53  CG  ASP d   1     -12.250  -8.120  24.112  0.00  0.00     0.175 C 
ATOM     54  OD1 ASP d   1     -11.848  -6.972  24.395  0.00  0.00    -0.648 OA
ATOM     55  OD2 ASP d   1     -11.556  -9.147  24.266  0.00  0.00    -0.648 OA
ENDBRANCH  50  53
ENDBRANCH  32  50
ENDBRANCH  29  32
ENDBRANCH  26  28
BRANCH  26  56
ATOM     56  CB  ASP d   1     -13.845  -5.051  18.933  0.00  0.00     0.043 C 
ATOM     57  H   ASP d   1     -14.246  -4.028  18.875  0.00  0.00     0.052 H 
ATOM     58  H   ASP d   1     -14.649  -5.744  19.223  0.00  0.00     0.052 H 
BRANCH  56  59
ATOM     59  CG  ASP d   1     -13.329  -5.450  17.565  0.00  0.00     0.175 C 
ATOM     60  OD1 ASP d   1     -12.473  -6.357  17.494  0.00  0.00    -0.648 OA
ATOM     61  OD2 ASP d   1     -13.781  -4.855  16.564  0.00  0.00    -0.648 OA
ENDBRANCH  56  59
ENDBRANCH  26  56
ENDBRANCH  23  26
ENDBRANCH  20  22
BRANCH  20  62
ATOM     62  CB  GLU d   1      -9.502  -2.131  20.591  0.00  0.00    -0.029 C 
ATOM     63  H   GLU d   1      -9.111  -1.103  20.613  0.00  0.00     0.037 H 
ATOM     64  H   GLU d   1      -9.771  -2.399  19.558  0.00  0.00     0.037 H 
BRANCH  62  65
ATOM     65  CG  GLU d   1      -8.406  -3.072  21.061  0.00  0.00     0.018 C 
ATOM     66  H   GLU d   1      -8.629  -4.084  20.692  0.00  0.00     0.049 H 
ATOM     67  H   GLU d   1      -8.394  -3.077  22.161  0.00  0.00     0.049 H 
BRANCH  65  68
ATOM     68  CD  GLU d   1      -7.033  -2.665  20.562  0.00  0.00     0.172 C 
ATOM     69  OE1 GLU d   1      -6.929  -2.238  19.393  0.00  0.00    -0.648 OA
ATOM     70  OE2 GLU d   1      -6.063  -2.773  21.341  0.00  0.00    -0.648 OA
ENDBRANCH  65  68
ENDBRANCH  62  65
ENDBRANCH  20  62
ENDBRANCH  17  20
ENDBRANCH  14  16
BRANCH  14  71
ATOM     71  CB  ASP d   1     -15.296  -0.472  21.719  0.00  0.00     0.043 C 
ATOM     72  H   ASP d   1     -15.934   0.420  21.802  0.00  0.00     0.052 H 
ATOM     73  H   ASP d   1     -15.216  -0.958  22.703  0.00  0.00     0.052 H 
BRANCH  71  74
ATOM     74  CG  ASP d   1     -15.939  -1.442  20.748  0.00  0.00     0.175 C 
ATOM     75  OD1 ASP d   1     -15.410  -1.598  19.628  0.00  0.00    -0.648 OA
ATOM     76  OD2 ASP d   1     -16.973  -2.045  21.107  0.00  0.00    -0.648 OA
ENDBRANCH  71  74
ENDBRANCH  14  71
ENDBRANCH  11  14
ENDBRANCH   7  10
ENDBRANCH   4   7
ENDBRANCH   1   3
BRANCH   1  77
ATOM     77  C   TYR d   1     -11.326   6.879  20.735  0.00  0.00     0.241 C 
ATOM     78  O   TYR d   1     -12.114   7.722  20.306  0.00  0.00    -0.271 OA
ATOM     79  N   ASN d   1     -10.338   7.173  21.574  0.00  0.00    -0.346 N 
ATOM     80  H   ASN d   1      -9.730   6.443  21.887  0.00  0.00     0.163 HD
BRANCH  79  81
ATOM     81  CA  ASN d   1     -10.118   8.533  22.050  0.00  0.00     0.097 C 
ATOM     82  H   ASN d   1     -11.069   9.082  21.988  0.00  0.00     0.088 H 
BRANCH  81  83
ATOM     83  C   ASN d   1      -9.087   9.252  21.186  0.00  0.00     0.243 C 
ATOM     84  O   ASN d   1      -8.053   8.695  20.816  0.00  0.00    -0.271 OA
ATOM     85  N   PRO d   1      -9.373  10.521  20.855  0.00  0.00    -0.337 N 
ATOM     86  CA  PRO d   1      -8.483  11.344  20.032  0.00  0.00     0.091 C 
ATOM     87  CD  PRO d   1     -10.587  11.249  21.261  0.00  0.00    -0.001 C 
ATOM     88  CB  PRO d   1      -9.320  12.593  19.744  0.00  0.00    -0.036 C 
ATOM     89  H   PRO d   1      -8.226  10.820  19.100  0.00  0.00     0.087 H 
ATOM     90  CG  PRO d   1     -10.286  12.670  20.875  0.00  0.00    -0.048 C 
ATOM     91  H   PRO d   1      -9.851  12.492  18.786  0.00  0.00     0.036 H 
ATOM     92  H   PRO d   1      -8.683  13.489  19.717  0.00  0.00     0.036 H 
ATOM     93  H   PRO d   1     -11.206  13.183  20.558  0.00  0.00     0.035 H 
ATOM     94  H   PRO d   1      -9.839  13.210  21.723  0.00  0.00     0.035 H 
ATOM     95  H   PRO d   1     -10.754  11.162  22.345  0.00  0.00     0.064 H 
ATOM     96  H   PRO d   1     -11.470  10.873  20.723  0.00  0.00     0.064 H 
BRANCH  86  97
ATOM     97  C   PRO d   1      -7.199  11.721  20.764  0.00  0.00     0.241 C 
ATOM     98  O   PRO d   1      -6.171  11.982  20.140  0.00  0.00    -0.271 OA
ATOM     99  N   TYR d   1      -7.267  11.747  22.091  0.00  0.00    -0.346 N 
ATOM    100  H   TYR d   1      -8.132  11.524  22.540  0.00  0.00     0.163 HD
BRANCH  99 101
ATOM    101  CA  TYR d   1      -6.110  12.093  22.908  0.00  0.00     0.093 C 
ATOM    102  H   TYR d   1      -5.620  12.972  22.463  0.00  0.00     0.088 H 
BRANCH 101 103
ATOM    103  C   TYR d   1      -5.106  10.946  22.946  0.00  0.00     0.241 C 
ATOM    104  O   TYR d   1      -3.958  11.121  23.357  0.00  0.00    -0.271 OA
ATOM    105  N   THR d   1      -5.546   9.768  22.513  0.00  0.00    -0.344 N 
ATOM    106  H   THR d   1      -6.489   9.688  22.191  0.00  0.00     0.163 HD
BRANCH 105 107
ATOM    107  CA  THR d   1      -4.687   8.591  22.496  0.00  0.00     0.113 C 
ATOM    108  H   THR d   1      -3.655   8.917  22.694  0.00  0.00     0.091 H 
BRANCH 107 109
ATOM    109  C   THR d   1      -4.726   7.901  21.138  0.00  0.00     0.243 C 
ATOM    110  O   THR d   1      -5.780   7.443  20.692  0.00  0.00    -0.271 OA
ATOM    111  N   LEU d   1      -3.573   7.827  20.483  0.00  0.00    -0.345 N 
ATOM    112  H   LEU d   1      -2.751   8.217  20.898  0.00  0.00     0.163 HD
BRANCH 111 113
ATOM    113  CA  LEU d   1      -3.475   7.191  19.174  0.00  0.00     0.096 C 
ATOM    114  H   LEU d   1      -4.363   7.465  18.586  0.00  0.00     0.089 H 
BRANCH 113 115
ATOM    115  C   LEU d   1      -3.431   5.673  19.308  0.00  0.00     0.196 C 
ATOM    116  O   LEU d   1      -4.221   5.082  20.044  0.00  0.00    -0.646 OA
ATOM    117  O1  LEU d   1      -2.575   5.015  18.657  0.00  0.00    -0.646 OA
ENDBRANCH 113 115
BRANCH 113 118
ATOM    118  CB  LEU d   1      -2.228   7.685  18.437  0.00  0.00    -0.034 C 
ATOM    119  H   LEU d   1      -1.347   7.351  19.005  0.00  0.00     0.037 H 
ATOM    120  H   LEU d   1      -2.259   8.784  18.422  0.00  0.00     0.037 H 
BRANCH 118 121
ATOM    121  CG  LEU d   1      -2.066   7.203  16.996  0.00  0.00    -0.059 C 
ATOM    122  H   LEU d   1      -3.062   6.955  16.599  0.00  0.00     0.038 H 
BRANCH 121 123
ATOM    123  CD1 LEU d   1      -1.465   8.300  16.130  0.00  0.00    -0.073 C 
ATOM    124  H   LEU d   1      -1.356   7.934  15.098  0.00  0.00     0.028 H 
ATOM    125  H   LEU d   1      -0.477   8.580  16.526  0.00  0.00     0.028 H 
ATOM    126  H   LEU d   1      -2.127   9.179  16.140  0.00  0.00     0.028 H 
ENDBRANCH 121 123
BRANCH 121 127
ATOM    127  CD2 LEU d   1      -1.203   5.950  16.946  0.00  0.00    -0.073 C 
ATOM    128  H   LEU d   1      -1.653   5.170  17.577  0.00  0.00     0.028 H 
ATOM    129  H   LEU d   1      -0.194   6.185  17.316  0.00  0.00     0.028 H 
ATOM    130  H   LEU d   1      -1.138   5.590  15.909  0.00  0.00     0.028 H 
ENDBRANCH 121 127
ENDBRANCH 118 121
ENDBRANCH 113 118
ENDBRANCH 111 113
ENDBRANCH 107 109
BRANCH 107 131
ATOM    131  CB  THR d   1      -5.099   7.581  23.584  0.00  0.00     0.060 C 
ATOM    132  H   THR d   1      -4.278   6.863  23.727  0.00  0.00     0.086 H 
BRANCH 131 133
ATOM    133  OG1 THR d   1      -6.271   6.868  23.173  0.00  0.00    -0.393 OA
ATOM    134  H   THR d   1      -6.090   6.401  22.366  0.00  0.00     0.210 HD
ENDBRANCH 131 133
BRANCH 131 135
ATOM    135  CG2 THR d   1      -5.366   8.287  24.905  0.00  0.00    -0.050 C 
ATOM    136  H   THR d   1      -5.658   7.546  25.664  0.00  0.00     0.031 H 
ATOM    137  H   THR d   1      -6.179   9.017  24.773  0.00  0.00     0.031 H 
ATOM    138  H   THR d   1      -4.455   8.809  25.233  0.00  0.00     0.031 H 
ENDBRANCH 131 135
ENDBRANCH 107 131
ENDBRANCH 105 107
ENDBRANCH 101 103
BRANCH 101 139
ATOM    139  CB  TYR d   1      -6.551  12.447  24.330  0.00  0.00    -0.014 C 
ATOM    140  H   TYR d   1      -6.240  11.634  25.003  0.00  0.00     0.043 H 
ATOM    141  H   TYR d   1      -7.647  12.534  24.342  0.00  0.00     0.043 H 
BRANCH 139 142
ATOM    142  CG  TYR d   1      -5.964  13.742  24.842  0.00  0.00    -0.056 A 
ATOM    143  CD1 TYR d   1      -4.642  14.080  24.581  0.00  0.00    -0.074 A 
ATOM    144  CE1 TYR d   1      -4.101  15.262  25.047  0.00  0.00    -0.051 A 
ATOM    145  H   TYR d   1      -4.024  13.404  24.001  0.00  0.00     0.084 H 
ATOM    146  CZ  TYR d   1      -4.884  16.127  25.783  0.00  0.00     0.065 A 
ATOM    147  H   TYR d   1      -3.067  15.509  24.836  0.00  0.00     0.087 H 
ATOM    148  CE2 TYR d   1      -6.200  15.815  26.055  0.00  0.00    -0.051 A 
ATOM    149  CD2 TYR d   1      -6.732  14.630  25.585  0.00  0.00    -0.074 A 
ATOM    150  H   TYR d   1      -6.813  16.496  26.634  0.00  0.00     0.087 H 
ATOM    151  H   TYR d   1      -7.767  14.389  25.800  0.00  0.00     0.084 H 
BRANCH 146 152
ATOM    152  OH  TYR d   1      -4.349  17.306  26.249  0.00  0.00    -0.361 OA
ATOM    153  H   TYR d   1      -3.441  17.369  25.978  0.00  0.00     0.217 HD
ENDBRANCH 146 152
ENDBRANCH 139 142
ENDBRANCH 101 139
ENDBRANCH  99 101
ENDBRANCH  86  97
ENDBRANCH  81  83
BRANCH  81 154
ATOM    154  CB  ASN d   1      -9.656   8.517  23.508  0.00  0.00     0.036 C 
ATOM    155  H   ASN d   1      -8.560   8.421  23.530  0.00  0.00     0.051 H 
ATOM    156  H   ASN d   1     -10.111   7.652  24.013  0.00  0.00     0.051 H 
BRANCH 154 157
ATOM    157  CG  ASN d   1     -10.049   9.778  24.254  0.00  0.00     0.217 C 
ATOM    158  OD1 ASN d   1      -9.390  10.811  24.139  0.00  0.00    -0.274 OA
ATOM    159  ND2 ASN d   1     -11.128   9.697  25.024  0.00  0.00    -0.370 N 
ATOM    160  H   ASN d   1     -11.435  10.497  25.540  0.00  0.00     0.159 HD
ATOM    161  H   ASN d   1     -11.633   8.836  25.088  0.00  0.00     0.159 HD
ENDBRANCH 154 157
ENDBRANCH  81 154
ENDBRANCH  79  81
ENDBRANCH   1  77
BRANCH   1 162
ATOM    162  CB  TYR d   1     -11.418   5.307  18.792  0.00  0.00    -0.014 C 
ATOM    163  H   TYR d   1     -12.435   5.489  18.415  0.00  0.00     0.043 H 
ATOM    164  H   TYR d   1     -11.104   4.288  18.522  0.00  0.00     0.043 H 
BRANCH 162 165
ATOM    165  CG  TYR d   1     -10.479   6.289  18.128  0.00  0.00    -0.056 A 
ATOM    166  CD1 TYR d   1      -9.133   5.990  17.962  0.00  0.00    -0.074 A 
ATOM    167  CE1 TYR d   1      -8.272   6.885  17.357  0.00  0.00    -0.051 A 
ATOM    168  H   TYR d   1      -8.752   5.038  18.313  0.00  0.00     0.084 H 
ATOM    169  CZ  TYR d   1      -8.753   8.097  16.907  0.00  0.00     0.065 A 
ATOM    170  H   TYR d   1      -7.224   6.636  17.236  0.00  0.00     0.087 H 
ATOM    171  CE2 TYR d   1     -10.086   8.417  17.060  0.00  0.00    -0.051 A 
ATOM    172  CD2 TYR d   1     -10.940   7.516  17.667  0.00  0.00    -0.074 A 
ATOM    173  H   TYR d   1     -10.462   9.370  16.706  0.00  0.00     0.087 H 
ATOM    174  H   TYR d   1     -11.987   7.771  17.785  0.00  0.00     0.084 H 
BRANCH 169 175
ATOM    175  OH  TYR d   1      -7.899   8.991  16.303  0.00  0.00    -0.361 OA
ATOM    176  H   TYR d   1      -7.887   9.801  16.799  0.00  0.00     0.217 HD
ENDBRANCH 169 175
ENDBRANCH 162 165
ENDBRANCH   1 162
TORSDOF 49
