REMARK WARNING: 32 MAX_TORS EXCEEDED!!!
REMARK  51 active torsions:
REMARK  status: ('A' for Active; 'I' for Inactive)
REMARK       I    between atoms: N_1  and  CN_2 
REMARK    1  A    between atoms: CA_5  and  N_1 
REMARK    2  A    between atoms: CN_2  and  CM_4 
REMARK    3  A    between atoms: CA_5  and  CB_6 
REMARK    4  A    between atoms: C_9  and  CA_5 
REMARK    5  A    between atoms: CB_6  and  OG1_7 
REMARK    6  A    between atoms: CB_6  and  CG2_8 
REMARK       I    between atoms: N_11  and  C_9 
REMARK    7  A    between atoms: CA_12  and  N_11 
REMARK    8  A    between atoms: C_13  and  CA_12 
REMARK    9  A    between atoms: CA_12  and  CB_15 
REMARK       I    between atoms: N_20  and  C_13 
REMARK   10  A    between atoms: CB_15  and  CG_16 
REMARK   11  A    between atoms: CG_16  and  CD_17 
REMARK   12  A    between atoms: CD_17  and  CE_18 
REMARK   13  A    between atoms: CE_18  and  NZ_19 
REMARK   14  A    between atoms: CA_21  and  N_20 
REMARK   15  A    between atoms: C_22  and  CA_21 
REMARK   16  A    between atoms: CA_21  and  CB_24 
REMARK       I    between atoms: N_28  and  C_22 
REMARK   17  A    between atoms: CB_24  and  CG_25 
REMARK   18  A    between atoms: CA_29  and  N_28 
REMARK   19  A    between atoms: C_30  and  CA_29 
REMARK   20  A    between atoms: CA_29  and  CB_32 
REMARK       I    between atoms: N_35  and  C_30 
REMARK   21  A    between atoms: CB_32  and  OG1_33 
REMARK   22  A    between atoms: CB_32  and  CG2_34 
REMARK   23  A    between atoms: CA_36  and  N_35 
REMARK   24  A    between atoms: C_37  and  CA_36 
REMARK   25  A    between atoms: CA_36  and  CB_39 
REMARK       I    between atoms: N_43  and  C_37 
REMARK   26  A    between atoms: CB_39  and  CG_40 
REMARK       I    between atoms: CG_40  and  ND2_42 
REMARK   27  A    between atoms: CA_44  and  N_43 
REMARK   28  A    between atoms: C_45  and  CA_44 
REMARK   29  A    between atoms: CA_44  and  CB_47 
REMARK       I    between atoms: N_51  and  C_45 
REMARK   30  A    between atoms: CB_47  and  CG_48 
REMARK       I    between atoms: CG_48  and  ND2_50 
REMARK   31  A    between atoms: CA_52  and  N_51 
REMARK   32  A    between atoms: C_53  and  CA_52 
REMARK   33  A    between atoms: CA_52  and  CB_55 
REMARK       I    between atoms: N_59  and  C_53 
REMARK   34  A    between atoms: CB_55  and  CG_56 
REMARK       I    between atoms: CG_56  and  ND2_58 
REMARK   35  A    between atoms: CA_60  and  N_59 
REMARK   36  A    between atoms: C_61  and  CA_60 
REMARK   37  A    between atoms: CA_60  and  CB_63 
REMARK       I    between atoms: N_99  and  C_61 
REMARK   38  A    between atoms: CB_63  and  CG_64 
REMARK   39  A    between atoms: CG_64  and  CD1_65 
REMARK   40  A    between atoms: CG_64  and  CD2_66 
REMARK   41  A    between atoms: C1_67  and  O1_68 
REMARK   42  A    between atoms: C6_74  and  O3_75 
REMARK   43  A    between atoms: C14_83  and  C10_79 
REMARK   44  A    between atoms: NL_92  and  C17_86 
REMARK   45  A    between atoms: C19_88  and  C20_89 
REMARK       I    between atoms: CL_93  and  NL_92 
REMARK   46  A    between atoms: CAL_95  and  CL_93 
REMARK   47  A    between atoms: SG_96  and  CAL_95 
REMARK   48  A    between atoms: CB_97  and  SG_96 
REMARK   49  A    between atoms: CA_98  and  CB_97 
REMARK   50  A    between atoms: CA_98  and  N_99 
REMARK   51  A    between atoms: CA_98  and  C_101 
REMARK       I    between atoms: C_101  and  NT_102 
ROOT
ATOM      1  CA  ASN d   1      -9.738   6.903  40.410  0.00  0.00     0.097 C 
ATOM      2  H42 ASN d   1      -9.629   7.627  41.231  0.00  0.00     0.088 H 
ENDROOT
BRANCH   1   3
ATOM      3  N   ASN d   1      -8.678   5.926  40.583  0.00  0.00    -0.346 N 
ATOM      4  C   ASN d   1      -8.429   4.967  39.703  0.00  0.00     0.241 C 
ATOM      5  O   ASN d   1      -9.097   4.805  38.696  0.00  0.00    -0.271 OA
ATOM      6  H41 ASN d   1      -8.110   5.979  41.404  0.00  0.00     0.163 HD
BRANCH   4   7
ATOM      7  CA  ASN d   1      -7.256   4.046  40.033  0.00  0.00     0.097 C 
ATOM      8  H36 ASN d   1      -6.428   4.255  39.339  0.00  0.00     0.088 H 
BRANCH   7   9
ATOM      9  N   ASN d   1      -6.816   4.304  41.391  0.00  0.00    -0.345 N 
ATOM     10  C   THR d   1      -5.698   4.965  41.652  0.00  0.00     0.243 C 
ATOM     11  O   THR d   1      -4.943   5.377  40.777  0.00  0.00    -0.271 OA
ATOM     12  H35 ASN d   1      -7.373   3.973  42.153  0.00  0.00     0.163 HD
BRANCH  10  13
ATOM     13  CA  THR d   1      -5.397   5.169  43.136  0.00  0.00     0.113 C 
ATOM     14  H29 THR d   1      -5.097   6.205  43.350  0.00  0.00     0.091 H 
BRANCH  13  15
ATOM     15  N   THR d   1      -6.651   4.838  43.801  0.00  0.00    -0.344 N 
ATOM     16  C   ASP d   1      -7.668   5.687  43.927  0.00  0.00     0.241 C 
ATOM     17  O   ASP d   1      -7.658   6.845  43.520  0.00  0.00    -0.271 OA
ATOM     18  H28 THR d   1      -6.753   3.920  44.185  0.00  0.00     0.163 HD
BRANCH  16  19
ATOM     19  CA  ASP d   1      -8.897   5.094  44.584  0.00  0.00     0.098 C 
ATOM     20  H25 ASP d   1      -8.677   4.877  45.640  0.00  0.00     0.088 H 
BRANCH  19  21
ATOM     21  N   ASP d   1     -10.071   5.985  44.538  0.00  0.00    -0.346 N 
ATOM     22  C   LYS d   1     -10.095   7.204  45.085  0.00  0.00     0.241 C 
ATOM     23  O   LYS d   1      -9.141   7.681  45.703  0.00  0.00    -0.271 OA
ATOM     24  H24 ASP d   1     -10.894   5.659  44.072  0.00  0.00     0.163 HD
BRANCH  22  25
ATOM     25  CA  LYS d   1     -11.402   8.004  44.929  0.00  0.00     0.089 C 
ATOM     26  H12 LYS d   1     -12.235   7.287  44.966  0.00  0.00     0.087 H 
BRANCH  25  27
ATOM     27  N   LYS d   1     -11.609   8.973  45.997  0.00  0.00    -0.346 N 
ATOM     28  C   THC d   1     -12.803   9.114  46.567  0.00  0.00     0.243 C 
ATOM     29  O   THC d   1     -13.788   8.458  46.225  0.00  0.00    -0.271 OA
ATOM     30  H11 LYS d   1     -10.845   9.539  46.305  0.00  0.00     0.163 HD
BRANCH  28  31
ATOM     31  CA  THC d   1     -12.911  10.141  47.693  0.00  0.00     0.113 C 
ATOM     32  H5  THC d   1     -12.251  10.989  47.458  0.00  0.00     0.091 H 
BRANCH  31  33
ATOM     33  N   THC d   1     -14.271  10.642  47.844  0.00  0.00    -0.346 N 
ATOM     34  CN  THC d   1     -14.829  11.453  46.957  0.00  0.00     0.214 C 
ATOM     35  ON  THC d   1     -14.240  11.847  45.948  0.00  0.00    -0.274 OA
ATOM     36  H1  THC d   1     -14.802  10.364  48.645  0.00  0.00     0.163 HD
BRANCH  34  37
ATOM     37  CM  THC d   1     -16.260  11.890  47.249  0.00  0.00    -0.003 C 
ATOM     38  H2  THC d   1     -16.611  12.556  46.447  0.00  0.00     0.040 H 
ATOM     39  H3  THC d   1     -16.291  12.425  48.210  0.00  0.00     0.040 H 
ATOM     40  H4  THC d   1     -16.910  11.005  47.301  0.00  0.00     0.040 H 
ENDBRANCH  34  37
ENDBRANCH  31  33
BRANCH  31  41
ATOM     41  CB  THC d   1     -12.453   9.500  49.013  0.00  0.00     0.060 C 
ATOM     42  H6  THC d   1     -13.251   8.837  49.379  0.00  0.00     0.086 H 
BRANCH  41  43
ATOM     43  OG1 THC d   1     -12.233  10.535  49.977  0.00  0.00    -0.393 OA
ATOM     44  H7  THC d   1     -11.949  10.148  50.797  0.00  0.00     0.210 HD
ENDBRANCH  41  43
BRANCH  41  45
ATOM     45  CG2 THC d   1     -11.189   8.667  48.818  0.00  0.00    -0.050 C 
ATOM     46  H8  THC d   1     -10.890   8.224  49.779  0.00  0.00     0.031 H 
ATOM     47  H9  THC d   1     -10.380   9.311  48.443  0.00  0.00     0.031 H 
ATOM     48  H10 THC d   1     -11.386   7.866  48.091  0.00  0.00     0.031 H 
ENDBRANCH  41  45
ENDBRANCH  31  41
ENDBRANCH  28  31
ENDBRANCH  25  27
BRANCH  25  49
ATOM     49  CB  LYS d   1     -11.440   8.709  43.563  0.00  0.00    -0.038 C 
ATOM     50  H13 LYS d   1     -12.397   9.246  43.484  0.00  0.00     0.036 H 
ATOM     51  H14 LYS d   1     -11.387   7.937  42.781  0.00  0.00     0.036 H 
BRANCH  49  52
ATOM     52  CG  LYS d   1     -10.326   9.702  43.315  0.00  0.00    -0.061 C 
ATOM     53  H15 LYS d   1      -9.359   9.204  43.480  0.00  0.00     0.033 H 
ATOM     54  H16 LYS d   1     -10.431  10.541  44.018  0.00  0.00     0.033 H 
BRANCH  52  55
ATOM     55  CD  LYS d   1     -10.370  10.244  41.879  0.00  0.00    -0.043 C 
ATOM     56  H17 LYS d   1     -10.438   9.390  41.190  0.00  0.00     0.035 H 
ATOM     57  H18 LYS d   1      -9.437  10.794  41.689  0.00  0.00     0.035 H 
BRANCH  55  58
ATOM     58  CE  LYS d   1     -11.546  11.182  41.599  0.00  0.00     0.080 C 
ATOM     59  H19 LYS d   1     -12.464  10.712  41.980  0.00  0.00     0.075 H 
ATOM     60  H20 LYS d   1     -11.629  11.320  40.511  0.00  0.00     0.075 H 
BRANCH  58  61
ATOM     61  NZ  LYS d   1     -11.402  12.532  42.240  0.00  0.00    -0.079 N 
ATOM     62  H21 LYS d   1     -12.206  13.097  42.017  0.00  0.00     0.274 HD
ATOM     63  H22 LYS d   1     -10.569  12.981  41.894  0.00  0.00     0.274 HD
ATOM     64  H23 LYS d   1     -11.334  12.424  43.240  0.00  0.00     0.274 HD
ENDBRANCH  58  61
ENDBRANCH  55  58
ENDBRANCH  52  55
ENDBRANCH  49  52
ENDBRANCH  25  49
ENDBRANCH  22  25
ENDBRANCH  19  21
BRANCH  19  65
ATOM     65  CB  ASP d   1      -9.148   3.782  43.830  0.00  0.00     0.043 C 
ATOM     66  H26 ASP d   1      -8.211   3.205  43.809  0.00  0.00     0.052 H 
ATOM     67  H27 ASP d   1      -9.453   4.022  42.801  0.00  0.00     0.052 H 
BRANCH  65  68
ATOM     68  CG  ASP d   1     -10.209   2.942  44.456  0.00  0.00     0.175 C 
ATOM     69  OD1 ASP d   1     -10.248   2.869  45.705  0.00  0.00    -0.648 OA
ATOM     70  OD2 ASP d   1     -10.986   2.323  43.698  0.00  0.00    -0.648 OA
ENDBRANCH  65  68
ENDBRANCH  19  65
ENDBRANCH  16  19
ENDBRANCH  13  15
BRANCH  13  71
ATOM     71  CB  THR d   1      -4.275   4.194  43.547  0.00  0.00     0.060 C 
ATOM     72  H30 THR d   1      -4.586   3.168  43.302  0.00  0.00     0.086 H 
BRANCH  71  73
ATOM     73  OG1 THR d   1      -4.058   4.297  44.957  0.00  0.00    -0.393 OA
ATOM     74  H31 THR d   1      -4.859   4.075  45.417  0.00  0.00     0.210 HD
ENDBRANCH  71  73
BRANCH  71  75
ATOM     75  CG2 THR d   1      -2.977   4.508  42.804  0.00  0.00    -0.050 C 
ATOM     76  H32 THR d   1      -2.196   3.799  43.115  0.00  0.00     0.031 H 
ATOM     77  H33 THR d   1      -2.658   5.534  43.041  0.00  0.00     0.031 H 
ATOM     78  H34 THR d   1      -3.144   4.417  41.721  0.00  0.00     0.031 H 
ENDBRANCH  71  75
ENDBRANCH  13  71
ENDBRANCH  10  13
ENDBRANCH   7   9
BRANCH   7  79
ATOM     79  CB  ASN d   1      -7.669   2.581  39.884  0.00  0.00     0.036 C 
ATOM     80  H37 ASN d   1      -8.021   2.417  38.855  0.00  0.00     0.051 H 
ATOM     81  H38 ASN d   1      -8.487   2.372  40.589  0.00  0.00     0.051 H 
BRANCH  79  82
ATOM     82  CG  ASN d   1      -6.533   1.629  40.164  0.00  0.00     0.217 C 
ATOM     83  OD1 ASN d   1      -5.439   1.767  39.600  0.00  0.00    -0.274 OA
ATOM     84  ND2 ASN d   1      -6.782   0.645  41.031  0.00  0.00    -0.370 N 
ATOM     85  H39 ASN d   1      -6.066  -0.017  41.255  0.00  0.00     0.159 HD
ATOM     86  H40 ASN d   1      -7.684   0.569  41.456  0.00  0.00     0.159 HD
ENDBRANCH  79  82
ENDBRANCH   7  79
ENDBRANCH   4   7
ENDBRANCH   1   3
BRANCH   1  87
ATOM     87  C   ASN d   1     -11.164   6.369  40.500  0.00  0.00     0.241 C 
ATOM     88  O   ASN d   1     -12.077   6.948  39.912  0.00  0.00    -0.271 OA
ATOM     89  N   ASN d   1     -11.361   5.274  41.237  0.00  0.00    -0.346 N 
ATOM     90  H47 ASN d   1     -10.578   4.825  41.667  0.00  0.00     0.163 HD
BRANCH  89  91
ATOM     91  CA  ASN d   1     -12.705   4.717  41.428  0.00  0.00     0.097 C 
ATOM     92  H48 ASN d   1     -13.344   5.001  40.579  0.00  0.00     0.088 H 
BRANCH  91  93
ATOM     93  C   ASN d   1     -13.262   5.307  42.740  0.00  0.00     0.241 C 
ATOM     94  O   ASN d   1     -12.504   5.594  43.663  0.00  0.00    -0.271 OA
ATOM     95  N   LEU d   1     -14.577   5.485  42.835  0.00  0.00    -0.346 N 
ATOM     96  H53 LEU d   1     -15.175   5.245  42.070  0.00  0.00     0.163 HD
BRANCH  95  97
ATOM     97  CA  LEU d   1     -15.140   6.033  44.064  0.00  0.00     0.089 C 
ATOM     98  H54 LEU d   1     -14.529   6.901  44.351  0.00  0.00     0.087 H 
BRANCH  97  99
ATOM     99  C   LEU d   1     -15.102   5.034  45.211  0.00  0.00     0.241 C 
ATOM    100  O   LEU d   1     -15.715   3.965  45.150  0.00  0.00    -0.271 OA
ATOM    101  N   CYF d   1     -14.380   5.387  46.267  0.00  0.00    -0.345 N 
ATOM    102  H82 CYF d   1     -13.909   6.269  46.272  0.00  0.00     0.163 HD
BRANCH 101 103
ATOM    103  CA  CYF d   1     -14.266   4.508  47.413  0.00  0.00     0.097 C 
ATOM    104  H81 CYF d   1     -15.162   3.873  47.471  0.00  0.00     0.088 H 
BRANCH 103 105
ATOM    105  CB  CYF d   1     -13.032   3.612  47.259  0.00  0.00     0.004 C 
ATOM    106  H79 CYF d   1     -13.085   3.119  46.277  0.00  0.00     0.052 H 
ATOM    107  H80 CYF d   1     -12.137   4.250  47.301  0.00  0.00     0.052 H 
BRANCH 105 108
ATOM    108  SG  CYF d   1     -12.872   2.321  48.536  0.00  0.00    -0.157 SA
BRANCH 108 109
ATOM    109  CAL CYF d   1     -12.359   3.310  49.919  0.00  0.00     0.051 C 
ATOM    110  H77 CYF d   1     -13.089   4.112  50.103  0.00  0.00     0.063 H 
ATOM    111  H78 CYF d   1     -12.267   2.684  50.819  0.00  0.00     0.063 H 
BRANCH 109 112
ATOM    112  CL  CYF d   1     -11.027   3.896  49.559  0.00  0.00     0.231 C 
ATOM    113  NL  CYF d   1      -9.985   3.147  49.893  0.00  0.00    -0.327 N 
ATOM    114  H76 CYF d   1     -10.322   2.311  50.327  0.00  0.00     0.169 HD
ATOM    115  OL  CYF d   1     -10.959   4.942  48.914  0.00  0.00    -0.272 OA
BRANCH 113 116
ATOM    116  C17 CYF d   1      -8.657   3.099  49.863  0.00  0.00     0.035 A 
ATOM    117  C16 CYF d   1      -7.957   2.909  51.056  0.00  0.00    -0.057 A 
ATOM    118  C15 CYF d   1      -6.568   2.842  51.075  0.00  0.00    -0.073 A 
ATOM    119  H74 CYF d   1      -8.507   2.812  51.985  0.00  0.00     0.086 H 
ATOM    120  C14 CYF d   1      -5.833   2.972  49.890  0.00  0.00    -0.028 A 
ATOM    121  H73 CYF d   1      -6.050   2.688  52.015  0.00  0.00     0.084 H 
ATOM    122  C19 CYF d   1      -6.541   3.170  48.640  0.00  0.00     0.050 A 
ATOM    123  C18 CYF d   1      -7.939   3.225  48.666  0.00  0.00    -0.040 A 
ATOM    124  H75 CYF d   1      -8.480   3.369  47.738  0.00  0.00     0.088 H 
BRANCH 120 125
ATOM    125  C10 CYF d   1      -4.400   2.893  49.958  0.00  0.00     0.029 A 
ATOM    126  C9  CYF d   1      -3.664   1.828  49.297  0.00  0.00    -0.011 A 
ATOM    127  C4  CYF d   1      -2.226   1.826  49.364  0.00  0.00     0.086 A 
ATOM    128  C8  CYF d   1      -4.300   0.777  48.593  0.00  0.00    -0.070 A 
ATOM    129  O2  CYF d   1      -1.502   2.864  50.062  0.00  0.00    -0.309 OA
ATOM    130  C5  CYF d   1      -1.475   0.803  48.750  0.00  0.00    -0.018 A 
ATOM    131  C3  CYF d   1      -2.292   3.905  50.709  0.00  0.00     0.086 A 
ATOM    132  C2  CYF d   1      -1.575   4.909  51.385  0.00  0.00    -0.018 A 
ATOM    133  C11 CYF d   1      -3.708   3.929  50.671  0.00  0.00    -0.011 A 
ATOM    134  C1  CYF d   1      -2.244   5.960  52.038  0.00  0.00     0.068 A 
ATOM    135  H65 CYF d   1      -0.492   4.872  51.403  0.00  0.00     0.092 H 
ATOM    136  C13 CYF d   1      -3.661   6.003  52.019  0.00  0.00    -0.050 A 
ATOM    137  C12 CYF d   1      -4.389   5.002  51.343  0.00  0.00    -0.070 A 
ATOM    138  H72 CYF d   1      -4.185   6.806  52.525  0.00  0.00     0.087 H 
ATOM    139  H71 CYF d   1      -5.472   5.042  51.330  0.00  0.00     0.084 H 
ATOM    140  C6  CYF d   1      -2.124  -0.246  48.069  0.00  0.00     0.068 A 
ATOM    141  H66 CYF d   1      -0.392   0.824  48.802  0.00  0.00     0.092 H 
ATOM    142  C7  CYF d   1      -3.540  -0.250  47.983  0.00  0.00    -0.050 A 
ATOM    143  H68 CYF d   1      -4.044  -1.046  47.446  0.00  0.00     0.087 H 
ATOM    144  H69 CYF d   1      -5.381   0.758  48.520  0.00  0.00     0.084 H 
ATOM    145  H70 CYF d   1      -4.464   2.284  50.872  0.00  0.00     0.062 H 
BRANCH 134 146
ATOM    146  O1  CYF d   1      -1.550   6.847  52.577  0.00  0.00    -0.361 OA
ATOM    147  H64 CYF d   1      -2.119   7.492  52.979  0.00  0.00     0.217 HD
ENDBRANCH 134 146
BRANCH 140 148
ATOM    148  O3  CYF d   1      -1.486  -1.228  47.643  0.00  0.00    -0.361 OA
ATOM    149  H67 CYF d   1      -0.831  -0.933  47.022  0.00  0.00     0.217 HD
ENDBRANCH 140 148
ENDBRANCH 120 125
BRANCH 122 150
ATOM    150  C20 CYF d   1      -5.886   3.360  47.402  0.00  0.00     0.210 C 
ATOM    151  O4  CYF d   1      -4.719   3.815  47.278  0.00  0.00    -0.644 OA
ATOM    152  O5  CYF d   1      -6.430   3.061  46.305  0.00  0.00    -0.644 OA
ENDBRANCH 122 150
ENDBRANCH 113 116
ENDBRANCH 109 112
ENDBRANCH 108 109
ENDBRANCH 105 108
ENDBRANCH 103 105
BRANCH 103 153
ATOM    153  C   CYF d   1     -14.167   5.333  48.674  0.00  0.00     0.239 C 
ATOM    154  O   CYF d   1     -13.238   6.124  48.839  0.00  0.00    -0.271 OA
ATOM    155  NT  CYF d   1     -15.133   5.156  49.572  0.00  0.00    -0.368 N 
ATOM    156  H83 CYF d   1     -15.122   5.674  50.427  0.00  0.00     0.159 HD
ATOM    157  H84 CYF d   1     -15.870   4.505  49.392  0.00  0.00     0.159 HD
ENDBRANCH 103 153
ENDBRANCH 101 103
ENDBRANCH  97  99
BRANCH  97 158
ATOM    158  CB  LEU d   1     -16.577   6.512  43.852  0.00  0.00    -0.035 C 
ATOM    159  H55 LEU d   1     -17.063   6.575  44.837  0.00  0.00     0.037 H 
ATOM    160  H56 LEU d   1     -17.096   5.765  43.234  0.00  0.00     0.037 H 
BRANCH 158 161
ATOM    161  CG  LEU d   1     -16.720   7.872  43.168  0.00  0.00    -0.059 C 
ATOM    162  H57 LEU d   1     -16.228   7.836  42.185  0.00  0.00     0.038 H 
BRANCH 161 163
ATOM    163  CD1 LEU d   1     -18.195   8.198  42.973  0.00  0.00    -0.073 C 
ATOM    164  H58 LEU d   1     -18.292   9.177  42.481  0.00  0.00     0.028 H 
ATOM    165  H59 LEU d   1     -18.696   8.228  43.952  0.00  0.00     0.028 H 
ATOM    166  H60 LEU d   1     -18.662   7.424  42.346  0.00  0.00     0.028 H 
ENDBRANCH 161 163
BRANCH 161 167
ATOM    167  CD2 LEU d   1     -16.050   8.941  44.020  0.00  0.00    -0.073 C 
ATOM    168  H61 LEU d   1     -14.987   8.692  44.152  0.00  0.00     0.028 H 
ATOM    169  H62 LEU d   1     -16.540   8.987  45.004  0.00  0.00     0.028 H 
ATOM    170  H63 LEU d   1     -16.139   9.917  43.520  0.00  0.00     0.028 H 
ENDBRANCH 161 167
ENDBRANCH 158 161
ENDBRANCH  97 158
ENDBRANCH  95  97
ENDBRANCH  91  93
BRANCH  91 171
ATOM    171  CB  ASN d   1     -12.690   3.179  41.565  0.00  0.00     0.036 C 
ATOM    172  H49 ASN d   1     -13.729   2.828  41.648  0.00  0.00     0.051 H 
ATOM    173  H50 ASN d   1     -12.140   2.917  42.481  0.00  0.00     0.051 H 
BRANCH 171 174
ATOM    174  CG  ASN d   1     -12.034   2.465  40.390  0.00  0.00     0.217 C 
ATOM    175  OD1 ASN d   1     -12.332   2.730  39.229  0.00  0.00    -0.274 OA
ATOM    176  ND2 ASN d   1     -11.157   1.514  40.700  0.00  0.00    -0.370 N 
ATOM    177  H51 ASN d   1     -10.691   1.007  39.974  0.00  0.00     0.159 HD
ATOM    178  H52 ASN d   1     -10.963   1.306  41.659  0.00  0.00     0.159 HD
ENDBRANCH 171 174
ENDBRANCH  91 171
ENDBRANCH  89  91
ENDBRANCH   1  87
BRANCH   1 179
ATOM    179  CB  ASN d   1      -9.528   7.663  39.094  0.00  0.00     0.036 C 
ATOM    180  H43 ASN d   1     -10.320   8.420  38.993  0.00  0.00     0.051 H 
ATOM    181  H44 ASN d   1      -9.594   6.949  38.259  0.00  0.00     0.051 H 
BRANCH 179 182
ATOM    182  CG  ASN d   1      -8.168   8.363  39.036  0.00  0.00     0.217 C 
ATOM    183  OD1 ASN d   1      -7.827   9.132  39.927  0.00  0.00    -0.274 OA
ATOM    184  ND2 ASN d   1      -7.398   8.099  37.995  0.00  0.00    -0.370 N 
ATOM    185  H45 ASN d   1      -6.501   8.533  37.914  0.00  0.00     0.159 HD
ATOM    186  H46 ASN d   1      -7.713   7.465  37.288  0.00  0.00     0.159 HD
ENDBRANCH 179 182
ENDBRANCH   1 179
TORSDOF 51
