REMARK WARNING: 32 MAX_TORS EXCEEDED!!!
REMARK  65 active torsions:
REMARK  status: ('A' for Active; 'I' for Inactive)
REMARK    1  A    between atoms: N_1  and  CA_2 
REMARK    2  A    between atoms: CA_2  and  C_3 
REMARK    3  A    between atoms: CA_2  and  CB_5 
REMARK       I    between atoms: C_3  and  N_9 
REMARK    4  A    between atoms: CB_5  and  CG_6 
REMARK    5  A    between atoms: N_9  and  CA_10 
REMARK    6  A    between atoms: CA_10  and  C_11 
REMARK       I    between atoms: C_11  and  N_13 
REMARK    7  A    between atoms: N_13  and  CA_14 
REMARK    8  A    between atoms: CA_14  and  C_15 
REMARK       I    between atoms: C_15  and  N_17 
REMARK    9  A    between atoms: N_17  and  CA_18 
REMARK   10  A    between atoms: CA_18  and  C_19 
REMARK   11  A    between atoms: CA_18  and  CB_21 
REMARK       I    between atoms: C_19  and  N_24 
REMARK   12  A    between atoms: CB_21  and  OG1_22 
REMARK   13  A    between atoms: CB_21  and  CG2_23 
REMARK   14  A    between atoms: N_24  and  CA_25 
REMARK   15  A    between atoms: CA_25  and  C_26 
REMARK   16  A    between atoms: CA_25  and  CB_28 
REMARK       I    between atoms: C_26  and  N_31 
REMARK   17  A    between atoms: CB_28  and  OG1_29 
REMARK   18  A    between atoms: CB_28  and  CG2_30 
REMARK   19  A    between atoms: N_31  and  CA_32 
REMARK   20  A    between atoms: CA_32  and  C_33 
REMARK   21  A    between atoms: CA_32  and  CB_35 
REMARK       I    between atoms: C_33  and  N_42 
REMARK   22  A    between atoms: CB_35  and  CG_36 
REMARK   23  A    between atoms: N_42  and  CA_43 
REMARK   24  A    between atoms: CA_43  and  C_44 
REMARK   25  A    between atoms: CA_43  and  CB_46 
REMARK       I    between atoms: C_44  and  N_51 
REMARK   26  A    between atoms: CB_46  and  CG_47 
REMARK   27  A    between atoms: CG_47  and  CD_48 
REMARK   28  A    between atoms: N_51  and  CA_52 
REMARK   29  A    between atoms: CA_52  and  C_53 
REMARK   30  A    between atoms: CA_52  and  CB_55 
REMARK       I    between atoms: C_53  and  N_61 
REMARK   31  A    between atoms: CB_55  and  CG_56 
REMARK   32  A    between atoms: N_61  and  CA_62 
REMARK   33  A    between atoms: CA_62  and  C_63 
REMARK   34  A    between atoms: CA_62  and  CB_65 
REMARK       I    between atoms: C_63  and  N_69 
REMARK   35  A    between atoms: CB_65  and  CG_66 
REMARK   36  A    between atoms: CG_66  and  CD1_67 
REMARK   37  A    between atoms: CG_66  and  CD2_68 
REMARK   38  A    between atoms: N_69  and  CA_70 
REMARK   39  A    between atoms: CA_70  and  C_71 
REMARK   40  A    between atoms: CA_70  and  CB_73 
REMARK       I    between atoms: C_71  and  N_83 
REMARK   41  A    between atoms: CB_73  and  CG_74 
REMARK   42  A    between atoms: N_83  and  CA_84 
REMARK   43  A    between atoms: CA_84  and  C_85 
REMARK   44  A    between atoms: CA_84  and  CB_87 
REMARK       I    between atoms: C_85  and  N_89 
REMARK   45  A    between atoms: CB_87  and  OG_88 
REMARK   46  A    between atoms: N_89  and  CA_90 
REMARK   47  A    between atoms: CA_90  and  C_91 
REMARK   48  A    between atoms: CA_90  and  CB_93 
REMARK       I    between atoms: C_91  and  N_95 
REMARK   49  A    between atoms: CB_93  and  OG_94 
REMARK   50  A    between atoms: N_95  and  CA_96 
REMARK   51  A    between atoms: CA_96  and  C_97 
REMARK   52  A    between atoms: CA_96  and  CB_99 
REMARK       I    between atoms: C_97  and  N_103 
REMARK   53  A    between atoms: CB_99  and  CG_100 
REMARK   54  A    between atoms: CG_100  and  CD1_101 
REMARK   55  A    between atoms: CG_100  and  CD2_102 
REMARK   56  A    between atoms: N_103  and  CA_104 
REMARK   57  A    between atoms: CA_104  and  C_105 
REMARK   58  A    between atoms: CA_104  and  CB_107 
REMARK       I    between atoms: C_105  and  N_112 
REMARK   59  A    between atoms: CB_107  and  CG_108 
REMARK   60  A    between atoms: CG_108  and  CD_109 
REMARK   61  A    between atoms: CA_113  and  C_114 
REMARK       I    between atoms: C_114  and  N_119 
REMARK   62  A    between atoms: N_119  and  CA_120 
REMARK   63  A    between atoms: CA_120  and  C_121 
REMARK   64  A    between atoms: CA_120  and  CB_123 
REMARK   65  A    between atoms: CB_123  and  CG_124 
ROOT
ATOM      1  CA  LEU d   1      56.056 -10.018   7.129  0.00  0.00     0.089 C 
ATOM      2  H50 LEU d   1      55.086  -9.577   7.401  0.00  0.00     0.087 H 
ENDROOT
BRANCH   1   3
ATOM      3  N   LEU d   1      56.376 -11.004   8.176  0.00  0.00    -0.346 N 
ATOM      4  C   HIS d   1      55.508 -11.926   8.542  0.00  0.00     0.241 C 
ATOM      5  O   HIS d   1      54.495 -12.174   7.911  0.00  0.00    -0.271 OA
ATOM      6  H49 LEU d   1      57.272 -10.973   8.619  0.00  0.00     0.163 HD
BRANCH   4   7
ATOM      7  CA  HIS d   1      55.851 -12.742   9.770  0.00  0.00     0.094 C 
ATOM      8  H43 HIS d   1      55.107 -13.547   9.856  0.00  0.00     0.088 H 
BRANCH   7   9
ATOM      9  N   HIS d   1      57.147 -13.358   9.662  0.00  0.00    -0.346 N 
ATOM     10  C   GLU d   1      57.264 -14.593   9.224  0.00  0.00     0.241 C 
ATOM     11  O   GLU d   1      56.325 -15.205   8.704  0.00  0.00    -0.271 OA
ATOM     12  H42 HIS d   1      57.964 -12.844   9.922  0.00  0.00     0.163 HD
BRANCH  10  13
ATOM     13  CA  GLU d   1      58.662 -15.218   9.312  0.00  0.00     0.090 C 
ATOM     14  H37 GLU d   1      58.734 -16.032   8.576  0.00  0.00     0.087 H 
BRANCH  13  15
ATOM     15  N   GLU d   1      59.687 -14.240   9.034  0.00  0.00    -0.346 N 
ATOM     16  C   PHE d   1      59.802 -13.637   7.869  0.00  0.00     0.241 C 
ATOM     17  O   PHE d   1      58.994 -13.778   6.961  0.00  0.00    -0.271 OA
ATOM     18  H36 GLU d   1      60.338 -14.011   9.758  0.00  0.00     0.163 HD
BRANCH  16  19
ATOM     19  CA  PHE d   1      60.978 -12.667   7.743  0.00  0.00     0.093 C 
ATOM     20  H28 PHE d   1      60.677 -11.845   7.076  0.00  0.00     0.088 H 
BRANCH  19  21
ATOM     21  N   PHE d   1      61.317 -12.105   9.038  0.00  0.00    -0.346 N 
ATOM     22  C   THR d   1      60.456 -11.418   9.798  0.00  0.00     0.243 C 
ATOM     23  O   THR d   1      59.264 -11.192   9.481  0.00  0.00    -0.271 OA
ATOM     24  H27 PHE d   1      62.247 -12.239   9.382  0.00  0.00     0.163 HD
BRANCH  22  25
ATOM     25  CA  THR d   1      61.017 -10.946  11.123  0.00  0.00     0.113 C 
ATOM     26  H21 THR d   1      62.113 -10.937  11.025  0.00  0.00     0.091 H 
BRANCH  25  27
ATOM     27  N   THR d   1      60.622  -9.592  11.436  0.00  0.00    -0.344 N 
ATOM     28  C   THR d   1      61.062  -8.558  10.729  0.00  0.00     0.243 C 
ATOM     29  O   THR d   1      61.790  -8.680   9.731  0.00  0.00    -0.271 OA
ATOM     30  H20 THR d   1      60.002  -9.430  12.204  0.00  0.00     0.163 HD
BRANCH  28  31
ATOM     31  CA  THR d   1      60.669  -7.171  11.258  0.00  0.00     0.113 C 
ATOM     32  H14 THR d   1      60.377  -7.305  12.310  0.00  0.00     0.091 H 
BRANCH  31  33
ATOM     33  N   THR d   1      61.763  -6.261  11.228  0.00  0.00    -0.344 N 
ATOM     34  C   GLY d   1      62.773  -6.344  12.034  0.00  0.00     0.236 C 
ATOM     35  O   GLY d   1      62.921  -7.257  12.861  0.00  0.00    -0.272 OA
ATOM     36  H13 THR d   1      61.751  -5.523  10.553  0.00  0.00     0.163 HD
BRANCH  34  37
ATOM     37  CA  GLY d   1      63.760  -5.231  11.921  0.00  0.00     0.069 C 
ATOM     38  H11 GLY d   1      64.600  -5.411  12.608  0.00  0.00     0.078 H 
ATOM     39  H12 GLY d   1      64.136  -5.175  10.889  0.00  0.00     0.078 H 
BRANCH  37  40
ATOM     40  N   GLY d   1      63.113  -3.999  12.265  0.00  0.00    -0.351 N 
ATOM     41  C   GLY d   1      63.603  -2.859  11.981  0.00  0.00     0.235 C 
ATOM     42  O   GLY d   1      64.651  -2.694  11.336  0.00  0.00    -0.272 OA
ATOM     43  H10 GLY d   1      62.239  -4.037  12.749  0.00  0.00     0.163 HD
BRANCH  41  44
ATOM     44  CA  GLY d   1      62.792  -1.699  12.453  0.00  0.00     0.069 C 
ATOM     45  H8  GLY d   1      62.100  -2.044  13.235  0.00  0.00     0.078 H 
ATOM     46  H9  GLY d   1      63.469  -0.940  12.872  0.00  0.00     0.078 H 
BRANCH  44  47
ATOM     47  N   GLY d   1      62.040  -1.113  11.401  0.00  0.00    -0.351 N 
ATOM     48  C   ASP d   1      60.756  -1.269  11.324  0.00  0.00     0.249 C 
ATOM     49  O   ASP d   1      60.120  -1.974  12.113  0.00  0.00    -0.271 OA
ATOM     50  H7  GLY d   1      62.510  -0.569  10.706  0.00  0.00     0.163 HD
BRANCH  48  51
ATOM     51  CA  ASP d   1      60.060  -0.523  10.204  0.00  0.00     0.185 C 
ATOM     52  H4  ASP d   1      59.435   0.257  10.664  0.00  0.00     0.100 H 
BRANCH  51  53
ATOM     53  N   ASP d   1      61.024   0.156   9.312  0.00  0.00    -0.066 N 
ATOM     54  H1  ASP d   1      60.524   0.639   8.582  0.00  0.00     0.275 HD
ATOM     55  H2  ASP d   1      61.640  -0.527   8.901  0.00  0.00     0.275 HD
ATOM     56  H3  ASP d   1      61.565   0.819   9.845  0.00  0.00     0.275 HD
ENDBRANCH  51  53
BRANCH  51  57
ATOM     57  CB  ASP d   1      59.135  -1.458   9.434  0.00  0.00     0.050 C 
ATOM     58  H5  ASP d   1      58.516  -0.857   8.751  0.00  0.00     0.052 H 
ATOM     59  H6  ASP d   1      58.486  -1.982  10.152  0.00  0.00     0.052 H 
BRANCH  57  60
ATOM     60  CG  ASP d   1      59.882  -2.476   8.633  0.00  0.00     0.175 C 
ATOM     61  OD1 ASP d   1      60.293  -3.505   9.168  0.00  0.00    -0.648 OA
ATOM     62  OD2 ASP d   1      60.066  -2.267   7.426  0.00  0.00    -0.648 OA
ENDBRANCH  57  60
ENDBRANCH  51  57
ENDBRANCH  48  51
ENDBRANCH  44  47
ENDBRANCH  41  44
ENDBRANCH  37  40
ENDBRANCH  34  37
ENDBRANCH  31  33
BRANCH  31  63
ATOM     63  CB  THR d   1      59.467  -6.542  10.527  0.00  0.00     0.060 C 
ATOM     64  H15 THR d   1      58.684  -7.301  10.384  0.00  0.00     0.086 H 
BRANCH  63  65
ATOM     65  OG1 THR d   1      59.881  -6.026   9.244  0.00  0.00    -0.393 OA
ATOM     66  H16 THR d   1      60.550  -5.364   9.371  0.00  0.00     0.210 HD
ENDBRANCH  63  65
BRANCH  63  67
ATOM     67  CG2 THR d   1      58.925  -5.391  11.366  0.00  0.00    -0.050 C 
ATOM     68  H17 THR d   1      58.066  -4.935  10.852  0.00  0.00     0.031 H 
ATOM     69  H18 THR d   1      59.712  -4.636  11.504  0.00  0.00     0.031 H 
ATOM     70  H19 THR d   1      58.605  -5.771  12.347  0.00  0.00     0.031 H 
ENDBRANCH  63  67
ENDBRANCH  31  63
ENDBRANCH  28  31
ENDBRANCH  25  27
BRANCH  25  71
ATOM     71  CB  THR d   1      60.670 -11.968  12.258  0.00  0.00     0.060 C 
ATOM     72  H22 THR d   1      61.192 -11.655  13.174  0.00  0.00     0.086 H 
BRANCH  71  73
ATOM     73  OG1 THR d   1      61.120 -13.284  11.894  0.00  0.00    -0.393 OA
ATOM     74  H23 THR d   1      60.904 -13.895  12.589  0.00  0.00     0.210 HD
ENDBRANCH  71  73
BRANCH  71  75
ATOM     75  CG2 THR d   1      59.175 -12.018  12.548  0.00  0.00    -0.050 C 
ATOM     76  H24 THR d   1      58.981 -12.747  13.349  0.00  0.00     0.031 H 
ATOM     77  H25 THR d   1      58.635 -12.320  11.639  0.00  0.00     0.031 H 
ATOM     78  H26 THR d   1      58.830 -11.023  12.866  0.00  0.00     0.031 H 
ENDBRANCH  71  75
ENDBRANCH  25  71
ENDBRANCH  22  25
ENDBRANCH  19  21
BRANCH  19  79
ATOM     79  CB  PHE d   1      62.205 -13.368   7.125  0.00  0.00    -0.014 C 
ATOM     80  H29 PHE d   1      62.520 -14.175   7.803  0.00  0.00     0.043 H 
ATOM     81  H30 PHE d   1      63.015 -12.630   7.032  0.00  0.00     0.043 H 
BRANCH  79  82
ATOM     82  CG  PHE d   1      61.951 -13.962   5.771  0.00  0.00    -0.056 A 
ATOM     83  CD1 PHE d   1      62.052 -13.186   4.640  0.00  0.00    -0.077 A 
ATOM     84  CE1 PHE d   1      61.807 -13.720   3.402  0.00  0.00    -0.082 A 
ATOM     85  H31 PHE d   1      62.328 -12.142   4.729  0.00  0.00     0.084 H 
ATOM     86  CZ  PHE d   1      61.458 -15.039   3.281  0.00  0.00    -0.083 A 
ATOM     87  H33 PHE d   1      61.889 -13.098   2.518  0.00  0.00     0.083 H 
ATOM     88  CE2 PHE d   1      61.354 -15.831   4.396  0.00  0.00    -0.082 A 
ATOM     89  H35 PHE d   1      61.263 -15.458   2.301  0.00  0.00     0.083 H 
ATOM     90  CD2 PHE d   1      61.599 -15.294   5.632  0.00  0.00    -0.077 A 
ATOM     91  H34 PHE d   1      61.080 -16.875   4.300  0.00  0.00     0.083 H 
ATOM     92  H32 PHE d   1      61.516 -15.920   6.513  0.00  0.00     0.084 H 
ENDBRANCH  79  82
ENDBRANCH  19  79
ENDBRANCH  16  19
ENDBRANCH  13  15
BRANCH  13  93
ATOM     93  CB  GLU d   1      58.885 -15.782  10.711  0.00  0.00    -0.029 C 
ATOM     94  H38 GLU d   1      58.789 -14.958  11.433  0.00  0.00     0.037 H 
ATOM     95  H39 GLU d   1      59.904 -16.193  10.757  0.00  0.00     0.037 H 
BRANCH  93  96
ATOM     96  CG  GLU d   1      57.917 -16.875  11.110  0.00  0.00     0.018 C 
ATOM     97  H40 GLU d   1      58.047 -17.730  10.430  0.00  0.00     0.049 H 
ATOM     98  H41 GLU d   1      56.891 -16.489  11.021  0.00  0.00     0.049 H 
BRANCH  96  99
ATOM     99  CD  GLU d   1      58.138 -17.340  12.517  0.00  0.00     0.172 C 
ATOM    100  OE1 GLU d   1      58.931 -18.272  12.728  0.00  0.00    -0.648 OA
ATOM    101  OE2 GLU d   1      57.522 -16.786  13.437  0.00  0.00    -0.648 OA
ENDBRANCH  96  99
ENDBRANCH  93  96
ENDBRANCH  13  93
ENDBRANCH  10  13
ENDBRANCH   7   9
BRANCH   7 102
ATOM    102  CB  HIS d   1      55.753 -11.870  11.033  0.00  0.00     0.002 C 
ATOM    103  H44 HIS d   1      56.479 -11.049  10.942  0.00  0.00     0.046 H 
ATOM    104  H45 HIS d   1      56.011 -12.493  11.902  0.00  0.00     0.046 H 
BRANCH 102 105
ATOM    105  CG  HIS d   1      54.387 -11.270  11.269  0.00  0.00     0.030 A 
ATOM    106  ND1 HIS d   1      54.086  -9.950  11.014  0.00  0.00    -0.353 N 
ATOM    107  CE1 HIS d   1      52.833  -9.713  11.319  0.00  0.00     0.063 A 
ATOM    108  H46 HIS d   1      54.746  -9.254  10.640  0.00  0.00     0.166 HD
ATOM    109  NE2 HIS d   1      52.294 -10.833  11.770  0.00  0.00    -0.254 NA
ATOM    110  H48 HIS d   1      52.323  -8.756  11.218  0.00  0.00     0.143 H 
ATOM    111  CD2 HIS d   1      53.249 -11.824  11.748  0.00  0.00     0.025 A 
ATOM    112  H47 HIS d   1      53.114 -12.859  12.058  0.00  0.00     0.117 H 
ENDBRANCH 102 105
ENDBRANCH   7 102
ENDBRANCH   4   7
ENDBRANCH   1   3
BRANCH   1 113
ATOM    113  C   LEU d   1      55.866 -10.647   5.740  0.00  0.00     0.241 C 
ATOM    114  O   LEU d   1      55.235 -10.059   4.860  0.00  0.00    -0.271 OA
ATOM    115  N   TRP d   1      56.400 -11.834   5.572  0.00  0.00    -0.346 N 
ATOM    116  H60 TRP d   1      56.914 -12.241   6.327  0.00  0.00     0.163 HD
BRANCH 115 117
ATOM    117  CA  TRP d   1      56.276 -12.569   4.350  0.00  0.00     0.093 C 
ATOM    118  H61 TRP d   1      56.263 -11.860   3.509  0.00  0.00     0.088 H 
BRANCH 117 119
ATOM    119  C   TRP d   1      54.964 -13.342   4.347  0.00  0.00     0.241 C 
ATOM    120  O   TRP d   1      54.207 -13.291   3.401  0.00  0.00    -0.271 OA
ATOM    121  N   SER d   1      54.671 -13.984   5.454  0.00  0.00    -0.344 N 
ATOM    122  H70 SER d   1      55.283 -13.898   6.240  0.00  0.00     0.163 HD
BRANCH 121 123
ATOM    123  CA  SER d   1      53.489 -14.813   5.573  0.00  0.00     0.109 C 
ATOM    124  H71 SER d   1      53.392 -15.424   4.663  0.00  0.00     0.090 H 
BRANCH 123 125
ATOM    125  C   SER d   1      52.210 -13.963   5.734  0.00  0.00     0.243 C 
ATOM    126  O   SER d   1      51.112 -14.469   5.621  0.00  0.00    -0.271 OA
ATOM    127  N   SER d   1      52.386 -12.683   5.982  0.00  0.00    -0.344 N 
ATOM    128  H75 SER d   1      53.320 -12.325   5.971  0.00  0.00     0.163 HD
BRANCH 127 129
ATOM    129  CA  SER d   1      51.304 -11.761   6.270  0.00  0.00     0.109 C 
ATOM    130  H76 SER d   1      50.360 -12.325   6.298  0.00  0.00     0.090 H 
BRANCH 129 131
ATOM    131  C   SER d   1      51.188 -10.675   5.197  0.00  0.00     0.243 C 
ATOM    132  O   SER d   1      50.602  -9.600   5.441  0.00  0.00    -0.271 OA
ATOM    133  N   LEU d   1      51.721 -10.925   4.015  0.00  0.00    -0.346 N 
ATOM    134  H80 LEU d   1      52.102 -11.826   3.809  0.00  0.00     0.163 HD
BRANCH 133 135
ATOM    135  CA  LEU d   1      51.743  -9.874   3.026  0.00  0.00     0.089 C 
ATOM    136  H81 LEU d   1      51.603  -8.931   3.574  0.00  0.00     0.087 H 
BRANCH 135 137
ATOM    137  C   LEU d   1      50.580  -9.981   2.066  0.00  0.00     0.241 C 
ATOM    138  O   LEU d   1      50.402  -9.122   1.222  0.00  0.00    -0.271 OA
ATOM    139  N   GLU d   1      49.761 -10.993   2.252  0.00  0.00    -0.346 N 
ATOM    140  H91 GLU d   1      49.912 -11.602   3.031  0.00  0.00     0.163 HD
BRANCH 139 141
ATOM    141  CA  GLU d   1      48.650 -11.252   1.366  0.00  0.00     0.090 C 
ATOM    142  H92 GLU d   1      49.004 -11.174   0.328  0.00  0.00     0.087 H 
BRANCH 141 143
ATOM    143  C   GLU d   1      47.542 -10.199   1.593  0.00  0.00     0.243 C 
ATOM    144  O   GLU d   1      47.467  -9.613   2.677  0.00  0.00    -0.271 OA
ATOM    145  N   PRO d   1      46.681  -9.951   0.592  0.00  0.00    -0.337 N 
ATOM    146  CA  PRO d   1      45.614  -8.945   0.688  0.00  0.00     0.091 C 
ATOM    147  CD  PRO d   1      46.705 -10.607  -0.715  0.00  0.00    -0.001 C 
ATOM    148  CB  PRO d   1      44.862  -9.047  -0.648  0.00  0.00    -0.036 C 
ATOM    149  H97 PRO d   1      46.062  -7.945   0.787  0.00  0.00     0.087 H 
ATOM    150  CG  PRO d   1      45.351 -10.302  -1.297  0.00  0.00    -0.048 C 
ATOM    151  H98 PRO d   1      45.087  -8.176  -1.281  0.00  0.00     0.036 H 
ATOM    152  H99 PRO d   1      43.777  -9.104  -0.473  0.00  0.00     0.036 H 
ATOM    153 0H10 PRO d   1      45.432 -10.157  -2.384  0.00  0.00     0.035 H 
ATOM    154 1H10 PRO d   1      44.657 -11.129  -1.089  0.00  0.00     0.035 H 
ATOM    155 2H10 PRO d   1      46.849 -11.692  -0.606  0.00  0.00     0.064 H 
ATOM    156 3H10 PRO d   1      47.505 -10.193  -1.346  0.00  0.00     0.064 H 
BRANCH 146 157
ATOM    157  C   PRO d   1      44.682  -9.165   1.873  0.00  0.00     0.241 C 
ATOM    158  O   PRO d   1      44.721  -8.402   2.845  0.00  0.00    -0.271 OA
ATOM    159  N   ASP d   1      43.905 -10.214   1.828  0.00  0.00    -0.344 N 
ATOM    160 4H10 ASP d   1      43.965 -10.831   1.043  0.00  0.00     0.163 HD
BRANCH 159 161
ATOM    161  CA  ASP d   1      42.966 -10.506   2.876  0.00  0.00     0.105 C 
ATOM    162 5H10 ASP d   1      43.451 -10.302   3.842  0.00  0.00     0.090 H 
BRANCH 161 163
ATOM    163  C   ASP d   1      42.600 -11.947   2.824  0.00  0.00     0.197 C 
ATOM    164  O   ASP d   1      42.058 -12.383   1.797  0.00  0.00    -0.646 OA
ATOM    165  OXT ASP d   1      42.867 -12.673   3.791  0.00  0.00    -0.646 OA
ENDBRANCH 161 163
BRANCH 161 166
ATOM    166  CB  ASP d   1      41.718  -9.636   2.779  0.00  0.00     0.044 C 
ATOM    167 6H10 ASP d   1      41.282  -9.754   1.776  0.00  0.00     0.053 H 
ATOM    168 7H10 ASP d   1      42.006  -8.586   2.933  0.00  0.00     0.053 H 
BRANCH 166 169
ATOM    169  CG  ASP d   1      40.670 -10.013   3.816  0.00  0.00     0.175 C 
ATOM    170  OD1 ASP d   1      40.788  -9.559   4.977  0.00  0.00    -0.648 OA
ATOM    171  OD2 ASP d   1      39.723 -10.757   3.496  0.00  0.00    -0.648 OA
ENDBRANCH 166 169
ENDBRANCH 161 166
ENDBRANCH 159 161
ENDBRANCH 146 157
ENDBRANCH 141 143
BRANCH 141 172
ATOM    172  CB  GLU d   1      48.088 -12.672   1.587  0.00  0.00    -0.029 C 
ATOM    173  H93 GLU d   1      48.929 -13.380   1.574  0.00  0.00     0.037 H 
ATOM    174  H94 GLU d   1      47.402 -12.902   0.759  0.00  0.00     0.037 H 
BRANCH 172 175
ATOM    175  CG  GLU d   1      47.338 -12.855   2.886  0.00  0.00     0.018 C 
ATOM    176  H95 GLU d   1      46.680 -13.729   2.775  0.00  0.00     0.049 H 
ATOM    177  H96 GLU d   1      46.728 -11.955   3.053  0.00  0.00     0.049 H 
BRANCH 175 178
ATOM    178  CD  GLU d   1      48.182 -13.068   4.102  0.00  0.00     0.172 C 
ATOM    179  OE1 GLU d   1      48.550 -12.078   4.749  0.00  0.00    -0.648 OA
ATOM    180  OE2 GLU d   1      48.417 -14.226   4.472  0.00  0.00    -0.648 OA
ENDBRANCH 175 178
ENDBRANCH 172 175
ENDBRANCH 141 172
ENDBRANCH 139 141
ENDBRANCH 135 137
BRANCH 135 181
ATOM    181  CB  LEU d   1      53.123  -9.756   2.307  0.00  0.00    -0.035 C 
ATOM    182  H82 LEU d   1      53.879  -9.601   3.091  0.00  0.00     0.037 H 
ATOM    183  H83 LEU d   1      53.073  -8.865   1.664  0.00  0.00     0.037 H 
BRANCH 181 184
ATOM    184  CG  LEU d   1      53.624 -10.919   1.424  0.00  0.00    -0.059 C 
ATOM    185  H84 LEU d   1      53.412 -11.861   1.951  0.00  0.00     0.038 H 
BRANCH 184 186
ATOM    186  CD1 LEU d   1      52.914 -10.963   0.076  0.00  0.00    -0.073 C 
ATOM    187  H85 LEU d   1      53.303 -11.805  -0.516  0.00  0.00     0.028 H 
ATOM    188  H86 LEU d   1      53.093 -10.021  -0.464  0.00  0.00     0.028 H 
ATOM    189  H87 LEU d   1      51.834 -11.095   0.235  0.00  0.00     0.028 H 
ENDBRANCH 184 186
BRANCH 184 190
ATOM    190  CD2 LEU d   1      55.120 -10.812   1.220  0.00  0.00    -0.073 C 
ATOM    191  H88 LEU d   1      55.622 -10.781   2.198  0.00  0.00     0.028 H 
ATOM    192  H89 LEU d   1      55.349  -9.893   0.661  0.00  0.00     0.028 H 
ATOM    193  H90 LEU d   1      55.476 -11.684   0.653  0.00  0.00     0.028 H 
ENDBRANCH 184 190
ENDBRANCH 181 184
ENDBRANCH 135 181
ENDBRANCH 133 135
ENDBRANCH 129 131
BRANCH 129 194
ATOM    194  CB  SER d   1      51.542 -11.125   7.636  0.00  0.00     0.044 C 
ATOM    195  H77 SER d   1      50.718 -10.432   7.859  0.00  0.00     0.077 H 
ATOM    196  H78 SER d   1      52.492 -10.570   7.615  0.00  0.00     0.077 H 
BRANCH 194 197
ATOM    197  OG  SER d   1      51.605 -12.119   8.655  0.00  0.00    -0.398 OA
ATOM    198  H79 SER d   1      52.318 -12.718   8.468  0.00  0.00     0.209 HD
ENDBRANCH 194 197
ENDBRANCH 129 194
ENDBRANCH 127 129
ENDBRANCH 123 125
BRANCH 123 199
ATOM    199  CB  SER d   1      53.649 -15.734   6.781  0.00  0.00     0.044 C 
ATOM    200  H72 SER d   1      52.822 -16.459   6.790  0.00  0.00     0.077 H 
ATOM    201  H73 SER d   1      53.617 -15.129   7.699  0.00  0.00     0.077 H 
BRANCH 199 202
ATOM    202  OG  SER d   1      54.889 -16.444   6.735  0.00  0.00    -0.398 OA
ATOM    203  H74 SER d   1      55.608 -15.823   6.731  0.00  0.00     0.209 HD
ENDBRANCH 199 202
ENDBRANCH 123 199
ENDBRANCH 121 123
ENDBRANCH 117 119
BRANCH 117 204
ATOM    204  CB  TRP d   1      57.485 -13.501   4.180  0.00  0.00    -0.012 C 
ATOM    205  H62 TRP d   1      57.594 -14.092   5.101  0.00  0.00     0.044 H 
ATOM    206  H63 TRP d   1      58.380 -12.878   4.036  0.00  0.00     0.044 H 
BRANCH 204 207
ATOM    207  CG  TRP d   1      57.387 -14.448   3.028  0.00  0.00    -0.028 A 
ATOM    208  CD1 TRP d   1      57.022 -15.741   3.090  0.00  0.00    -0.015 A 
ATOM    209  NE1 TRP d   1      57.036 -16.299   1.842  0.00  0.00    -0.365 N 
ATOM    210  H64 TRP d   1      56.754 -16.268   4.004  0.00  0.00     0.112 H 
ATOM    211  CE2 TRP d   1      57.421 -15.371   0.943  0.00  0.00     0.042 A 
ATOM    212  H65 TRP d   1      56.791 -17.275   1.623  0.00  0.00     0.165 HD
ATOM    213  CD2 TRP d   1      57.652 -14.179   1.652  0.00  0.00    -0.002 A 
ATOM    214  CZ2 TRP d   1      57.582 -15.472  -0.432  0.00  0.00    -0.056 A 
ATOM    215  CE3 TRP d   1      58.057 -13.060   0.958  0.00  0.00    -0.070 A 
ATOM    216  CZ3 TRP d   1      58.219 -13.153  -0.402  0.00  0.00    -0.082 A 
ATOM    217  H66 TRP d   1      58.244 -12.126   1.475  0.00  0.00     0.084 H 
ATOM    218  CH2 TRP d   1      57.984 -14.351  -1.089  0.00  0.00    -0.081 A 
ATOM    219  H68 TRP d   1      58.536 -12.278  -0.958  0.00  0.00     0.083 H 
ATOM    220  H69 TRP d   1      58.125 -14.385  -2.163  0.00  0.00     0.083 H 
ATOM    221  H67 TRP d   1      57.396 -16.401  -0.958  0.00  0.00     0.086 H 
ENDBRANCH 204 207
ENDBRANCH 117 204
ENDBRANCH 115 117
ENDBRANCH   1 113
BRANCH   1 222
ATOM    222  CB  LEU d   1      57.084  -8.861   7.127  0.00  0.00    -0.035 C 
ATOM    223  H51 LEU d   1      57.366  -8.687   8.176  0.00  0.00     0.037 H 
ATOM    224  H52 LEU d   1      56.562  -7.975   6.736  0.00  0.00     0.037 H 
BRANCH 222 225
ATOM    225  CG  LEU d   1      58.402  -8.986   6.329  0.00  0.00    -0.059 C 
ATOM    226  H53 LEU d   1      58.165  -8.858   5.263  0.00  0.00     0.038 H 
BRANCH 225 227
ATOM    227  CD1 LEU d   1      59.336  -7.912   6.749  0.00  0.00    -0.073 C 
ATOM    228  H54 LEU d   1      60.274  -8.000   6.182  0.00  0.00     0.028 H 
ATOM    229  H55 LEU d   1      59.547  -8.009   7.824  0.00  0.00     0.028 H 
ATOM    230  H56 LEU d   1      58.879  -6.931   6.552  0.00  0.00     0.028 H 
ENDBRANCH 225 227
BRANCH 225 231
ATOM    231  CD2 LEU d   1      59.088 -10.296   6.495  0.00  0.00    -0.073 C 
ATOM    232  H57 LEU d   1      58.410 -11.106   6.188  0.00  0.00     0.028 H 
ATOM    233  H58 LEU d   1      59.368 -10.432   7.550  0.00  0.00     0.028 H 
ATOM    234  H59 LEU d   1      59.993 -10.318   5.870  0.00  0.00     0.028 H 
ENDBRANCH 225 231
ENDBRANCH 222 225
ENDBRANCH   1 222
TORSDOF 65
