REMARK  24 active torsions:
REMARK  status: ('A' for Active; 'I' for Inactive)
REMARK    1  A    between atoms: CA_2  and  C_3 
REMARK       I    between atoms: C_3  and  N_8 
REMARK    2  A    between atoms: N_8  and  CA_9 
REMARK    3  A    between atoms: CA_9  and  C_10 
REMARK    4  A    between atoms: CA_9  and  CB_12 
REMARK       I    between atoms: C_10  and  N_17 
REMARK    5  A    between atoms: CB_12  and  CG_13 
REMARK    6  A    between atoms: CG_13  and  CD_14 
REMARK    7  A    between atoms: CA_18  and  C_19 
REMARK       I    between atoms: C_19  and  N_24 
REMARK    8  A    between atoms: N_24  and  CA_25 
REMARK    9  A    between atoms: CA_25  and  C_26 
REMARK       I    between atoms: C_26  and  N_28 
REMARK   10  A    between atoms: CA_29  and  C_30 
REMARK       I    between atoms: C_30  and  N_35 
REMARK   11  A    between atoms: N_35  and  CA_36 
REMARK   12  A    between atoms: CA_36  and  C_37 
REMARK   13  A    between atoms: CA_36  and  CB_39 
REMARK       I    between atoms: C_37  and  N_47 
REMARK   14  A    between atoms: CB_39  and  CG_40 
REMARK   15  A    between atoms: CZ_45  and  OH_46 
REMARK   16  A    between atoms: N_47  and  CA_48 
REMARK   17  A    between atoms: CA_48  and  C_49 
REMARK   18  A    between atoms: CA_48  and  CB_51 
REMARK       I    between atoms: C_49  and  N_52 
REMARK   19  A    between atoms: N_52  and  CA_53 
REMARK   20  A    between atoms: CA_53  and  C_54 
REMARK   21  A    between atoms: CA_53  and  CB_56 
REMARK       I    between atoms: C_54  and  N_61 
REMARK   22  A    between atoms: CB_56  and  CG_57 
REMARK   23  A    between atoms: CG_57  and  CD_58 
REMARK       I    between atoms: CD_58  and  NE2_60 
REMARK   24  A    between atoms: CA_62  and  C_63 
ROOT
ATOM      1  C   PRO d   1      -4.769   3.569 -10.300  0.00  0.00     0.241 C 
ATOM      2  O   PRO d   1      -3.562   3.716 -10.530  0.00  0.00    -0.271 OA
ATOM      3  N   TYR d   1      -5.721   4.357 -10.845  0.00  0.00    -0.346 N 
ATOM      4  H33 TYR d   1      -6.667   4.230 -10.546  0.00  0.00     0.163 HD
ENDROOT
BRANCH   1   5
ATOM      5  CA  PRO d   1      -5.264   2.479  -9.320  0.00  0.00     0.091 C 
ATOM      6  N   PRO d   1      -4.244   1.421  -9.037  0.00  0.00    -0.337 N 
ATOM      7  C   GLY d   1      -3.813   0.504  -9.969  0.00  0.00     0.238 C 
ATOM      8  CD  PRO d   1      -3.804   1.484  -7.621  0.00  0.00    -0.001 C 
ATOM      9  O   GLY d   1      -4.215   0.523 -11.138  0.00  0.00    -0.272 OA
ATOM     10  CG  PRO d   1      -5.003   2.101  -6.940  0.00  0.00    -0.048 C 
ATOM     11  H31 PRO d   1      -2.912   2.118  -7.509  0.00  0.00     0.064 H 
ATOM     12  H32 PRO d   1      -3.593   0.480  -7.224  0.00  0.00     0.064 H 
ATOM     13  CB  PRO d   1      -5.557   3.090  -7.920  0.00  0.00    -0.036 C 
ATOM     14  H29 PRO d   1      -5.752   1.330  -6.708  0.00  0.00     0.035 H 
ATOM     15  H30 PRO d   1      -4.699   2.608  -6.013  0.00  0.00     0.035 H 
ATOM     16  H27 PRO d   1      -6.640   3.215  -7.772  0.00  0.00     0.036 H 
ATOM     17  H28 PRO d   1      -5.057   4.064  -7.811  0.00  0.00     0.036 H 
ATOM     18  H26 PRO d   1      -6.173   2.021  -9.738  0.00  0.00     0.087 H 
BRANCH   7  19
ATOM     19  CA  GLY d   1      -2.793  -0.562  -9.542  0.00  0.00     0.069 C 
ATOM     20  H24 GLY d   1      -1.779  -0.184  -9.741  0.00  0.00     0.078 H 
ATOM     21  H25 GLY d   1      -2.909  -0.753  -8.465  0.00  0.00     0.078 H 
BRANCH  19  22
ATOM     22  N   GLY d   1      -2.979  -1.815 -10.266  0.00  0.00    -0.351 N 
ATOM     23  C   PRO d   1      -2.208  -2.893 -10.061  0.00  0.00     0.241 C 
ATOM     24  O   PRO d   1      -1.260  -2.908  -9.266  0.00  0.00    -0.271 OA
ATOM     25  H23 GLY d   1      -3.712  -1.872 -10.944  0.00  0.00     0.163 HD
BRANCH  23  26
ATOM     26  CA  PRO d   1      -2.534  -4.125 -10.943  0.00  0.00     0.091 C 
ATOM     27  N   PRO d   1      -1.690  -4.150 -12.155  0.00  0.00    -0.337 N 
ATOM     28  C   GLU d   1      -1.818  -3.211 -13.140  0.00  0.00     0.243 C 
ATOM     29  CD  PRO d   1      -0.773  -5.327 -12.166  0.00  0.00    -0.001 C 
ATOM     30  O   GLU d   1      -2.790  -2.430 -13.165  0.00  0.00    -0.271 OA
ATOM     31  CG  PRO d   1      -0.839  -5.841 -10.742  0.00  0.00    -0.048 C 
ATOM     32  H21 PRO d   1       0.252  -5.024 -12.428  0.00  0.00     0.064 H 
ATOM     33  H22 PRO d   1      -1.122  -6.091 -12.876  0.00  0.00     0.064 H 
ATOM     34  CB  PRO d   1      -2.207  -5.469 -10.242  0.00  0.00    -0.036 C 
ATOM     35  H19 PRO d   1      -0.706  -6.933 -10.721  0.00  0.00     0.035 H 
ATOM     36  H20 PRO d   1      -0.062  -5.365 -10.126  0.00  0.00     0.035 H 
ATOM     37  H17 PRO d   1      -2.943  -6.239 -10.518  0.00  0.00     0.036 H 
ATOM     38  H18 PRO d   1      -2.199  -5.344  -9.149  0.00  0.00     0.036 H 
ATOM     39  H16 PRO d   1      -3.599  -4.090 -11.216  0.00  0.00     0.087 H 
BRANCH  28  40
ATOM     40  CA  GLU d   1      -0.768  -3.157 -14.280  0.00  0.00     0.090 C 
ATOM     41  H11 GLU d   1      -0.567  -4.180 -14.631  0.00  0.00     0.087 H 
BRANCH  40  42
ATOM     42  N   GLU d   1      -1.332  -2.368 -15.388  0.00  0.00    -0.346 N 
ATOM     43  C   PRO d   1      -0.861  -2.377 -16.641  0.00  0.00     0.249 C 
ATOM     44  O   PRO d   1       0.044  -3.131 -17.019  0.00  0.00    -0.271 OA
ATOM     45  H10 GLU d   1      -2.121  -1.786 -15.191  0.00  0.00     0.163 HD
BRANCH  43  46
ATOM     46  CA  PRO d   1      -1.556  -1.404 -17.620  0.00  0.00     0.178 C 
ATOM     47  N   PRO d   1      -2.048  -0.196 -16.894  0.00  0.00    -0.062 N 
ATOM     48  CD  PRO d   1      -1.371   0.977 -17.497  0.00  0.00     0.083 C 
ATOM     49  H1  PRO d   1      -1.818  -0.263 -15.915  0.00  0.00     0.278 HD
ATOM     50  H2  PRO d   1      -3.047  -0.111 -17.000  0.00  0.00     0.278 HD
ATOM     51  CG  PRO d   1      -0.957   0.526 -18.893  0.00  0.00    -0.040 C 
ATOM     52  H8  PRO d   1      -0.488   1.259 -16.905  0.00  0.00     0.075 H 
ATOM     53  H9  PRO d   1      -2.061   1.832 -17.557  0.00  0.00     0.075 H 
ATOM     54  CB  PRO d   1      -0.611  -0.926 -18.753  0.00  0.00    -0.028 C 
ATOM     55  H6  PRO d   1      -1.787   0.658 -19.602  0.00  0.00     0.035 H 
ATOM     56  H7  PRO d   1      -0.084   1.099 -19.240  0.00  0.00     0.035 H 
ATOM     57  H4  PRO d   1      -0.808  -1.471 -19.688  0.00  0.00     0.036 H 
ATOM     58  H5  PRO d   1       0.444  -1.055 -18.469  0.00  0.00     0.036 H 
ATOM     59  H3  PRO d   1      -2.412  -1.926 -18.072  0.00  0.00     0.099 H 
ENDBRANCH  43  46
ENDBRANCH  40  42
BRANCH  40  60
ATOM     60  CB  GLU d   1       0.583  -2.525 -13.784  0.00  0.00    -0.029 C 
ATOM     61  H12 GLU d   1       1.216  -2.351 -14.666  0.00  0.00     0.037 H 
ATOM     62  H13 GLU d   1       1.071  -3.254 -13.120  0.00  0.00     0.037 H 
BRANCH  60  63
ATOM     63  CG  GLU d   1       0.468  -1.188 -13.014  0.00  0.00     0.018 C 
ATOM     64  H14 GLU d   1       1.463  -0.927 -12.624  0.00  0.00     0.049 H 
ATOM     65  H15 GLU d   1      -0.229  -1.331 -12.175  0.00  0.00     0.049 H 
BRANCH  63  66
ATOM     66  CD  GLU d   1      -0.041  -0.012 -13.872  0.00  0.00     0.172 C 
ATOM     67  OE1 GLU d   1      -1.254   0.177 -13.977  0.00  0.00    -0.648 OA
ATOM     68  OE2 GLU d   1       0.776   0.736 -14.432  0.00  0.00    -0.648 OA
ENDBRANCH  63  66
ENDBRANCH  60  63
ENDBRANCH  40  60
ENDBRANCH  28  40
ENDBRANCH  23  26
ENDBRANCH  19  22
ENDBRANCH   7  19
ENDBRANCH   1   5
BRANCH   3  69
ATOM     69  CA  TYR d   1      -5.444   5.399 -11.861  0.00  0.00     0.093 C 
ATOM     70  H34 TYR d   1      -4.354   5.524 -11.942  0.00  0.00     0.088 H 
BRANCH  69  71
ATOM     71  C   TYR d   1      -6.062   6.745 -11.457  0.00  0.00     0.241 C 
ATOM     72  O   TYR d   1      -7.019   6.794 -10.667  0.00  0.00    -0.271 OA
ATOM     73  N   ALA d   1      -5.484   7.812 -12.026  0.00  0.00    -0.346 N 
ATOM     74  H42 ALA d   1      -4.670   7.653 -12.585  0.00  0.00     0.163 HD
BRANCH  73  75
ATOM     75  CA  ALA d   1      -5.955   9.196 -11.891  0.00  0.00     0.086 C 
ATOM     76  H43 ALA d   1      -7.019   9.231 -12.167  0.00  0.00     0.086 H 
BRANCH  75  77
ATOM     77  C   ALA d   1      -5.167  10.102 -12.836  0.00  0.00     0.240 C 
ATOM     78  O   ALA d   1      -4.193   9.657 -13.465  0.00  0.00    -0.271 OA
ATOM     79  N   GLN d   1      -5.601  11.383 -12.905  0.00  0.00    -0.346 N 
ATOM     80  H47 GLN d   1      -6.458  11.612 -12.444  0.00  0.00     0.163 HD
BRANCH  79  81
ATOM     81  CA  GLN d   1      -4.892  12.462 -13.616  0.00  0.00     0.090 C 
ATOM     82  H48 GLN d   1      -5.471  13.387 -13.482  0.00  0.00     0.087 H 
BRANCH  81  83
ATOM     83  C   GLN d   1      -4.818  12.179 -15.139  0.00  0.00     0.243 C 
ATOM     84  O   GLN d   1      -3.859  11.554 -15.609  0.00  0.00    -0.271 OA
ATOM     85  N   PRO d   1      -5.876  12.595 -15.917  0.00  0.00    -0.336 N 
ATOM     86  CA  PRO d   1      -5.968  12.344 -17.381  0.00  0.00     0.098 C 
ATOM     87  CD  PRO d   1      -7.073  13.329 -15.422  0.00  0.00    -0.001 C 
ATOM     88  CB  PRO d   1      -7.335  12.978 -17.773  0.00  0.00    -0.035 C 
ATOM     89  H55 PRO d   1      -5.981  11.261 -17.576  0.00  0.00     0.089 H 
ATOM     90  CG  PRO d   1      -8.106  13.055 -16.489  0.00  0.00    -0.048 C 
ATOM     91  H56 PRO d   1      -7.861  12.345 -18.503  0.00  0.00     0.036 H 
ATOM     92  H57 PRO d   1      -7.189  13.982 -18.197  0.00  0.00     0.036 H 
ATOM     93  H58 PRO d   1      -8.622  12.104 -16.291  0.00  0.00     0.035 H 
ATOM     94  H59 PRO d   1      -8.843  13.870 -16.530  0.00  0.00     0.035 H 
ATOM     95  H60 PRO d   1      -6.869  14.406 -15.337  0.00  0.00     0.064 H 
ATOM     96  H61 PRO d   1      -7.400  12.940 -14.446  0.00  0.00     0.064 H 
BRANCH  86  97
ATOM     97  C   PRO d   1      -4.792  12.971 -18.182  0.00  0.00     0.196 C 
ATOM     98  O   PRO d   1      -4.035  12.227 -18.833  0.00  0.00    -0.646 OA
ATOM     99  OXT PRO d   1      -4.617  14.201 -18.136  0.00  0.00    -0.646 OA
ENDBRANCH  86  97
ENDBRANCH  81  83
BRANCH  81 100
ATOM    100  CB  GLN d   1      -3.489  12.695 -12.992  0.00  0.00    -0.030 C 
ATOM    101  H49 GLN d   1      -2.981  13.481 -13.569  0.00  0.00     0.037 H 
ATOM    102  H50 GLN d   1      -2.918  11.758 -13.067  0.00  0.00     0.037 H 
BRANCH 100 103
ATOM    103  CG  GLN d   1      -3.520  13.127 -11.507  0.00  0.00     0.011 C 
ATOM    104  H51 GLN d   1      -4.165  12.427 -10.956  0.00  0.00     0.047 H 
ATOM    105  H52 GLN d   1      -3.945  14.140 -11.450  0.00  0.00     0.047 H 
BRANCH 103 106
ATOM    106  CD  GLN d   1      -2.144  13.143 -10.838  0.00  0.00     0.215 C 
ATOM    107  OE1 GLN d   1      -1.119  13.303 -11.493  0.00  0.00    -0.274 OA
ATOM    108  NE2 GLN d   1      -2.114  13.016  -9.523  0.00  0.00    -0.370 N 
ATOM    109  H53 GLN d   1      -1.238  13.021  -9.040  0.00  0.00     0.159 HD
ATOM    110  H54 GLN d   1      -2.967  12.915  -9.011  0.00  0.00     0.159 HD
ENDBRANCH 103 106
ENDBRANCH 100 103
ENDBRANCH  81 100
ENDBRANCH  79  81
ENDBRANCH  75  77
BRANCH  75 111
ATOM    111  CB  ALA d   1      -5.807   9.708 -10.452  0.00  0.00    -0.049 C 
ATOM    112  H44 ALA d   1      -6.170  10.745 -10.393  0.00  0.00     0.030 H 
ATOM    113  H45 ALA d   1      -4.748   9.672 -10.157  0.00  0.00     0.030 H 
ATOM    114  H46 ALA d   1      -6.398   9.074  -9.775  0.00  0.00     0.030 H 
ENDBRANCH  75 111
ENDBRANCH  73  75
ENDBRANCH  69  71
BRANCH  69 115
ATOM    115  CB  TYR d   1      -6.000   4.972 -13.245  0.00  0.00    -0.014 C 
ATOM    116  H35 TYR d   1      -5.710   5.729 -13.988  0.00  0.00     0.043 H 
ATOM    117  H36 TYR d   1      -7.097   4.921 -13.182  0.00  0.00     0.043 H 
BRANCH 115 118
ATOM    118  CG  TYR d   1      -5.475   3.612 -13.705  0.00  0.00    -0.056 A 
ATOM    119  CD1 TYR d   1      -4.143   3.451 -14.085  0.00  0.00    -0.074 A 
ATOM    120  CE1 TYR d   1      -3.657   2.219 -14.455  0.00  0.00    -0.051 A 
ATOM    121  H37 TYR d   1      -3.481   4.309 -14.089  0.00  0.00     0.084 H 
ATOM    122  CZ  TYR d   1      -4.485   1.121 -14.439  0.00  0.00     0.065 A 
ATOM    123  H39 TYR d   1      -2.622   2.113 -14.759  0.00  0.00     0.087 H 
ATOM    124  CE2 TYR d   1      -5.801   1.250 -14.061  0.00  0.00    -0.051 A 
ATOM    125  CD2 TYR d   1      -6.293   2.481 -13.703  0.00  0.00    -0.074 A 
ATOM    126  H40 TYR d   1      -6.449   0.381 -14.046  0.00  0.00     0.087 H 
ATOM    127  H38 TYR d   1      -7.333   2.576 -13.414  0.00  0.00     0.084 H 
BRANCH 122 128
ATOM    128  OH  TYR d   1      -3.988  -0.122 -14.767  0.00  0.00    -0.361 OA
ATOM    129  H41 TYR d   1      -3.071  -0.043 -15.004  0.00  0.00     0.217 HD
ENDBRANCH 122 128
ENDBRANCH 115 118
ENDBRANCH  69 115
ENDBRANCH   3  69
TORSDOF 24
