REMARK WARNING: 32 MAX_TORS EXCEEDED!!!
REMARK  74 active torsions:
REMARK  status: ('A' for Active; 'I' for Inactive)
REMARK    1  A    between atoms: N_1  and  CA_2 
REMARK    2  A    between atoms: CA_2  and  C_3 
REMARK    3  A    between atoms: CA_2  and  CB_5 
REMARK       I    between atoms: C_3  and  N_12 
REMARK    4  A    between atoms: CB_5  and  CG_6 
REMARK    5  A    between atoms: CG_6  and  CD_7 
REMARK    6  A    between atoms: CD_7  and  NE_8 
REMARK       I    between atoms: NE_8  and  CZ_9 
REMARK       I    between atoms: CZ_9  and  NH1_10 
REMARK    7  A    between atoms: N_12  and  CA_13 
REMARK    8  A    between atoms: CA_13  and  C_14 
REMARK    9  A    between atoms: CA_13  and  CB_16 
REMARK       I    between atoms: C_14  and  N_17 
REMARK   10  A    between atoms: N_17  and  CA_18 
REMARK   11  A    between atoms: CA_18  and  C_19 
REMARK   12  A    between atoms: CA_18  and  CB_21 
REMARK       I    between atoms: C_19  and  N_27 
REMARK   13  A    between atoms: CB_21  and  CG_22 
REMARK   14  A    between atoms: N_27  and  CA_28 
REMARK   15  A    between atoms: CA_28  and  C_29 
REMARK   16  A    between atoms: CA_28  and  CB_31 
REMARK       I    between atoms: C_29  and  N_33 
REMARK   17  A    between atoms: CB_31  and  OG_32 
REMARK   18  A    between atoms: N_33  and  CA_34 
REMARK   19  A    between atoms: CA_34  and  C_35 
REMARK   20  A    between atoms: CA_34  and  CB_37 
REMARK       I    between atoms: C_35  and  N_39 
REMARK   21  A    between atoms: CB_37  and  OG_38 
REMARK   22  A    between atoms: N_39  and  CA_40 
REMARK   23  A    between atoms: CA_40  and  C_41 
REMARK   24  A    between atoms: CA_40  and  CB_43 
REMARK       I    between atoms: C_41  and  N_49 
REMARK   25  A    between atoms: CB_43  and  CG_44 
REMARK   26  A    between atoms: N_49  and  CA_50 
REMARK   27  A    between atoms: CA_50  and  C_51 
REMARK   28  A    between atoms: CA_50  and  CB_53 
REMARK       I    between atoms: C_51  and  N_57 
REMARK   29  A    between atoms: CB_53  and  CG_54 
REMARK   30  A    between atoms: CG_54  and  CD1_55 
REMARK   31  A    between atoms: CG_54  and  CD2_56 
REMARK   32  A    between atoms: N_57  and  CA_58 
REMARK   33  A    between atoms: CA_58  and  CB_59 
REMARK   34  A    between atoms: CA_58  and  C_66 
REMARK   35  A    between atoms: CB_59  and  CG_60 
REMARK   36  A    between atoms: CG_60  and  CD_61 
REMARK   37  A    between atoms: CD_61  and  CE_62 
REMARK   38  A    between atoms: CE_62  and  NZ_63 
REMARK   39  A    between atoms: NZ_63  and  CH1_64 
REMARK   40  A    between atoms: NZ_63  and  CH2_65 
REMARK       I    between atoms: C_66  and  N_68 
REMARK   41  A    between atoms: N_68  and  CA_69 
REMARK   42  A    between atoms: CA_69  and  C_70 
REMARK   43  A    between atoms: CA_69  and  CB_72 
REMARK       I    between atoms: C_70  and  N_74 
REMARK   44  A    between atoms: CB_72  and  OG_73 
REMARK   45  A    between atoms: N_74  and  CA_75 
REMARK   46  A    between atoms: CA_75  and  C_76 
REMARK   47  A    between atoms: CA_75  and  CB_78 
REMARK       I    between atoms: C_76  and  N_83 
REMARK   48  A    between atoms: CB_78  and  CG_79 
REMARK   49  A    between atoms: CG_79  and  CD_80 
REMARK   50  A    between atoms: CD_80  and  CE_81 
REMARK   51  A    between atoms: CE_81  and  NZ_82 
REMARK   52  A    between atoms: N_83  and  CA_84 
REMARK   53  A    between atoms: CA_84  and  C_85 
REMARK   54  A    between atoms: CA_84  and  CB_87 
REMARK       I    between atoms: C_85  and  N_92 
REMARK   55  A    between atoms: CB_87  and  CG_88 
REMARK   56  A    between atoms: CG_88  and  CD_89 
REMARK   57  A    between atoms: CD_89  and  CE_90 
REMARK   58  A    between atoms: CE_90  and  NZ_91 
REMARK   59  A    between atoms: N_92  and  CA_93 
REMARK   60  A    between atoms: CA_93  and  C_94 
REMARK       I    between atoms: C_94  and  N_96 
REMARK   61  A    between atoms: N_96  and  CA_97 
REMARK   62  A    between atoms: CA_97  and  C_98 
REMARK   63  A    between atoms: CA_97  and  CB_100 
REMARK       I    between atoms: C_98  and  N_105 
REMARK   64  A    between atoms: CB_100  and  CG_101 
REMARK   65  A    between atoms: CG_101  and  CD_102 
REMARK       I    between atoms: CD_102  and  NE2_104 
REMARK   66  A    between atoms: N_105  and  CA_106 
REMARK   67  A    between atoms: CA_106  and  C_107 
REMARK   68  A    between atoms: CA_106  and  CB_109 
REMARK       I    between atoms: C_107  and  N_111 
REMARK   69  A    between atoms: CB_109  and  OG_110 
REMARK   70  A    between atoms: N_111  and  CA_112 
REMARK   71  A    between atoms: CA_112  and  C_113 
REMARK   72  A    between atoms: CA_112  and  CB_115 
REMARK   73  A    between atoms: CB_115  and  OG1_116 
REMARK   74  A    between atoms: CB_115  and  CG2_117 
ROOT
ATOM      1  CA  MLY d   1       2.237 -30.105   6.667  0.00  0.00     0.089 C 
ATOM      2  H   MLY d   1       2.495 -29.381   5.880  0.00  0.00     0.087 H 
ENDROOT
BRANCH   1   3
ATOM      3  N   MLY d   1       0.838 -29.949   7.011  0.00  0.00    -0.346 N 
ATOM      4  C   LEU d   1       0.090 -28.887   6.729  0.00  0.00     0.241 C 
ATOM      5  O   LEU d   1       0.535 -27.836   6.272  0.00  0.00    -0.271 OA
ATOM      6  H   MLY d   1       0.399 -30.702   7.501  0.00  0.00     0.163 HD
BRANCH   4   7
ATOM      7  CA  LEU d   1      -1.403 -29.011   6.961  0.00  0.00     0.089 C 
ATOM      8  H   LEU d   1      -1.620 -29.869   7.615  0.00  0.00     0.087 H 
BRANCH   7   9
ATOM      9  N   LEU d   1      -1.807 -27.771   7.572  0.00  0.00    -0.346 N 
ATOM     10  C   HIS d   1      -2.402 -27.659   8.752  0.00  0.00     0.241 C 
ATOM     11  O   HIS d   1      -2.715 -28.648   9.422  0.00  0.00    -0.271 OA
ATOM     12  H   LEU d   1      -1.624 -26.928   7.066  0.00  0.00     0.163 HD
BRANCH  10  13
ATOM     13  CA  HIS d   1      -2.641 -26.249   9.293  0.00  0.00     0.094 C 
ATOM     14  H   HIS d   1      -3.728 -26.090   9.340  0.00  0.00     0.088 H 
BRANCH  13  15
ATOM     15  N   HIS d   1      -2.118 -26.208  10.655  0.00  0.00    -0.346 N 
ATOM     16  C   SER d   1      -0.897 -26.643  11.002  0.00  0.00     0.243 C 
ATOM     17  O   SER d   1      -0.036 -26.927  10.163  0.00  0.00    -0.271 OA
ATOM     18  H   HIS d   1      -2.705 -25.833  11.373  0.00  0.00     0.163 HD
BRANCH  16  19
ATOM     19  CA  SER d   1      -0.544 -26.793  12.492  0.00  0.00     0.109 C 
ATOM     20  H   SER d   1       0.392 -26.245  12.673  0.00  0.00     0.090 H 
BRANCH  19  21
ATOM     21  N   SER d   1      -1.545 -26.298  13.436  0.00  0.00    -0.344 N 
ATOM     22  C   SER d   1      -1.988 -25.040  13.537  0.00  0.00     0.243 C 
ATOM     23  O   SER d   1      -1.675 -24.171  12.722  0.00  0.00    -0.271 OA
ATOM     24  H   SER d   1      -1.937 -26.966  14.069  0.00  0.00     0.163 HD
BRANCH  22  25
ATOM     25  CA  SER d   1      -2.955 -24.750  14.701  0.00  0.00     0.109 C 
ATOM     26  H   SER d   1      -2.450 -25.038  15.635  0.00  0.00     0.090 H 
BRANCH  25  27
ATOM     27  N   SER d   1      -3.362 -23.354  14.808  0.00  0.00    -0.344 N 
ATOM     28  C   HIS d   1      -2.583 -22.287  14.998  0.00  0.00     0.241 C 
ATOM     29  O   HIS d   1      -1.349 -22.357  15.057  0.00  0.00    -0.271 OA
ATOM     30  H   SER d   1      -4.343 -23.174  14.730  0.00  0.00     0.163 HD
BRANCH  28  31
ATOM     31  CA  HIS d   1      -3.338 -20.952  15.155  0.00  0.00     0.094 C 
ATOM     32  H   HIS d   1      -4.073 -21.074  15.964  0.00  0.00     0.088 H 
BRANCH  31  33
ATOM     33  N   HIS d   1      -2.433 -19.862  15.516  0.00  0.00    -0.346 N 
ATOM     34  C   ALA d   1      -1.703 -19.822  16.629  0.00  0.00     0.240 C 
ATOM     35  O   ALA d   1      -1.846 -20.625  17.557  0.00  0.00    -0.271 OA
ATOM     36  H   HIS d   1      -2.357 -19.092  14.882  0.00  0.00     0.163 HD
BRANCH  34  37
ATOM     37  CA  ALA d   1      -0.652 -18.706  16.706  0.00  0.00     0.086 C 
ATOM     38  H   ALA d   1      -1.148 -17.737  16.547  0.00  0.00     0.086 H 
BRANCH  37  39
ATOM     39  N   ALA d   1      -0.046 -18.728  18.035  0.00  0.00    -0.346 N 
ATOM     40  C   ARG d   1       0.211 -17.652  18.789  0.00  0.00     0.248 C 
ATOM     41  O   ARG d   1       0.061 -16.499  18.373  0.00  0.00    -0.271 OA
ATOM     42  H   ALA d   1       0.197 -19.621  18.413  0.00  0.00     0.163 HD
BRANCH  40  43
ATOM     43  CA  ARG d   1       0.673 -17.905  20.234  0.00  0.00     0.176 C 
ATOM     44  H   ARG d   1       1.237 -18.850  20.245  0.00  0.00     0.099 H 
BRANCH  43  45
ATOM     45  N   ARG d   1       1.592 -16.817  20.681  0.00  0.00    -0.067 N 
ATOM     46  H   ARG d   1       1.887 -16.994  21.628  0.00  0.00     0.275 HD
ATOM     47  H   ARG d   1       1.111 -15.932  20.639  0.00  0.00     0.275 HD
ATOM     48  H   ARG d   1       2.399 -16.790  20.077  0.00  0.00     0.275 HD
ENDBRANCH  43  45
BRANCH  43  49
ATOM     49  CB  ARG d   1      -0.525 -18.063  21.210  0.00  0.00    -0.029 C 
ATOM     50  H   ARG d   1      -1.122 -17.140  21.173  0.00  0.00     0.036 H 
ATOM     51  H   ARG d   1      -0.125 -18.201  22.225  0.00  0.00     0.036 H 
BRANCH  49  52
ATOM     52  CG  ARG d   1      -1.458 -19.254  20.893  0.00  0.00    -0.047 C 
ATOM     53  H   ARG d   1      -0.856 -20.174  20.858  0.00  0.00     0.035 H 
ATOM     54  H   ARG d   1      -1.926 -19.084  19.912  0.00  0.00     0.035 H 
BRANCH  52  55
ATOM     55  CD  ARG d   1      -2.564 -19.428  21.943  0.00  0.00     0.009 C 
ATOM     56  H   ARG d   1      -3.268 -20.196  21.592  0.00  0.00     0.064 H 
ATOM     57  H   ARG d   1      -3.094 -18.471  22.061  0.00  0.00     0.064 H 
BRANCH  55  58
ATOM     58  NE  ARG d   1      -2.026 -19.840  23.256  0.00  0.00    -0.227 N 
ATOM     59  CZ  ARG d   1      -2.692 -19.829  24.421  0.00  0.00     0.665 C 
ATOM     60  NH1 ARG d   1      -3.969 -19.458  24.471  0.00  0.00    -0.235 N 
ATOM     61  NH2 ARG d   1      -2.068 -20.190  25.539  0.00  0.00    -0.235 N 
ATOM     62  H   ARG d   1      -4.469 -19.454  25.371  0.00  0.00     0.174 HD
ATOM     63  H   ARG d   1      -4.457 -19.175  23.609  0.00  0.00     0.174 HD
ATOM     64  H   ARG d   1      -1.080 -20.478  25.507  0.00  0.00     0.174 HD
ATOM     65  H   ARG d   1      -2.573 -20.181  26.437  0.00  0.00     0.174 HD
ATOM     66  H   ARG d   1      -1.049 -20.166  23.279  0.00  0.00     0.177 HD
ENDBRANCH  55  58
ENDBRANCH  52  55
ENDBRANCH  49  52
ENDBRANCH  43  49
ENDBRANCH  40  43
ENDBRANCH  37  39
BRANCH  37  67
ATOM     67  CB  ALA d   1       0.442 -18.882  15.640  0.00  0.00    -0.049 C 
ATOM     68  H   ALA d   1      -0.015 -18.865  14.639  0.00  0.00     0.030 H 
ATOM     69  H   ALA d   1       0.953 -19.844  15.794  0.00  0.00     0.030 H 
ATOM     70  H   ALA d   1       1.171 -18.062  15.724  0.00  0.00     0.030 H 
ENDBRANCH  37  67
ENDBRANCH  34  37
ENDBRANCH  31  33
BRANCH  31  71
ATOM     71  CB  HIS d   1      -4.093 -20.575  13.868  0.00  0.00     0.004 C 
ATOM     72  H   HIS d   1      -4.829 -19.793  14.105  0.00  0.00     0.046 H 
ATOM     73  H   HIS d   1      -4.614 -21.466  13.489  0.00  0.00     0.046 H 
BRANCH  71  74
ATOM     74  CG  HIS d   1      -3.167 -20.061  12.794  0.00  0.00     0.053 A 
ATOM     75  ND1 HIS d   1      -3.106 -18.732  12.360  0.00  0.00    -0.247 NA
ATOM     76  CE1 HIS d   1      -2.122 -18.699  11.446  0.00  0.00     0.064 A 
ATOM     77  NE2 HIS d   1      -1.580 -19.919  11.296  0.00  0.00    -0.359 N 
ATOM     78  H   HIS d   1      -1.808 -17.809  10.903  0.00  0.00     0.143 H 
ATOM     79  CD2 HIS d   1      -2.245 -20.802  12.110  0.00  0.00     0.002 A 
ATOM     80  H   HIS d   1      -0.794 -20.153  10.672  0.00  0.00     0.166 HD
ATOM     81  H   HIS d   1      -2.073 -21.874  12.194  0.00  0.00     0.114 H 
ENDBRANCH  71  74
ENDBRANCH  31  71
ENDBRANCH  28  31
ENDBRANCH  25  27
BRANCH  25  82
ATOM     82  CB  SER d   1      -4.242 -25.570  14.548  0.00  0.00     0.044 C 
ATOM     83  H   SER d   1      -4.016 -26.632  14.723  0.00  0.00     0.077 H 
ATOM     84  H   SER d   1      -4.633 -25.442  13.528  0.00  0.00     0.077 H 
BRANCH  82  85
ATOM     85  OG  SER d   1      -5.223 -25.142  15.480  0.00  0.00    -0.398 OA
ATOM     86  H   SER d   1      -6.011 -25.661  15.369  0.00  0.00     0.209 HD
ENDBRANCH  82  85
ENDBRANCH  25  82
ENDBRANCH  22  25
ENDBRANCH  19  21
BRANCH  19  87
ATOM     87  CB  SER d   1      -0.329 -28.284  12.786  0.00  0.00     0.044 C 
ATOM     88  H   SER d   1       0.600 -28.613  12.298  0.00  0.00     0.077 H 
ATOM     89  H   SER d   1      -1.178 -28.853  12.379  0.00  0.00     0.077 H 
BRANCH  87  90
ATOM     90  OG  SER d   1      -0.230 -28.541  14.188  0.00  0.00    -0.398 OA
ATOM     91  H   SER d   1      -0.098 -29.471  14.330  0.00  0.00     0.209 HD
ENDBRANCH  87  90
ENDBRANCH  19  87
ENDBRANCH  16  19
ENDBRANCH  13  15
BRANCH  13  92
ATOM     92  CB  HIS d   1      -2.066 -25.119   8.412  0.00  0.00     0.004 C 
ATOM     93  H   HIS d   1      -1.044 -25.392   8.111  0.00  0.00     0.046 H 
ATOM     94  H   HIS d   1      -2.039 -24.191   9.002  0.00  0.00     0.046 H 
BRANCH  92  95
ATOM     95  CG  HIS d   1      -2.887 -24.879   7.170  0.00  0.00     0.053 A 
ATOM     96  ND1 HIS d   1      -4.224 -24.494   7.178  0.00  0.00    -0.247 NA
ATOM     97  CE1 HIS d   1      -4.565 -24.331   5.892  0.00  0.00     0.064 A 
ATOM     98  NE2 HIS d   1      -3.532 -24.629   5.084  0.00  0.00    -0.359 N 
ATOM     99  H   HIS d   1      -5.545 -24.002   5.548  0.00  0.00     0.143 H 
ATOM    100  CD2 HIS d   1      -2.461 -24.990   5.874  0.00  0.00     0.002 A 
ATOM    101  H   HIS d   1      -3.539 -24.594   4.055  0.00  0.00     0.166 HD
ATOM    102  H   HIS d   1      -1.474 -25.301   5.535  0.00  0.00     0.114 H 
ENDBRANCH  92  95
ENDBRANCH  13  92
ENDBRANCH  10  13
ENDBRANCH   7   9
BRANCH   7 103
ATOM    103  CB  LEU d   1      -2.171 -29.145   5.649  0.00  0.00    -0.035 C 
ATOM    104  H   LEU d   1      -2.070 -28.201   5.093  0.00  0.00     0.037 H 
ATOM    105  H   LEU d   1      -3.231 -29.319   5.887  0.00  0.00     0.037 H 
BRANCH 103 106
ATOM    106  CG  LEU d   1      -1.686 -30.291   4.745  0.00  0.00    -0.059 C 
ATOM    107  H   LEU d   1      -0.592 -30.376   4.821  0.00  0.00     0.038 H 
BRANCH 106 108
ATOM    108  CD1 LEU d   1      -2.315 -31.616   5.170  0.00  0.00    -0.073 C 
ATOM    109  H   LEU d   1      -1.955 -32.420   4.512  0.00  0.00     0.028 H 
ATOM    110  H   LEU d   1      -3.410 -31.543   5.095  0.00  0.00     0.028 H 
ATOM    111  H   LEU d   1      -2.033 -31.839   6.210  0.00  0.00     0.028 H 
ENDBRANCH 106 108
BRANCH 106 112
ATOM    112  CD2 LEU d   1      -2.069 -29.957   3.306  0.00  0.00    -0.073 C 
ATOM    113  H   LEU d   1      -1.608 -29.001   3.016  0.00  0.00     0.028 H 
ATOM    114  H   LEU d   1      -3.163 -29.875   3.227  0.00  0.00     0.028 H 
ATOM    115  H   LEU d   1      -1.712 -30.754   2.637  0.00  0.00     0.028 H 
ENDBRANCH 106 112
ENDBRANCH 103 106
ENDBRANCH   7 103
ENDBRANCH   4   7
ENDBRANCH   1   3
BRANCH   1 116
ATOM    116  CB  MLY d   1       3.164 -29.827   7.866  0.00  0.00    -0.038 C 
ATOM    117  H   MLY d   1       4.206 -29.961   7.539  0.00  0.00     0.036 H 
ATOM    118  H   MLY d   1       2.933 -30.552   8.660  0.00  0.00     0.036 H 
BRANCH 116 119
ATOM    119  CG  MLY d   1       3.013 -28.403   8.445  0.00  0.00    -0.061 C 
ATOM    120  H   MLY d   1       3.653 -28.323   9.336  0.00  0.00     0.033 H 
ATOM    121  H   MLY d   1       1.962 -28.258   8.734  0.00  0.00     0.033 H 
BRANCH 119 122
ATOM    122  CD  MLY d   1       3.406 -27.275   7.463  0.00  0.00    -0.042 C 
ATOM    123  H   MLY d   1       3.106 -27.566   6.446  0.00  0.00     0.035 H 
ATOM    124  H   MLY d   1       4.497 -27.135   7.497  0.00  0.00     0.035 H 
BRANCH 122 125
ATOM    125  CE  MLY d   1       2.721 -25.948   7.825  0.00  0.00     0.083 C 
ATOM    126  H   MLY d   1       3.220 -25.528   8.711  0.00  0.00     0.075 H 
ATOM    127  H   MLY d   1       1.666 -26.153   8.061  0.00  0.00     0.075 H 
BRANCH 125 128
ATOM    128  NZ  MLY d   1       2.772 -24.936   6.730  0.00  0.00    -0.079 N 
ATOM    129  H   MLY d   1       2.389 -24.116   7.173  0.00  0.00     0.278 HD
BRANCH 128 130
ATOM    130  CH1 MLY d   1       4.117 -24.494   6.305  0.00  0.00     0.066 C 
ATOM    131  H   MLY d   1       4.021 -23.753   5.498  0.00  0.00     0.068 H 
ATOM    132  H   MLY d   1       4.690 -25.360   5.942  0.00  0.00     0.068 H 
ATOM    133  H   MLY d   1       4.641 -24.040   7.159  0.00  0.00     0.068 H 
ENDBRANCH 128 130
BRANCH 128 134
ATOM    134  CH2 MLY d   1       1.857 -25.160   5.578  0.00  0.00     0.066 C 
ATOM    135  H   MLY d   1       0.874 -25.486   5.949  0.00  0.00     0.068 H 
ATOM    136  H   MLY d   1       2.277 -25.936   4.921  0.00  0.00     0.068 H 
ATOM    137  H   MLY d   1       1.743 -24.223   5.013  0.00  0.00     0.068 H 
ENDBRANCH 128 134
ENDBRANCH 125 128
ENDBRANCH 122 125
ENDBRANCH 119 122
ENDBRANCH 116 119
ENDBRANCH   1 116
BRANCH   1 138
ATOM    138  C   MLY d   1       2.359 -31.508   6.094  0.00  0.00     0.241 C 
ATOM    139  O   MLY d   1       2.515 -32.495   6.811  0.00  0.00    -0.271 OA
ATOM    140  N   SER d   1       2.216 -31.540   4.768  0.00  0.00    -0.344 N 
ATOM    141  H   SER d   1       2.178 -30.647   4.319  0.00  0.00     0.163 HD
BRANCH 140 142
ATOM    142  CA  SER d   1       2.107 -32.698   3.876  0.00  0.00     0.109 C 
ATOM    143  H   SER d   1       1.174 -33.223   4.129  0.00  0.00     0.090 H 
BRANCH 142 144
ATOM    144  C   SER d   1       3.245 -33.726   4.005  0.00  0.00     0.243 C 
ATOM    145  O   SER d   1       3.119 -34.845   3.504  0.00  0.00    -0.271 OA
ATOM    146  N   LYS d   1       4.347 -33.375   4.689  0.00  0.00    -0.346 N 
ATOM    147  H   LYS d   1       4.412 -32.437   5.030  0.00  0.00     0.163 HD
BRANCH 146 148
ATOM    148  CA  LYS d   1       5.459 -34.290   4.964  0.00  0.00     0.089 C 
ATOM    149  H   LYS d   1       5.862 -34.608   3.991  0.00  0.00     0.087 H 
BRANCH 148 150
ATOM    150  C   LYS d   1       5.017 -35.564   5.699  0.00  0.00     0.241 C 
ATOM    151  O   LYS d   1       5.685 -36.594   5.570  0.00  0.00    -0.271 OA
ATOM    152  N   LYS d   1       3.903 -35.519   6.439  0.00  0.00    -0.346 N 
ATOM    153  H   LYS d   1       3.471 -34.626   6.564  0.00  0.00     0.163 HD
BRANCH 152 154
ATOM    154  CA  LYS d   1       3.263 -36.671   7.081  0.00  0.00     0.089 C 
ATOM    155  H   LYS d   1       3.590 -37.594   6.580  0.00  0.00     0.087 H 
BRANCH 154 156
ATOM    156  C   LYS d   1       1.748 -36.516   6.922  0.00  0.00     0.240 C 
ATOM    157  O   LYS d   1       1.262 -35.408   6.676  0.00  0.00    -0.271 OA
ATOM    158  N   GLY d   1       1.004 -37.617   7.060  0.00  0.00    -0.351 N 
ATOM    159  H   GLY d   1       1.466 -38.499   7.154  0.00  0.00     0.163 HD
BRANCH 158 160
ATOM    160  CA  GLY d   1      -0.455 -37.587   7.079  0.00  0.00     0.069 C 
ATOM    161  H   GLY d   1      -0.839 -38.612   6.969  0.00  0.00     0.078 H 
ATOM    162  H   GLY d   1      -0.814 -36.969   6.243  0.00  0.00     0.078 H 
BRANCH 160 163
ATOM    163  C   GLY d   1      -0.968 -36.998   8.394  0.00  0.00     0.236 C 
ATOM    164  O   GLY d   1      -0.249 -36.983   9.396  0.00  0.00    -0.272 OA
ATOM    165  N   GLN d   1      -2.223 -36.533   8.393  0.00  0.00    -0.346 N 
ATOM    166  H   GLN d   1      -2.750 -36.623   7.548  0.00  0.00     0.163 HD
BRANCH 165 167
ATOM    167  CA  GLN d   1      -2.884 -35.899   9.544  0.00  0.00     0.090 C 
ATOM    168  H   GLN d   1      -2.291 -36.127  10.442  0.00  0.00     0.087 H 
BRANCH 167 169
ATOM    169  C   GLN d   1      -4.299 -36.471   9.782  0.00  0.00     0.241 C 
ATOM    170  O   GLN d   1      -5.035 -35.932  10.611  0.00  0.00    -0.271 OA
ATOM    171  N   SER d   1      -4.645 -37.575   9.103  0.00  0.00    -0.344 N 
ATOM    172  H   SER d   1      -4.023 -37.859   8.374  0.00  0.00     0.163 HD
BRANCH 171 173
ATOM    173  CA  SER d   1      -5.830 -38.412   9.307  0.00  0.00     0.109 C 
ATOM    174  H   SER d   1      -6.067 -38.871   8.336  0.00  0.00     0.090 H 
BRANCH 173 175
ATOM    175  C   SER d   1      -7.097 -37.645   9.735  0.00  0.00     0.243 C 
ATOM    176  O   SER d   1      -7.554 -37.765  10.882  0.00  0.00    -0.271 OA
ATOM    177  N   THR d   1      -7.652 -36.852   8.806  0.00  0.00    -0.342 N 
ATOM    178  H   THR d   1      -7.139 -36.689   7.963  0.00  0.00     0.163 HD
BRANCH 177 179
ATOM    179  CA  THR d   1      -8.956 -36.212   8.945  0.00  0.00     0.120 C 
ATOM    180  H   THR d   1      -8.883 -35.420   9.705  0.00  0.00     0.093 H 
BRANCH 179 181
ATOM    181  C   THR d   1      -9.996 -37.243   9.415  0.00  0.00     0.199 C 
ATOM    182  O   THR d   1     -10.747 -36.952  10.377  0.00  0.00    -0.646 OA
ATOM    183  OXT THR d   1     -10.067 -38.353   8.830  0.00  0.00    -0.646 OA
ENDBRANCH 179 181
BRANCH 179 184
ATOM    184  CB  THR d   1      -9.364 -35.568   7.606  0.00  0.00     0.061 C 
ATOM    185  H   THR d   1      -9.709 -36.364   6.930  0.00  0.00     0.086 H 
BRANCH 184 186
ATOM    186  OG1 THR d   1      -8.260 -34.903   7.014  0.00  0.00    -0.393 OA
ATOM    187  H   THR d   1      -8.531 -34.513   6.191  0.00  0.00     0.210 HD
ENDBRANCH 184 186
BRANCH 184 188
ATOM    188  CG2 THR d   1     -10.495 -34.547   7.785  0.00  0.00    -0.050 C 
ATOM    189  H   THR d   1     -10.755 -34.113   6.808  0.00  0.00     0.031 H 
ATOM    190  H   THR d   1     -10.164 -33.748   8.465  0.00  0.00     0.031 H 
ATOM    191  H   THR d   1     -11.377 -35.048   8.210  0.00  0.00     0.031 H 
ENDBRANCH 184 188
ENDBRANCH 179 184
ENDBRANCH 177 179
ENDBRANCH 173 175
BRANCH 173 192
ATOM    192  CB  SER d   1      -5.464 -39.549  10.268  0.00  0.00     0.044 C 
ATOM    193  H   SER d   1      -6.301 -40.261  10.319  0.00  0.00     0.077 H 
ATOM    194  H   SER d   1      -5.277 -39.130  11.268  0.00  0.00     0.077 H 
BRANCH 192 195
ATOM    195  OG  SER d   1      -4.295 -40.232   9.821  0.00  0.00    -0.398 OA
ATOM    196  H   SER d   1      -4.086 -40.931  10.429  0.00  0.00     0.209 HD
ENDBRANCH 192 195
ENDBRANCH 173 192
ENDBRANCH 171 173
ENDBRANCH 167 169
BRANCH 167 197
ATOM    197  CB  GLN d   1      -2.865 -34.368   9.349  0.00  0.00    -0.030 C 
ATOM    198  H   GLN d   1      -3.621 -33.915  10.007  0.00  0.00     0.037 H 
ATOM    199  H   GLN d   1      -3.107 -34.139   8.301  0.00  0.00     0.037 H 
BRANCH 197 200
ATOM    200  CG  GLN d   1      -1.487 -33.768   9.686  0.00  0.00     0.011 C 
ATOM    201  H   GLN d   1      -0.719 -34.297   9.102  0.00  0.00     0.047 H 
ATOM    202  H   GLN d   1      -1.293 -33.909  10.760  0.00  0.00     0.047 H 
BRANCH 200 203
ATOM    203  CD  GLN d   1      -1.406 -32.276   9.365  0.00  0.00     0.215 C 
ATOM    204  OE1 GLN d   1      -0.632 -31.857   8.508  0.00  0.00    -0.274 OA
ATOM    205  NE2 GLN d   1      -2.187 -31.442  10.027  0.00  0.00    -0.370 N 
ATOM    206  H   GLN d   1      -2.150 -30.462   9.833  0.00  0.00     0.159 HD
ATOM    207  H   GLN d   1      -2.815 -31.791  10.723  0.00  0.00     0.159 HD
ENDBRANCH 200 203
ENDBRANCH 197 200
ENDBRANCH 167 197
ENDBRANCH 165 167
ENDBRANCH 160 163
ENDBRANCH 158 160
ENDBRANCH 154 156
BRANCH 154 208
ATOM    208  CB  LYS d   1       3.643 -36.755   8.573  0.00  0.00    -0.038 C 
ATOM    209  H   LYS d   1       3.010 -37.516   9.053  0.00  0.00     0.036 H 
ATOM    210  H   LYS d   1       3.455 -35.776   9.037  0.00  0.00     0.036 H 
BRANCH 208 211
ATOM    211  CG  LYS d   1       5.116 -37.130   8.804  0.00  0.00    -0.061 C 
ATOM    212  H   LYS d   1       5.758 -36.333   8.400  0.00  0.00     0.033 H 
ATOM    213  H   LYS d   1       5.333 -38.075   8.284  0.00  0.00     0.033 H 
BRANCH 211 214
ATOM    214  CD  LYS d   1       5.412 -37.302  10.304  0.00  0.00    -0.043 C 
ATOM    215  H   LYS d   1       4.793 -38.124  10.692  0.00  0.00     0.035 H 
ATOM    216  H   LYS d   1       5.149 -36.368  10.823  0.00  0.00     0.035 H 
BRANCH 214 217
ATOM    217  CE  LYS d   1       6.888 -37.623  10.590  0.00  0.00     0.080 C 
ATOM    218  H   LYS d   1       7.058 -37.544  11.674  0.00  0.00     0.075 H 
ATOM    219  H   LYS d   1       7.513 -36.885  10.066  0.00  0.00     0.075 H 
BRANCH 217 220
ATOM    220  NZ  LYS d   1       7.293 -38.983  10.147  0.00  0.00    -0.079 N 
ATOM    221  H   LYS d   1       8.267 -39.130  10.362  0.00  0.00     0.274 HD
ATOM    222  H   LYS d   1       7.152 -39.068   9.153  0.00  0.00     0.274 HD
ATOM    223  H   LYS d   1       6.735 -39.672  10.626  0.00  0.00     0.274 HD
ENDBRANCH 217 220
ENDBRANCH 214 217
ENDBRANCH 211 214
ENDBRANCH 208 211
ENDBRANCH 154 208
ENDBRANCH 152 154
ENDBRANCH 148 150
BRANCH 148 224
ATOM    224  CB  LYS d   1       6.593 -33.561   5.711  0.00  0.00    -0.038 C 
ATOM    225  H   LYS d   1       6.897 -32.692   5.109  0.00  0.00     0.036 H 
ATOM    226  H   LYS d   1       7.441 -34.255   5.808  0.00  0.00     0.036 H 
BRANCH 224 227
ATOM    227  CG  LYS d   1       6.218 -33.062   7.119  0.00  0.00    -0.061 C 
ATOM    228  H   LYS d   1       5.859 -33.912   7.718  0.00  0.00     0.033 H 
ATOM    229  H   LYS d   1       5.420 -32.310   7.034  0.00  0.00     0.033 H 
BRANCH 227 230
ATOM    230  CD  LYS d   1       7.430 -32.431   7.818  0.00  0.00    -0.043 C 
ATOM    231  H   LYS d   1       7.800 -31.589   7.214  0.00  0.00     0.035 H 
ATOM    232  H   LYS d   1       8.224 -33.185   7.920  0.00  0.00     0.035 H 
BRANCH 230 233
ATOM    233  CE  LYS d   1       7.034 -31.920   9.213  0.00  0.00     0.080 C 
ATOM    234  H   LYS d   1       6.608 -32.755   9.789  0.00  0.00     0.075 H 
ATOM    235  H   LYS d   1       6.277 -31.130   9.099  0.00  0.00     0.075 H 
BRANCH 233 236
ATOM    236  NZ  LYS d   1       8.197 -31.367   9.959  0.00  0.00    -0.079 N 
ATOM    237  H   LYS d   1       7.893 -31.045  10.864  0.00  0.00     0.274 HD
ATOM    238  H   LYS d   1       8.591 -30.596   9.443  0.00  0.00     0.274 HD
ATOM    239  H   LYS d   1       8.894 -32.086  10.075  0.00  0.00     0.274 HD
ENDBRANCH 233 236
ENDBRANCH 230 233
ENDBRANCH 227 230
ENDBRANCH 224 227
ENDBRANCH 148 224
ENDBRANCH 146 148
ENDBRANCH 142 144
BRANCH 142 240
ATOM    240  CB  SER d   1       1.986 -32.173   2.435  0.00  0.00     0.044 C 
ATOM    241  H   SER d   1       0.935 -31.919   2.231  0.00  0.00     0.077 H 
ATOM    242  H   SER d   1       2.317 -32.956   1.737  0.00  0.00     0.077 H 
BRANCH 240 243
ATOM    243  OG  SER d   1       2.796 -31.006   2.250  0.00  0.00    -0.398 OA
ATOM    244  H   SER d   1       2.511 -30.326   2.849  0.00  0.00     0.209 HD
ENDBRANCH 240 243
ENDBRANCH 142 240
ENDBRANCH 140 142
ENDBRANCH   1 138
TORSDOF 74
