REMARK WARNING: 32 MAX_TORS EXCEEDED!!!
REMARK  67 active torsions:
REMARK  status: ('A' for Active; 'I' for Inactive)
REMARK    1  A    between atoms: N_1  and  CA_2 
REMARK    2  A    between atoms: CA_2  and  C_3 
REMARK    3  A    between atoms: CA_2  and  CB_5 
REMARK       I    between atoms: C_3  and  N_7 
REMARK    4  A    between atoms: CB_5  and  OG_6 
REMARK    5  A    between atoms: N_7  and  CA_8 
REMARK    6  A    between atoms: CA_8  and  C_9 
REMARK    7  A    between atoms: CA_8  and  CB_11 
REMARK       I    between atoms: C_9  and  N_14 
REMARK    8  A    between atoms: CB_11  and  OG1_12 
REMARK    9  A    between atoms: CB_11  and  CG2_13 
REMARK   10  A    between atoms: N_14  and  CA_15 
REMARK   11  A    between atoms: CA_15  and  C_16 
REMARK   12  A    between atoms: CA_15  and  CB_18 
REMARK       I    between atoms: C_16  and  N_20 
REMARK   13  A    between atoms: CB_18  and  OG_19 
REMARK   14  A    between atoms: N_20  and  CA_21 
REMARK   15  A    between atoms: CA_21  and  C_22 
REMARK   16  A    between atoms: CA_21  and  CB_24 
REMARK       I    between atoms: C_22  and  N_31 
REMARK   17  A    between atoms: CB_24  and  CG_25 
REMARK   18  A    between atoms: CG_25  and  CD_26 
REMARK   19  A    between atoms: CD_26  and  NE_27 
REMARK       I    between atoms: NE_27  and  CZ_28 
REMARK       I    between atoms: CZ_28  and  NH1_29 
REMARK   20  A    between atoms: N_31  and  CA_32 
REMARK   21  A    between atoms: CA_32  and  C_33 
REMARK   22  A    between atoms: CA_32  and  CB_35 
REMARK       I    between atoms: C_33  and  N_41 
REMARK   23  A    between atoms: CB_35  and  CG_36 
REMARK   24  A    between atoms: N_41  and  CA_42 
REMARK   25  A    between atoms: CA_42  and  C_43 
REMARK   26  A    between atoms: CA_42  and  CB_45 
REMARK       I    between atoms: C_43  and  N_50 
REMARK   27  A    between atoms: CB_45  and  CG_46 
REMARK   28  A    between atoms: CG_46  and  CD_47 
REMARK   29  A    between atoms: CD_47  and  CE_48 
REMARK   30  A    between atoms: CE_48  and  NZ_49 
REMARK   31  A    between atoms: N_50  and  CA_51 
REMARK   32  A    between atoms: CA_51  and  CB_52 
REMARK   33  A    between atoms: CA_51  and  C_59 
REMARK   34  A    between atoms: CB_52  and  CG_53 
REMARK   35  A    between atoms: CG_53  and  CD_54 
REMARK   36  A    between atoms: CD_54  and  CE_55 
REMARK   37  A    between atoms: CE_55  and  NZ_56 
REMARK   38  A    between atoms: NZ_56  and  CH1_57 
REMARK   39  A    between atoms: NZ_56  and  CH2_58 
REMARK       I    between atoms: C_59  and  N_61 
REMARK   40  A    between atoms: N_61  and  CA_62 
REMARK   41  A    between atoms: CA_62  and  C_63 
REMARK   42  A    between atoms: CA_62  and  CB_65 
REMARK       I    between atoms: C_63  and  N_69 
REMARK   43  A    between atoms: CB_65  and  CG_66 
REMARK   44  A    between atoms: CG_66  and  CD1_67 
REMARK   45  A    between atoms: CG_66  and  CD2_68 
REMARK   46  A    between atoms: N_69  and  CA_70 
REMARK   47  A    between atoms: CA_70  and  C_71 
REMARK   48  A    between atoms: CA_70  and  CB_73 
REMARK       I    between atoms: C_71  and  N_77 
REMARK   49  A    between atoms: CB_73  and  CG_74 
REMARK   50  A    between atoms: CG_74  and  SD_75 
REMARK   51  A    between atoms: SD_75  and  CE_76 
REMARK   52  A    between atoms: N_77  and  CA_78 
REMARK   53  A    between atoms: CA_78  and  C_79 
REMARK   54  A    between atoms: CA_78  and  CB_81 
REMARK       I    between atoms: C_79  and  N_88 
REMARK   55  A    between atoms: CB_81  and  CG_82 
REMARK   56  A    between atoms: N_88  and  CA_89 
REMARK   57  A    between atoms: CA_89  and  C_90 
REMARK   58  A    between atoms: CA_89  and  CB_92 
REMARK       I    between atoms: C_90  and  N_97 
REMARK   59  A    between atoms: CB_92  and  CG_93 
REMARK   60  A    between atoms: CG_93  and  CD_94 
REMARK   61  A    between atoms: CD_94  and  CE_95 
REMARK   62  A    between atoms: CE_95  and  NZ_96 
REMARK   63  A    between atoms: N_97  and  CA_98 
REMARK   64  A    between atoms: CA_98  and  C_99 
REMARK   65  A    between atoms: CA_98  and  CB_101 
REMARK   66  A    between atoms: CB_101  and  OG1_102 
REMARK   67  A    between atoms: CB_101  and  CG2_103 
ROOT
ATOM      1  CA  MLY d   1      35.894  -4.462  -2.653  0.00  0.00     0.089 C 
ATOM      2  H   MLY d   1      36.678  -4.490  -1.882  0.00  0.00     0.087 H 
ENDROOT
BRANCH   1   3
ATOM      3  N   MLY d   1      36.535  -4.177  -3.951  0.00  0.00    -0.346 N 
ATOM      4  C   LYS d   1      37.848  -3.956  -4.089  0.00  0.00     0.241 C 
ATOM      5  O   LYS d   1      38.651  -4.115  -3.170  0.00  0.00    -0.271 OA
ATOM      6  H   MLY d   1      35.960  -4.147  -4.769  0.00  0.00     0.163 HD
BRANCH   4   7
ATOM      7  CA  LYS d   1      38.379  -3.476  -5.453  0.00  0.00     0.089 C 
ATOM      8  H   LYS d   1      39.449  -3.284  -5.286  0.00  0.00     0.087 H 
BRANCH   7   9
ATOM      9  N   LYS d   1      38.301  -4.421  -6.584  0.00  0.00    -0.346 N 
ATOM     10  C   HIS d   1      38.005  -5.728  -6.645  0.00  0.00     0.241 C 
ATOM     11  O   HIS d   1      37.702  -6.411  -5.666  0.00  0.00    -0.271 OA
ATOM     12  H   LYS d   1      38.508  -4.010  -7.472  0.00  0.00     0.163 HD
BRANCH  10  13
ATOM     13  CA  HIS d   1      38.013  -6.326  -8.068  0.00  0.00     0.094 C 
ATOM     14  H   HIS d   1      38.986  -6.074  -8.516  0.00  0.00     0.088 H 
BRANCH  13  15
ATOM     15  N   HIS d   1      37.863  -7.788  -8.120  0.00  0.00    -0.346 N 
ATOM     16  C   ARG d   1      38.792  -8.690  -7.790  0.00  0.00     0.241 C 
ATOM     17  O   ARG d   1      39.901  -8.389  -7.349  0.00  0.00    -0.271 OA
ATOM     18  H   HIS d   1      36.981  -8.141  -8.432  0.00  0.00     0.163 HD
BRANCH  16  19
ATOM     19  CA  ARG d   1      38.372 -10.153  -8.014  0.00  0.00     0.089 C 
ATOM     20  H   ARG d   1      37.823 -10.188  -8.966  0.00  0.00     0.087 H 
BRANCH  19  21
ATOM     21  N   ARG d   1      39.505 -11.099  -8.126  0.00  0.00    -0.346 N 
ATOM     22  C   SER d   1      39.716 -11.948  -9.151  0.00  0.00     0.243 C 
ATOM     23  O   SER d   1      39.037 -11.908 -10.177  0.00  0.00    -0.271 OA
ATOM     24  H   ARG d   1      40.169 -11.109  -7.379  0.00  0.00     0.163 HD
BRANCH  22  25
ATOM     25  CA  SER d   1      40.837 -12.998  -9.023  0.00  0.00     0.109 C 
ATOM     26  H   SER d   1      41.679 -12.670  -9.650  0.00  0.00     0.090 H 
BRANCH  25  27
ATOM     27  N   SER d   1      41.331 -13.167  -7.645  0.00  0.00    -0.344 N 
ATOM     28  C   THR d   1      42.613 -13.263  -7.275  0.00  0.00     0.243 C 
ATOM     29  O   THR d   1      43.551 -13.055  -8.054  0.00  0.00    -0.271 OA
ATOM     30  H   SER d   1      40.645 -13.214  -6.919  0.00  0.00     0.163 HD
BRANCH  28  31
ATOM     31  CA  THR d   1      42.876 -13.623  -5.801  0.00  0.00     0.113 C 
ATOM     32  H   THR d   1      42.437 -14.616  -5.625  0.00  0.00     0.091 H 
BRANCH  31  33
ATOM     33  N   THR d   1      44.324 -13.716  -5.491  0.00  0.00    -0.344 N 
ATOM     34  C   SER d   1      44.858 -14.562  -4.600  0.00  0.00     0.251 C 
ATOM     35  O   SER d   1      44.155 -15.312  -3.921  0.00  0.00    -0.271 OA
ATOM     36  H   THR d   1      44.945 -13.104  -5.981  0.00  0.00     0.163 HD
BRANCH  34  37
ATOM     37  CA  SER d   1      46.383 -14.580  -4.441  0.00  0.00     0.195 C 
ATOM     38  H   SER d   1      46.728 -13.537  -4.384  0.00  0.00     0.102 H 
BRANCH  37  39
ATOM     39  N   SER d   1      46.798 -15.266  -3.185  0.00  0.00    -0.064 N 
ATOM     40  H   SER d   1      47.803 -15.258  -3.115  0.00  0.00     0.275 HD
ATOM     41  H   SER d   1      46.469 -16.219  -3.198  0.00  0.00     0.275 HD
ATOM     42  H   SER d   1      46.402 -14.785  -2.393  0.00  0.00     0.275 HD
ENDBRANCH  37  39
BRANCH  37  43
ATOM     43  CB  SER d   1      47.046 -15.233  -5.666  0.00  0.00     0.051 C 
ATOM     44  H   SER d   1      46.793 -14.660  -6.570  0.00  0.00     0.077 H 
ATOM     45  H   SER d   1      46.683 -16.266  -5.774  0.00  0.00     0.077 H 
BRANCH  43  46
ATOM     46  OG  SER d   1      48.456 -15.241  -5.487  0.00  0.00    -0.398 OA
ATOM     47  H   SER d   1      48.868 -15.644  -6.242  0.00  0.00     0.209 HD
ENDBRANCH  43  46
ENDBRANCH  37  43
ENDBRANCH  34  37
ENDBRANCH  31  33
BRANCH  31  48
ATOM     48  CB  THR d   1      42.182 -12.630  -4.847  0.00  0.00     0.060 C 
ATOM     49  H   THR d   1      42.545 -12.820  -3.826  0.00  0.00     0.086 H 
BRANCH  48  50
ATOM     50  OG1 THR d   1      40.783 -12.831  -4.899  0.00  0.00    -0.393 OA
ATOM     51  H   THR d   1      40.354 -12.220  -4.312  0.00  0.00     0.210 HD
ENDBRANCH  48  50
BRANCH  48  52
ATOM     52  CG2 THR d   1      42.437 -11.163  -5.194  0.00  0.00    -0.050 C 
ATOM     53  H   THR d   1      41.912 -10.519  -4.473  0.00  0.00     0.031 H 
ATOM     54  H   THR d   1      42.065 -10.956  -6.208  0.00  0.00     0.031 H 
ATOM     55  H   THR d   1      43.517 -10.958  -5.150  0.00  0.00     0.031 H 
ENDBRANCH  48  52
ENDBRANCH  31  48
ENDBRANCH  28  31
ENDBRANCH  25  27
BRANCH  25  56
ATOM     56  CB  SER d   1      40.338 -14.357  -9.536  0.00  0.00     0.044 C 
ATOM     57  H   SER d   1      39.978 -14.239 -10.569  0.00  0.00     0.077 H 
ATOM     58  H   SER d   1      39.511 -14.699  -8.896  0.00  0.00     0.077 H 
BRANCH  56  59
ATOM     59  OG  SER d   1      41.375 -15.334  -9.515  0.00  0.00    -0.398 OA
ATOM     60  H   SER d   1      41.036 -16.161  -9.837  0.00  0.00     0.209 HD
ENDBRANCH  56  59
ENDBRANCH  25  56
ENDBRANCH  22  25
ENDBRANCH  19  21
BRANCH  19  61
ATOM     61  CB  ARG d   1      37.418 -10.624  -6.899  0.00  0.00    -0.036 C 
ATOM     62  H   ARG d   1      36.814  -9.768  -6.564  0.00  0.00     0.036 H 
ATOM     63  H   ARG d   1      38.016 -11.003  -6.057  0.00  0.00     0.036 H 
BRANCH  61  64
ATOM     64  CG  ARG d   1      36.477 -11.736  -7.377  0.00  0.00    -0.048 C 
ATOM     65  H   ARG d   1      37.064 -12.653  -7.537  0.00  0.00     0.035 H 
ATOM     66  H   ARG d   1      36.015 -11.426  -8.326  0.00  0.00     0.035 H 
BRANCH  64  67
ATOM     67  CD  ARG d   1      35.365 -12.031  -6.357  0.00  0.00     0.009 C 
ATOM     68  H   ARG d   1      34.456 -12.322  -6.904  0.00  0.00     0.064 H 
ATOM     69  H   ARG d   1      35.168 -11.116  -5.779  0.00  0.00     0.064 H 
BRANCH  67  70
ATOM     70  NE  ARG d   1      35.712 -13.113  -5.417  0.00  0.00    -0.227 N 
ATOM     71  CZ  ARG d   1      34.996 -13.488  -4.370  0.00  0.00     0.665 C 
ATOM     72  NH1 ARG d   1      34.003 -12.813  -3.882  0.00  0.00    -0.235 N 
ATOM     73  NH2 ARG d   1      35.251 -14.591  -3.754  0.00  0.00    -0.235 N 
ATOM     74  H   ARG d   1      33.491 -13.170  -3.062  0.00  0.00     0.174 HD
ATOM     75  H   ARG d   1      33.726 -11.920  -4.314  0.00  0.00     0.174 HD
ATOM     76  H   ARG d   1      36.024 -15.192  -4.073  0.00  0.00     0.174 HD
ATOM     77  H   ARG d   1      34.682 -14.871  -2.942  0.00  0.00     0.174 HD
ATOM     78  H   ARG d   1      36.590 -13.622  -5.591  0.00  0.00     0.177 HD
ENDBRANCH  67  70
ENDBRANCH  64  67
ENDBRANCH  61  64
ENDBRANCH  19  61
ENDBRANCH  16  19
ENDBRANCH  13  15
BRANCH  13  79
ATOM     79  CB  HIS d   1      36.906  -5.711  -8.941  0.00  0.00     0.004 C 
ATOM     80  H   HIS d   1      35.947  -5.831  -8.415  0.00  0.00     0.046 H 
ATOM     81  H   HIS d   1      36.874  -6.261  -9.893  0.00  0.00     0.046 H 
BRANCH  79  82
ATOM     82  CG  HIS d   1      37.093  -4.246  -9.250  0.00  0.00     0.053 A 
ATOM     83  ND1 HIS d   1      38.291  -3.639  -9.632  0.00  0.00    -0.247 NA
ATOM     84  CE1 HIS d   1      38.019  -2.326  -9.745  0.00  0.00     0.064 A 
ATOM     85  NE2 HIS d   1      36.738  -2.084  -9.416  0.00  0.00    -0.359 N 
ATOM     86  H   HIS d   1      38.735  -1.567 -10.058  0.00  0.00     0.143 H 
ATOM     87  CD2 HIS d   1      36.147  -3.283  -9.081  0.00  0.00     0.002 A 
ATOM     88  H   HIS d   1      36.278  -1.162  -9.415  0.00  0.00     0.166 HD
ATOM     89  H   HIS d   1      35.121  -3.431  -8.746  0.00  0.00     0.114 H 
ENDBRANCH  79  82
ENDBRANCH  13  79
ENDBRANCH  10  13
ENDBRANCH   7   9
BRANCH   7  90
ATOM     90  CB  LYS d   1      37.758  -2.151  -5.943  0.00  0.00    -0.038 C 
ATOM     91  H   LYS d   1      36.713  -2.346  -6.224  0.00  0.00     0.036 H 
ATOM     92  H   LYS d   1      38.319  -1.816  -6.828  0.00  0.00     0.036 H 
BRANCH  90  93
ATOM     93  CG  LYS d   1      37.771  -1.013  -4.909  0.00  0.00    -0.061 C 
ATOM     94  H   LYS d   1      38.757  -0.996  -4.421  0.00  0.00     0.033 H 
ATOM     95  H   LYS d   1      36.993  -1.214  -4.158  0.00  0.00     0.033 H 
BRANCH  93  96
ATOM     96  CD  LYS d   1      37.507   0.373  -5.528  0.00  0.00    -0.043 C 
ATOM     97  H   LYS d   1      37.378   1.093  -4.707  0.00  0.00     0.035 H 
ATOM     98  H   LYS d   1      36.577   0.313  -6.113  0.00  0.00     0.035 H 
BRANCH  96  99
ATOM     99  CE  LYS d   1      38.620   0.902  -6.455  0.00  0.00     0.080 C 
ATOM    100  H   LYS d   1      38.257   1.810  -6.958  0.00  0.00     0.075 H 
ATOM    101  H   LYS d   1      38.846   0.132  -7.207  0.00  0.00     0.075 H 
BRANCH  99 102
ATOM    102  NZ  LYS d   1      39.877   1.234  -5.718  0.00  0.00    -0.079 N 
ATOM    103  H   LYS d   1      40.568   1.574  -6.369  0.00  0.00     0.274 HD
ATOM    104  H   LYS d   1      40.226   0.407  -5.259  0.00  0.00     0.274 HD
ATOM    105  H   LYS d   1      39.685   1.945  -5.030  0.00  0.00     0.274 HD
ENDBRANCH  99 102
ENDBRANCH  96  99
ENDBRANCH  93  96
ENDBRANCH  90  93
ENDBRANCH   7  90
ENDBRANCH   4   7
ENDBRANCH   1   3
BRANCH   1 106
ATOM    106  CB  MLY d   1      34.943  -3.295  -2.353  0.00  0.00    -0.038 C 
ATOM    107  H   MLY d   1      34.063  -3.388  -3.006  0.00  0.00     0.036 H 
ATOM    108  H   MLY d   1      35.467  -2.354  -2.575  0.00  0.00     0.036 H 
BRANCH 106 109
ATOM    109  CG  MLY d   1      34.458  -3.248  -0.885  0.00  0.00    -0.061 C 
ATOM    110  H   MLY d   1      34.912  -2.377  -0.390  0.00  0.00     0.033 H 
ATOM    111  H   MLY d   1      34.781  -4.168  -0.376  0.00  0.00     0.033 H 
BRANCH 109 112
ATOM    112  CD  MLY d   1      32.929  -3.135  -0.780  0.00  0.00    -0.042 C 
ATOM    113  H   MLY d   1      32.583  -2.428  -1.548  0.00  0.00     0.035 H 
ATOM    114  H   MLY d   1      32.681  -2.743   0.217  0.00  0.00     0.035 H 
BRANCH 112 115
ATOM    115  CE  MLY d   1      32.177  -4.465  -0.976  0.00  0.00     0.083 C 
ATOM    116  H   MLY d   1      32.158  -5.005  -0.018  0.00  0.00     0.075 H 
ATOM    117  H   MLY d   1      32.712  -5.066  -1.725  0.00  0.00     0.075 H 
BRANCH 115 118
ATOM    118  NZ  MLY d   1      30.773  -4.262  -1.439  0.00  0.00    -0.079 N 
ATOM    119  H   MLY d   1      30.342  -5.154  -1.250  0.00  0.00     0.278 HD
BRANCH 118 120
ATOM    120  CH1 MLY d   1      30.611  -4.099  -2.911  0.00  0.00     0.066 C 
ATOM    121  H   MLY d   1      29.547  -3.956  -3.149  0.00  0.00     0.068 H 
ATOM    122  H   MLY d   1      30.984  -4.998  -3.423  0.00  0.00     0.068 H 
ATOM    123  H   MLY d   1      31.183  -3.222  -3.248  0.00  0.00     0.068 H 
ENDBRANCH 118 120
BRANCH 118 124
ATOM    124  CH2 MLY d   1      29.944  -3.306  -0.650  0.00  0.00     0.066 C 
ATOM    125  H   MLY d   1      30.109  -3.478   0.424  0.00  0.00     0.068 H 
ATOM    126  H   MLY d   1      28.881  -3.460  -0.887  0.00  0.00     0.068 H 
ATOM    127  H   MLY d   1      30.231  -2.275  -0.905  0.00  0.00     0.068 H 
ENDBRANCH 118 124
ENDBRANCH 115 118
ENDBRANCH 112 115
ENDBRANCH 109 112
ENDBRANCH 106 109
ENDBRANCH   1 106
BRANCH   1 128
ATOM    128  C   MLY d   1      35.143  -5.803  -2.596  0.00  0.00     0.241 C 
ATOM    129  O   MLY d   1      35.032  -6.400  -1.528  0.00  0.00    -0.271 OA
ATOM    130  N   LEU d   1      34.628  -6.275  -3.736  0.00  0.00    -0.346 N 
ATOM    131  H   LEU d   1      34.841  -5.773  -4.574  0.00  0.00     0.163 HD
BRANCH 130 132
ATOM    132  CA  LEU d   1      33.776  -7.467  -3.866  0.00  0.00     0.089 C 
ATOM    133  H   LEU d   1      33.114  -7.442  -2.988  0.00  0.00     0.087 H 
BRANCH 132 134
ATOM    134  C   LEU d   1      34.520  -8.811  -3.743  0.00  0.00     0.241 C 
ATOM    135  O   LEU d   1      33.973  -9.883  -4.001  0.00  0.00    -0.271 OA
ATOM    136  N   MET d   1      35.778  -8.771  -3.306  0.00  0.00    -0.346 N 
ATOM    137  H   MET d   1      36.236  -7.882  -3.296  0.00  0.00     0.163 HD
BRANCH 136 138
ATOM    138  CA  MET d   1      36.542  -9.933  -2.839  0.00  0.00     0.090 C 
ATOM    139  H   MET d   1      36.295 -10.805  -3.463  0.00  0.00     0.087 H 
BRANCH 138 140
ATOM    140  C   MET d   1      36.095 -10.246  -1.384  0.00  0.00     0.241 C 
ATOM    141  O   MET d   1      36.884 -10.282  -0.439  0.00  0.00    -0.271 OA
ATOM    142  N   PHE d   1      34.774 -10.348  -1.186  0.00  0.00    -0.346 N 
ATOM    143  H   PHE d   1      34.179 -10.170  -1.970  0.00  0.00     0.163 HD
BRANCH 142 144
ATOM    144  CA  PHE d   1      34.125 -10.698   0.081  0.00  0.00     0.093 C 
ATOM    145  H   PHE d   1      34.607 -10.110   0.876  0.00  0.00     0.088 H 
BRANCH 144 146
ATOM    146  C   PHE d   1      34.328 -12.186   0.442  0.00  0.00     0.241 C 
ATOM    147  O   PHE d   1      34.850 -12.970  -0.358  0.00  0.00    -0.271 OA
ATOM    148  N   LYS d   1      33.938 -12.573   1.670  0.00  0.00    -0.346 N 
ATOM    149  H   LYS d   1      33.408 -11.923   2.215  0.00  0.00     0.163 HD
BRANCH 148 150
ATOM    150  CA  LYS d   1      34.237 -13.890   2.273  0.00  0.00     0.089 C 
ATOM    151  H   LYS d   1      35.327 -13.938   2.413  0.00  0.00     0.087 H 
BRANCH 150 152
ATOM    152  C   LYS d   1      33.843 -15.098   1.405  0.00  0.00     0.241 C 
ATOM    153  O   LYS d   1      34.580 -16.088   1.378  0.00  0.00    -0.271 OA
ATOM    154  N   THR d   1      32.711 -15.011   0.699  0.00  0.00    -0.343 N 
ATOM    155  H   THR d   1      32.105 -14.239   0.891  0.00  0.00     0.163 HD
BRANCH 154 156
ATOM    156  CA  THR d   1      32.287 -15.969  -0.344  0.00  0.00     0.120 C 
ATOM    157  H   THR d   1      32.490 -16.986   0.021  0.00  0.00     0.093 H 
BRANCH 156 158
ATOM    158  C   THR d   1      33.090 -15.746  -1.629  0.00  0.00     0.199 C 
ATOM    159  O   THR d   1      32.855 -14.741  -2.331  0.00  0.00    -0.646 OA
ATOM    160  OXT THR d   1      33.994 -16.551  -1.946  0.00  0.00    -0.646 OA
ENDBRANCH 156 158
BRANCH 156 161
ATOM    161  CB  THR d   1      30.787 -15.854  -0.634  0.00  0.00     0.061 C 
ATOM    162  H   THR d   1      30.579 -14.863  -1.064  0.00  0.00     0.086 H 
BRANCH 161 163
ATOM    163  OG1 THR d   1      30.073 -16.014   0.579  0.00  0.00    -0.393 OA
ATOM    164  H   THR d   1      29.141 -15.944   0.408  0.00  0.00     0.210 HD
ENDBRANCH 161 163
BRANCH 161 165
ATOM    165  CG2 THR d   1      30.305 -16.939  -1.603  0.00  0.00    -0.050 C 
ATOM    166  H   THR d   1      29.226 -16.818  -1.782  0.00  0.00     0.031 H 
ATOM    167  H   THR d   1      30.495 -17.931  -1.167  0.00  0.00     0.031 H 
ATOM    168  H   THR d   1      30.847 -16.847  -2.556  0.00  0.00     0.031 H 
ENDBRANCH 161 165
ENDBRANCH 156 161
ENDBRANCH 154 156
ENDBRANCH 150 152
BRANCH 150 169
ATOM    169  CB  LYS d   1      33.579 -13.999   3.661  0.00  0.00    -0.038 C 
ATOM    170  H   LYS d   1      33.697 -15.030   4.025  0.00  0.00     0.036 H 
ATOM    171  H   LYS d   1      32.509 -13.765   3.562  0.00  0.00     0.036 H 
BRANCH 169 172
ATOM    172  CG  LYS d   1      34.197 -13.040   4.693  0.00  0.00    -0.061 C 
ATOM    173  H   LYS d   1      34.047 -12.003   4.357  0.00  0.00     0.033 H 
ATOM    174  H   LYS d   1      35.274 -13.246   4.776  0.00  0.00     0.033 H 
BRANCH 172 175
ATOM    175  CD  LYS d   1      33.541 -13.223   6.072  0.00  0.00    -0.043 C 
ATOM    176  H   LYS d   1      33.718 -14.255   6.410  0.00  0.00     0.035 H 
ATOM    177  H   LYS d   1      32.459 -13.051   5.971  0.00  0.00     0.035 H 
BRANCH 175 178
ATOM    178  CE  LYS d   1      34.093 -12.259   7.133  0.00  0.00     0.080 C 
ATOM    179  H   LYS d   1      33.451 -12.313   8.024  0.00  0.00     0.075 H 
ATOM    180  H   LYS d   1      34.070 -11.238   6.726  0.00  0.00     0.075 H 
BRANCH 178 181
ATOM    181  NZ  LYS d   1      35.495 -12.581   7.535  0.00  0.00    -0.079 N 
ATOM    182  H   LYS d   1      35.805 -11.920   8.230  0.00  0.00     0.274 HD
ATOM    183  H   LYS d   1      36.097 -12.527   6.728  0.00  0.00     0.274 HD
ATOM    184  H   LYS d   1      35.529 -13.513   7.918  0.00  0.00     0.274 HD
ENDBRANCH 178 181
ENDBRANCH 175 178
ENDBRANCH 172 175
ENDBRANCH 169 172
ENDBRANCH 150 169
ENDBRANCH 148 150
ENDBRANCH 144 146
BRANCH 144 185
ATOM    185  CB  PHE d   1      32.644 -10.270   0.028  0.00  0.00    -0.014 C 
ATOM    186  H   PHE d   1      32.601  -9.199   0.273  0.00  0.00     0.043 H 
ATOM    187  H   PHE d   1      32.107 -10.844   0.797  0.00  0.00     0.043 H 
BRANCH 185 188
ATOM    188  CG  PHE d   1      31.906 -10.467  -1.287  0.00  0.00    -0.056 A 
ATOM    189  CD1 PHE d   1      31.674 -11.759  -1.793  0.00  0.00    -0.077 A 
ATOM    190  CE1 PHE d   1      31.008 -11.930  -3.019  0.00  0.00    -0.082 A 
ATOM    191  H   PHE d   1      32.010 -12.626  -1.235  0.00  0.00     0.084 H 
ATOM    192  CZ  PHE d   1      30.572 -10.810  -3.751  0.00  0.00    -0.083 A 
ATOM    193  H   PHE d   1      30.830 -12.928  -3.402  0.00  0.00     0.083 H 
ATOM    194  CE2 PHE d   1      30.790  -9.516  -3.245  0.00  0.00    -0.082 A 
ATOM    195  H   PHE d   1      30.070 -10.944  -4.702  0.00  0.00     0.083 H 
ATOM    196  CD2 PHE d   1      31.446  -9.350  -2.010  0.00  0.00    -0.077 A 
ATOM    197  H   PHE d   1      30.454  -8.650  -3.804  0.00  0.00     0.083 H 
ATOM    198  H   PHE d   1      31.598  -8.353  -1.612  0.00  0.00     0.084 H 
ENDBRANCH 185 188
ENDBRANCH 144 185
ENDBRANCH 142 144
ENDBRANCH 138 140
BRANCH 138 199
ATOM    199  CB  MET d   1      38.040  -9.635  -3.022  0.00  0.00    -0.030 C 
ATOM    200  H   MET d   1      38.386  -9.074  -2.141  0.00  0.00     0.037 H 
ATOM    201  H   MET d   1      38.156  -9.013  -3.922  0.00  0.00     0.037 H 
BRANCH 199 202
ATOM    202  CG  MET d   1      38.939 -10.873  -3.180  0.00  0.00    -0.021 C 
ATOM    203  H   MET d   1      39.934 -10.512  -3.480  0.00  0.00     0.049 H 
ATOM    204  H   MET d   1      38.510 -11.481  -3.990  0.00  0.00     0.049 H 
BRANCH 202 205
ATOM    205  SD  MET d   1      39.181 -11.977  -1.758  0.00  0.00    -0.173 SA
BRANCH 205 206
ATOM    206  CE  MET d   1      37.879 -13.208  -2.050  0.00  0.00    -0.035 C 
ATOM    207  H   MET d   1      37.901 -13.962  -1.250  0.00  0.00     0.041 H 
ATOM    208  H   MET d   1      38.048 -13.698  -3.020  0.00  0.00     0.041 H 
ATOM    209  H   MET d   1      36.898 -12.710  -2.057  0.00  0.00     0.041 H 
ENDBRANCH 205 206
ENDBRANCH 202 205
ENDBRANCH 199 202
ENDBRANCH 138 199
ENDBRANCH 136 138
ENDBRANCH 132 134
BRANCH 132 210
ATOM    210  CB  LEU d   1      32.831  -7.349  -5.082  0.00  0.00    -0.035 C 
ATOM    211  H   LEU d   1      32.110  -6.553  -4.846  0.00  0.00     0.037 H 
ATOM    212  H   LEU d   1      32.302  -8.310  -5.166  0.00  0.00     0.037 H 
BRANCH 210 213
ATOM    213  CG  LEU d   1      33.394  -7.034  -6.472  0.00  0.00    -0.059 C 
ATOM    214  H   LEU d   1      32.547  -7.069  -7.173  0.00  0.00     0.038 H 
BRANCH 213 215
ATOM    215  CD1 LEU d   1      34.019  -5.646  -6.574  0.00  0.00    -0.073 C 
ATOM    216  H   LEU d   1      34.400  -5.490  -7.594  0.00  0.00     0.028 H 
ATOM    217  H   LEU d   1      34.848  -5.564  -5.856  0.00  0.00     0.028 H 
ATOM    218  H   LEU d   1      33.259  -4.884  -6.346  0.00  0.00     0.028 H 
ENDBRANCH 213 215
BRANCH 213 219
ATOM    219  CD2 LEU d   1      34.420  -8.057  -6.932  0.00  0.00    -0.073 C 
ATOM    220  H   LEU d   1      33.987  -9.066  -6.865  0.00  0.00     0.028 H 
ATOM    221  H   LEU d   1      35.311  -7.997  -6.290  0.00  0.00     0.028 H 
ATOM    222  H   LEU d   1      34.705  -7.848  -7.974  0.00  0.00     0.028 H 
ENDBRANCH 213 219
ENDBRANCH 210 213
ENDBRANCH 132 210
ENDBRANCH 130 132
ENDBRANCH   1 128
TORSDOF 67
