REMARK WARNING: 32 MAX_TORS EXCEEDED!!!
REMARK  70 active torsions:
REMARK  status: ('A' for Active; 'I' for Inactive)
REMARK    1  A    between atoms: N_1  and  CA_2 
REMARK    2  A    between atoms: CA_2  and  C_3 
REMARK    3  A    between atoms: CA_2  and  CB_5 
REMARK       I    between atoms: C_3  and  N_7 
REMARK    4  A    between atoms: CB_5  and  OG_6 
REMARK    5  A    between atoms: N_7  and  CA_8 
REMARK    6  A    between atoms: CA_8  and  C_9 
REMARK    7  A    between atoms: CA_8  and  CB_11 
REMARK       I    between atoms: C_9  and  N_16 
REMARK    8  A    between atoms: CB_11  and  CG_12 
REMARK    9  A    between atoms: CG_12  and  CD_13 
REMARK       I    between atoms: CD_13  and  NE2_15 
REMARK   10  A    between atoms: N_16  and  CA_17 
REMARK   11  A    between atoms: CA_17  and  C_18 
REMARK   12  A    between atoms: CA_17  and  CB_20 
REMARK       I    between atoms: C_18  and  N_25 
REMARK   13  A    between atoms: CB_20  and  CG_21 
REMARK   14  A    between atoms: CG_21  and  CD_22 
REMARK   15  A    between atoms: N_25  and  CA_26 
REMARK   16  A    between atoms: CA_26  and  C_27 
REMARK   17  A    between atoms: CA_26  and  CB_29 
REMARK       I    between atoms: C_27  and  N_32 
REMARK   18  A    between atoms: CB_29  and  OG1_30 
REMARK   19  A    between atoms: CB_29  and  CG2_31 
REMARK   20  A    between atoms: N_32  and  CA_33 
REMARK   21  A    between atoms: CA_33  and  C_34 
REMARK   22  A    between atoms: CA_33  and  CB_36 
REMARK       I    between atoms: C_34  and  N_43 
REMARK   23  A    between atoms: CB_36  and  CG_37 
REMARK   24  A    between atoms: N_43  and  CA_44 
REMARK   25  A    between atoms: CA_44  and  C_45 
REMARK   26  A    between atoms: CA_44  and  CB_47 
REMARK       I    between atoms: C_45  and  N_49 
REMARK   27  A    between atoms: CB_47  and  OG_48 
REMARK   28  A    between atoms: N_49  and  CA_50 
REMARK   29  A    between atoms: CA_50  and  C_51 
REMARK   30  A    between atoms: CA_50  and  CB_53 
REMARK       I    between atoms: C_51  and  N_57 
REMARK   31  A    between atoms: CB_53  and  CG_54 
REMARK   32  A    between atoms: N_57  and  CA_58 
REMARK   33  A    between atoms: CA_58  and  C_59 
REMARK   34  A    between atoms: CA_58  and  CB_61 
REMARK       I    between atoms: C_59  and  N_65 
REMARK   35  A    between atoms: CB_61  and  CG_62 
REMARK   36  A    between atoms: CG_62  and  CD1_63 
REMARK   37  A    between atoms: CG_62  and  CD2_64 
REMARK   38  A    between atoms: N_65  and  CA_66 
REMARK   39  A    between atoms: CA_66  and  C_67 
REMARK   40  A    between atoms: CA_66  and  CB_69 
REMARK       I    between atoms: C_67  and  N_79 
REMARK   41  A    between atoms: CB_69  and  CG_70 
REMARK   42  A    between atoms: N_79  and  CA_80 
REMARK   43  A    between atoms: CA_80  and  C_81 
REMARK   44  A    between atoms: CA_80  and  CB_83 
REMARK       I    between atoms: C_81  and  N_88 
REMARK   45  A    between atoms: CB_83  and  CG_84 
REMARK   46  A    between atoms: CG_84  and  CD_85 
REMARK   47  A    between atoms: CD_85  and  CE_86 
REMARK   48  A    between atoms: CE_86  and  NZ_87 
REMARK   49  A    between atoms: N_88  and  CA_89 
REMARK   50  A    between atoms: CA_89  and  C_90 
REMARK   51  A    between atoms: CA_89  and  CB_92 
REMARK       I    between atoms: C_90  and  N_96 
REMARK   52  A    between atoms: CB_92  and  CG_93 
REMARK   53  A    between atoms: CG_93  and  CD1_94 
REMARK   54  A    between atoms: CG_93  and  CD2_95 
REMARK   55  A    between atoms: N_96  and  CA_97 
REMARK   56  A    between atoms: CA_97  and  C_98 
REMARK   57  A    between atoms: CA_97  and  CB_100 
REMARK       I    between atoms: C_98  and  N_104 
REMARK   58  A    between atoms: CB_100  and  CG_101 
REMARK   59  A    between atoms: CG_101  and  CD1_102 
REMARK   60  A    between atoms: CG_101  and  CD2_103 
REMARK   61  A    between atoms: CA_105  and  C_106 
REMARK       I    between atoms: C_106  and  N_111 
REMARK   62  A    between atoms: N_111  and  CA_112 
REMARK   63  A    between atoms: CA_112  and  C_113 
REMARK   64  A    between atoms: CA_112  and  CB_115 
REMARK       I    between atoms: C_113  and  N_120 
REMARK   65  A    between atoms: CB_115  and  CG_116 
REMARK   66  A    between atoms: CG_116  and  CD_117 
REMARK   67  A    between atoms: N_120  and  CA_121 
REMARK   68  A    between atoms: CA_121  and  C_122 
REMARK   69  A    between atoms: CA_121  and  CB_124 
REMARK   70  A    between atoms: CB_124  and  CG_125 
REMARK       I    between atoms: CG_125  and  ND2_127 
ROOT
ATOM      1  CA  TRP d   1       7.597  14.941   7.835  0.00  0.00     0.093 C 
ATOM      2  H59 TRP d   1       7.615  15.211   6.769  0.00  0.00     0.088 H 
ENDROOT
BRANCH   1   3
ATOM      3  N   TRP d   1       6.987  16.037   8.579  0.00  0.00    -0.346 N 
ATOM      4  C   LEU d   1       5.669  16.138   8.714  0.00  0.00     0.241 C 
ATOM      5  O   LEU d   1       4.881  15.326   8.229  0.00  0.00    -0.271 OA
ATOM      6  H58 TRP d   1       7.575  16.729   8.998  0.00  0.00     0.163 HD
BRANCH   4   7
ATOM      7  CA  LEU d   1       5.164  17.331   9.519  0.00  0.00     0.089 C 
ATOM      8  H48 LEU d   1       4.075  17.235   9.640  0.00  0.00     0.087 H 
BRANCH   7   9
ATOM      9  N   LEU d   1       5.775  17.363  10.843  0.00  0.00    -0.346 N 
ATOM     10  C   ASP d   1       5.376  16.548  11.814  0.00  0.00     0.241 C 
ATOM     11  O   ASP d   1       4.475  15.721  11.667  0.00  0.00    -0.271 OA
ATOM     12  H47 LEU d   1       6.512  18.014  11.025  0.00  0.00     0.163 HD
BRANCH  10  13
ATOM     13  CA  ASP d   1       6.100  16.688  13.149  0.00  0.00     0.098 C 
ATOM     14  H44 ASP d   1       5.619  16.020  13.879  0.00  0.00     0.088 H 
BRANCH  13  15
ATOM     15  N   ASP d   1       7.500  16.302  13.024  0.00  0.00    -0.345 N 
ATOM     16  C   SER d   1       7.859  15.156  12.456  0.00  0.00     0.243 C 
ATOM     17  O   SER d   1       7.047  14.350  12.002  0.00  0.00    -0.271 OA
ATOM     18  H43 ASP d   1       8.208  16.915  13.375  0.00  0.00     0.163 HD
BRANCH  16  19
ATOM     19  CA  SER d   1       9.358  14.880  12.390  0.00  0.00     0.109 C 
ATOM     20  H39 SER d   1       9.537  14.098  11.637  0.00  0.00     0.090 H 
BRANCH  19  21
ATOM     21  N   SER d   1      10.091  16.077  11.995  0.00  0.00    -0.344 N 
ATOM     22  C   PHE d   1       9.725  16.802  10.943  0.00  0.00     0.241 C 
ATOM     23  O   PHE d   1       8.755  16.520  10.240  0.00  0.00    -0.271 OA
ATOM     24  H38 SER d   1      10.888  16.359  12.528  0.00  0.00     0.163 HD
BRANCH  22  25
ATOM     25  CA  PHE d   1      10.583  18.027  10.639  0.00  0.00     0.093 C 
ATOM     26  H30 PHE d   1      10.017  18.694   9.973  0.00  0.00     0.088 H 
BRANCH  25  27
ATOM     27  N   PHE d   1      10.900  18.756  11.862  0.00  0.00    -0.346 N 
ATOM     28  C   THR d   1      10.015  18.884  12.846  0.00  0.00     0.243 C 
ATOM     29  O   THR d   1       8.883  18.404  12.795  0.00  0.00    -0.271 OA
ATOM     30  H29 PHE d   1      11.805  19.169  11.963  0.00  0.00     0.163 HD
BRANCH  28  31
ATOM     31  CA  THR d   1      10.476  19.671  14.068  0.00  0.00     0.113 C 
ATOM     32  H23 THR d   1      10.254  20.736  13.904  0.00  0.00     0.091 H 
BRANCH  31  33
ATOM     33  N   THR d   1       9.770  19.240  15.267  0.00  0.00    -0.344 N 
ATOM     34  C   GLU d   1       9.468  17.962  15.478  0.00  0.00     0.241 C 
ATOM     35  O   GLU d   1       9.761  17.066  14.685  0.00  0.00    -0.271 OA
ATOM     36  H22 THR d   1       9.506  19.922  15.949  0.00  0.00     0.163 HD
BRANCH  34  37
ATOM     37  CA  GLU d   1       8.725  17.651  16.774  0.00  0.00     0.090 C 
ATOM     38  H17 GLU d   1       8.351  16.618  16.724  0.00  0.00     0.087 H 
BRANCH  37  39
ATOM     39  N   GLU d   1       9.615  17.764  17.923  0.00  0.00    -0.346 N 
ATOM     40  C   GLN d   1       9.663  16.824  18.861  0.00  0.00     0.241 C 
ATOM     41  O   GLN d   1       8.970  15.807  18.828  0.00  0.00    -0.271 OA
ATOM     42  H16 GLU d   1      10.204  18.568  18.007  0.00  0.00     0.163 HD
BRANCH  40  43
ATOM     43  CA  GLN d   1      10.636  17.067  20.010  0.00  0.00     0.090 C 
ATOM     44  H9  GLN d   1      10.825  18.148  20.085  0.00  0.00     0.087 H 
BRANCH  43  45
ATOM     45  N   GLN d   1      10.074  16.608  21.275  0.00  0.00    -0.346 N 
ATOM     46  C   SER d   1       9.326  17.404  22.033  0.00  0.00     0.251 C 
ATOM     47  O   SER d   1       9.059  18.565  21.727  0.00  0.00    -0.271 OA
ATOM     48  H8  GLN d   1      10.255  15.673  21.579  0.00  0.00     0.163 HD
BRANCH  46  49
ATOM     49  CA  SER d   1       8.802  16.797  23.331  0.00  0.00     0.195 C 
ATOM     50  H4  SER d   1       7.822  17.243  23.555  0.00  0.00     0.102 H 
BRANCH  49  51
ATOM     51  N   SER d   1       8.635  15.354  23.199  0.00  0.00    -0.064 N 
ATOM     52  H1  SER d   1       8.289  14.975  24.067  0.00  0.00     0.275 HD
ATOM     53  H2  SER d   1       9.523  14.932  22.979  0.00  0.00     0.275 HD
ATOM     54  H3  SER d   1       7.978  15.158  22.461  0.00  0.00     0.275 HD
ENDBRANCH  49  51
BRANCH  49  55
ATOM     55  CB  SER d   1       9.760  17.117  24.480  0.00  0.00     0.051 C 
ATOM     56  H5  SER d   1      10.065  16.178  24.966  0.00  0.00     0.077 H 
ATOM     57  H6  SER d   1       9.244  17.757  25.211  0.00  0.00     0.077 H 
BRANCH  55  58
ATOM     58  OG  SER d   1      10.915  17.791  24.009  0.00  0.00    -0.398 OA
ATOM     59  H7  SER d   1      10.657  18.605  23.592  0.00  0.00     0.209 HD
ENDBRANCH  55  58
ENDBRANCH  49  55
ENDBRANCH  46  49
ENDBRANCH  43  45
BRANCH  43  60
ATOM     60  CB  GLN d   1      11.962  16.356  19.730  0.00  0.00    -0.030 C 
ATOM     61  H10 GLN d   1      12.245  16.547  18.684  0.00  0.00     0.037 H 
ATOM     62  H11 GLN d   1      11.816  15.276  19.878  0.00  0.00     0.037 H 
BRANCH  60  63
ATOM     63  CG  GLN d   1      13.099  16.815  20.628  0.00  0.00     0.011 C 
ATOM     64  H12 GLN d   1      14.050  16.464  20.200  0.00  0.00     0.047 H 
ATOM     65  H13 GLN d   1      12.960  16.373  21.626  0.00  0.00     0.047 H 
BRANCH  63  66
ATOM     66  CD  GLN d   1      13.159  18.323  20.770  0.00  0.00     0.215 C 
ATOM     67  OE1 GLN d   1      13.079  18.857  21.876  0.00  0.00    -0.274 OA
ATOM     68  NE2 GLN d   1      13.300  19.019  19.648  0.00  0.00    -0.370 N 
ATOM     69  H14 GLN d   1      13.345  20.017  19.681  0.00  0.00     0.159 HD
ATOM     70  H15 GLN d   1      13.361  18.545  18.770  0.00  0.00     0.159 HD
ENDBRANCH  63  66
ENDBRANCH  60  63
ENDBRANCH  43  60
ENDBRANCH  40  43
ENDBRANCH  37  39
BRANCH  37  71
ATOM     71  CB  GLU d   1       7.532  18.597  16.930  0.00  0.00    -0.029 C 
ATOM     72  H18 GLU d   1       6.610  17.997  16.930  0.00  0.00     0.037 H 
ATOM     73  H19 GLU d   1       7.521  19.287  16.073  0.00  0.00     0.037 H 
BRANCH  71  74
ATOM     74  CG  GLU d   1       7.570  19.419  18.208  0.00  0.00     0.018 C 
ATOM     75  H20 GLU d   1       8.332  20.204  18.099  0.00  0.00     0.049 H 
ATOM     76  H21 GLU d   1       7.841  18.758  19.044  0.00  0.00     0.049 H 
BRANCH  74  77
ATOM     77  CD  GLU d   1       6.239  20.074  18.519  0.00  0.00     0.172 C 
ATOM     78  OE1 GLU d   1       5.481  20.362  17.569  0.00  0.00    -0.648 OA
ATOM     79  OE2 GLU d   1       5.954  20.298  19.715  0.00  0.00    -0.648 OA
ENDBRANCH  74  77
ENDBRANCH  71  74
ENDBRANCH  37  71
ENDBRANCH  34  37
ENDBRANCH  31  33
BRANCH  31  80
ATOM     80  CB  THR d   1      12.000  19.507  14.224  0.00  0.00     0.060 C 
ATOM     81  H24 THR d   1      12.299  18.549  13.774  0.00  0.00     0.086 H 
BRANCH  80  82
ATOM     82  OG1 THR d   1      12.352  19.497  15.612  0.00  0.00    -0.393 OA
ATOM     83  H25 THR d   1      13.293  19.396  15.698  0.00  0.00     0.210 HD
ENDBRANCH  80  82
BRANCH  80  84
ATOM     84  CG2 THR d   1      12.740  20.632  13.516  0.00  0.00    -0.050 C 
ATOM     85  H26 THR d   1      13.824  20.494  13.641  0.00  0.00     0.031 H 
ATOM     86  H27 THR d   1      12.441  21.598  13.950  0.00  0.00     0.031 H 
ATOM     87  H28 THR d   1      12.490  20.618  12.445  0.00  0.00     0.031 H 
ENDBRANCH  80  84
ENDBRANCH  31  80
ENDBRANCH  28  31
ENDBRANCH  25  27
BRANCH  25  88
ATOM     88  CB  PHE d   1      11.868  17.600   9.927  0.00  0.00    -0.014 C 
ATOM     89  H31 PHE d   1      12.103  16.567  10.223  0.00  0.00     0.043 H 
ATOM     90  H32 PHE d   1      12.682  18.267  10.247  0.00  0.00     0.043 H 
BRANCH  88  91
ATOM     91  CG  PHE d   1      11.770  17.655   8.430  0.00  0.00    -0.056 A 
ATOM     92  CD1 PHE d   1      10.534  17.694   7.804  0.00  0.00    -0.077 A 
ATOM     93  CE1 PHE d   1      10.440  17.745   6.426  0.00  0.00    -0.082 A 
ATOM     94  H33 PHE d   1       9.630  17.684   8.402  0.00  0.00     0.084 H 
ATOM     95  CZ  PHE d   1      11.588  17.756   5.657  0.00  0.00    -0.083 A 
ATOM     96  H35 PHE d   1       9.467  17.776   5.949  0.00  0.00     0.083 H 
ATOM     97  CE2 PHE d   1      12.826  17.718   6.269  0.00  0.00    -0.082 A 
ATOM     98  H37 PHE d   1      11.517  17.794   4.576  0.00  0.00     0.083 H 
ATOM     99  CD2 PHE d   1      12.913  17.667   7.647  0.00  0.00    -0.077 A 
ATOM    100  H36 PHE d   1      13.728  17.728   5.668  0.00  0.00     0.083 H 
ATOM    101  H34 PHE d   1      13.887  17.636   8.121  0.00  0.00     0.084 H 
ENDBRANCH  88  91
ENDBRANCH  25  88
ENDBRANCH  22  25
ENDBRANCH  19  21
BRANCH  19 102
ATOM    102  CB  SER d   1       9.855  14.376  13.747  0.00  0.00     0.044 C 
ATOM    103  H40 SER d   1       9.075  14.551  14.503  0.00  0.00     0.077 H 
ATOM    104  H41 SER d   1      10.765  14.928  14.024  0.00  0.00     0.077 H 
BRANCH 102 105
ATOM    105  OG  SER d   1      10.151  12.991  13.700  0.00  0.00    -0.398 OA
ATOM    106  H42 SER d   1      10.457  12.704  14.553  0.00  0.00     0.209 HD
ENDBRANCH 102 105
ENDBRANCH  19 102
ENDBRANCH  16  19
ENDBRANCH  13  15
BRANCH  13 107
ATOM    107  CB  ASP d   1       5.988  18.127  13.656  0.00  0.00     0.043 C 
ATOM    108  H45 ASP d   1       6.117  18.812  12.805  0.00  0.00     0.052 H 
ATOM    109  H46 ASP d   1       6.785  18.305  14.393  0.00  0.00     0.052 H 
BRANCH 107 110
ATOM    110  CG  ASP d   1       4.649  18.408  14.309  0.00  0.00     0.175 C 
ATOM    111  OD1 ASP d   1       3.624  17.909  13.800  0.00  0.00    -0.648 OA
ATOM    112  OD2 ASP d   1       4.625  19.128  15.329  0.00  0.00    -0.648 OA
ENDBRANCH 107 110
ENDBRANCH  13 107
ENDBRANCH  10  13
ENDBRANCH   7   9
BRANCH   7 113
ATOM    113  CB  LEU d   1       5.461  18.630   8.767  0.00  0.00    -0.035 C 
ATOM    114  H49 LEU d   1       4.662  18.780   8.026  0.00  0.00     0.037 H 
ATOM    115  H50 LEU d   1       6.423  18.506   8.249  0.00  0.00     0.037 H 
BRANCH 113 116
ATOM    116  CG  LEU d   1       5.549  19.895   9.622  0.00  0.00    -0.059 C 
ATOM    117  H51 LEU d   1       6.408  19.795  10.302  0.00  0.00     0.038 H 
BRANCH 116 118
ATOM    118  CD1 LEU d   1       5.771  21.117   8.745  0.00  0.00    -0.073 C 
ATOM    119  H52 LEU d   1       5.832  22.015   9.377  0.00  0.00     0.028 H 
ATOM    120  H53 LEU d   1       4.933  21.220   8.040  0.00  0.00     0.028 H 
ATOM    121  H54 LEU d   1       6.710  21.000   8.183  0.00  0.00     0.028 H 
ENDBRANCH 116 118
BRANCH 116 122
ATOM    122  CD2 LEU d   1       4.290  20.060  10.461  0.00  0.00    -0.073 C 
ATOM    123  H55 LEU d   1       4.147  19.167  11.087  0.00  0.00     0.028 H 
ATOM    124  H56 LEU d   1       3.421  20.185   9.798  0.00  0.00     0.028 H 
ATOM    125  H57 LEU d   1       4.391  20.947  11.104  0.00  0.00     0.028 H 
ENDBRANCH 116 122
ENDBRANCH 113 116
ENDBRANCH   7 113
ENDBRANCH   4   7
ENDBRANCH   1   3
BRANCH   1 126
ATOM    126  C   TRP d   1       6.790  13.658   7.996  0.00  0.00     0.241 C 
ATOM    127  O   TRP d   1       6.342  13.067   7.013  0.00  0.00    -0.271 OA
ATOM    128  N   LYS d   1       6.606  13.232   9.241  0.00  0.00    -0.346 N 
ATOM    129  H68 LYS d   1       6.996  13.756   9.998  0.00  0.00     0.163 HD
BRANCH 128 130
ATOM    130  CA  LYS d   1       5.850  12.019   9.531  0.00  0.00     0.089 C 
ATOM    131  H69 LYS d   1       6.487  11.150   9.310  0.00  0.00     0.087 H 
BRANCH 130 132
ATOM    132  C   LYS d   1       4.599  11.937   8.663  0.00  0.00     0.241 C 
ATOM    133  O   LYS d   1       4.278  10.880   8.116  0.00  0.00    -0.271 OA
ATOM    134  N   LEU d   1       3.896  13.057   8.538  0.00  0.00    -0.346 N 
ATOM    135  H81 LEU d   1       4.208  13.883   9.007  0.00  0.00     0.163 HD
BRANCH 134 136
ATOM    136  CA  LEU d   1       2.680  13.112   7.734  0.00  0.00     0.089 C 
ATOM    137  H82 LEU d   1       1.865  12.641   8.303  0.00  0.00     0.087 H 
BRANCH 136 138
ATOM    138  C   LEU d   1       2.858  12.352   6.424  0.00  0.00     0.241 C 
ATOM    139  O   LEU d   1       2.006  11.551   6.037  0.00  0.00    -0.271 OA
ATOM    140  N   LEU d   1       3.972  12.607   5.745  0.00  0.00    -0.346 N 
ATOM    141  H92 LEU d   1       4.626  13.269   6.111  0.00  0.00     0.163 HD
BRANCH 140 142
ATOM    142  CA  LEU d   1       4.264  11.945   4.479  0.00  0.00     0.090 C 
ATOM    143  H93 LEU d   1       3.650  12.409   3.693  0.00  0.00     0.087 H 
BRANCH 142 144
ATOM    144  C   LEU d   1       3.922  10.461   4.548  0.00  0.00     0.243 C 
ATOM    145  O   LEU d   1       4.658   9.655   5.118  0.00  0.00    -0.271 OA
ATOM    146  N   PRO d   1       2.779  10.088   3.953  0.00  0.00    -0.337 N 
ATOM    147  CA  PRO d   1       2.315   8.698   3.931  0.00  0.00     0.091 C 
ATOM    148  CD  PRO d   1       1.853  10.995   3.254  0.00  0.00    -0.001 C 
ATOM    149  CB  PRO d   1       0.899   8.806   3.360  0.00  0.00    -0.036 C 
ATOM    150 3H10 PRO d   1       2.297   8.281   4.949  0.00  0.00     0.087 H 
ATOM    151  CG  PRO d   1       0.911  10.057   2.551  0.00  0.00    -0.048 C 
ATOM    152 4H10 PRO d   1       0.158   8.875   4.170  0.00  0.00     0.036 H 
ATOM    153 5H10 PRO d   1       0.669   7.937   2.726  0.00  0.00     0.036 H 
ATOM    154 6H10 PRO d   1      -0.098  10.492   2.505  0.00  0.00     0.035 H 
ATOM    155 7H10 PRO d   1       1.268   9.850   1.531  0.00  0.00     0.035 H 
ATOM    156 8H10 PRO d   1       2.391  11.627   2.532  0.00  0.00     0.064 H 
ATOM    157 9H10 PRO d   1       1.313  11.633   3.969  0.00  0.00     0.064 H 
BRANCH 147 158
ATOM    158  C   PRO d   1       3.181   7.811   3.043  0.00  0.00     0.241 C 
ATOM    159  O   PRO d   1       2.934   7.689   1.844  0.00  0.00    -0.271 OA
ATOM    160  N   GLU d   1       4.196   7.194   3.640  0.00  0.00    -0.346 N 
ATOM    161 0H11 GLU d   1       4.344   7.334   4.619  0.00  0.00     0.163 HD
BRANCH 160 162
ATOM    162  CA  GLU d   1       5.098   6.319   2.902  0.00  0.00     0.090 C 
ATOM    163 1H11 GLU d   1       5.837   6.943   2.378  0.00  0.00     0.087 H 
BRANCH 162 164
ATOM    164  C   GLU d   1       4.335   5.499   1.866  0.00  0.00     0.241 C 
ATOM    165  O   GLU d   1       4.853   5.197   0.792  0.00  0.00    -0.271 OA
ATOM    166  N   ASN d   1       3.099   5.140   2.199  0.00  0.00    -0.344 N 
ATOM    167 6H11 ASN d   1       2.734   5.416   3.088  0.00  0.00     0.163 HD
BRANCH 166 168
ATOM    168  CA  ASN d   1       2.263   4.354   1.299  0.00  0.00     0.104 C 
ATOM    169 7H11 ASN d   1       2.913   3.691   0.709  0.00  0.00     0.090 H 
BRANCH 168 170
ATOM    170  C   ASN d   1       1.495   5.258   0.340  0.00  0.00     0.197 C 
ATOM    171  O   ASN d   1       2.010   5.649  -0.707  0.00  0.00    -0.646 OA
ATOM    172  OXT ASN d   1       0.345   5.615   0.594  0.00  0.00    -0.646 OA
ENDBRANCH 168 170
BRANCH 168 173
ATOM    173  CB  ASN d   1       1.284   3.493   2.100  0.00  0.00     0.037 C 
ATOM    174 8H11 ASN d   1       1.106   2.557   1.551  0.00  0.00     0.051 H 
ATOM    175 9H11 ASN d   1       0.337   4.042   2.207  0.00  0.00     0.051 H 
BRANCH 173 176
ATOM    176  CG  ASN d   1       1.809   3.154   3.482  0.00  0.00     0.217 C 
ATOM    177  OD1 ASN d   1       2.497   2.149   3.666  0.00  0.00    -0.274 OA
ATOM    178  ND2 ASN d   1       1.487   3.991   4.460  0.00  0.00    -0.370 N 
ATOM    179 0H12 ASN d   1       1.806   3.817   5.392  0.00  0.00     0.159 HD
ATOM    180 1H12 ASN d   1       0.926   4.795   4.265  0.00  0.00     0.159 HD
ENDBRANCH 173 176
ENDBRANCH 168 173
ENDBRANCH 166 168
ENDBRANCH 162 164
BRANCH 162 181
ATOM    181  CB  GLU d   1       5.839   5.386   3.862  0.00  0.00    -0.029 C 
ATOM    182 2H11 GLU d   1       6.766   5.883   4.183  0.00  0.00     0.037 H 
ATOM    183 3H11 GLU d   1       6.087   4.459   3.324  0.00  0.00     0.037 H 
BRANCH 181 184
ATOM    184  CG  GLU d   1       5.035   5.023   5.099  0.00  0.00     0.018 C 
ATOM    185 4H11 GLU d   1       5.204   3.961   5.330  0.00  0.00     0.049 H 
ATOM    186 5H11 GLU d   1       3.968   5.186   4.886  0.00  0.00     0.049 H 
BRANCH 184 187
ATOM    187  CD  GLU d   1       5.421   5.851   6.310  0.00  0.00     0.172 C 
ATOM    188  OE1 GLU d   1       6.456   5.538   6.936  0.00  0.00    -0.648 OA
ATOM    189  OE2 GLU d   1       4.690   6.811   6.631  0.00  0.00    -0.648 OA
ENDBRANCH 184 187
ENDBRANCH 181 184
ENDBRANCH 162 181
ENDBRANCH 160 162
ENDBRANCH 147 158
ENDBRANCH 142 144
BRANCH 142 190
ATOM    190  CB  LEU d   1       5.739  12.124   4.116  0.00  0.00    -0.035 C 
ATOM    191  H94 LEU d   1       6.046  11.253   3.519  0.00  0.00     0.037 H 
ATOM    192  H95 LEU d   1       6.315  12.149   5.053  0.00  0.00     0.037 H 
BRANCH 190 193
ATOM    193  CG  LEU d   1       6.087  13.382   3.320  0.00  0.00    -0.059 C 
ATOM    194  H96 LEU d   1       5.151  13.833   2.957  0.00  0.00     0.038 H 
BRANCH 193 195
ATOM    195  CD1 LEU d   1       6.795  14.396   4.206  0.00  0.00    -0.073 C 
ATOM    196  H97 LEU d   1       7.037  15.293   3.616  0.00  0.00     0.028 H 
ATOM    197  H98 LEU d   1       7.723  13.955   4.599  0.00  0.00     0.028 H 
ATOM    198  H99 LEU d   1       6.138  14.674   5.043  0.00  0.00     0.028 H 
ENDBRANCH 193 195
BRANCH 193 199
ATOM    199  CD2 LEU d   1       6.948  13.030   2.115  0.00  0.00    -0.073 C 
ATOM    200 0H10 LEU d   1       6.419  12.297   1.488  0.00  0.00     0.028 H 
ATOM    201 1H10 LEU d   1       7.901  12.600   2.458  0.00  0.00     0.028 H 
ATOM    202 2H10 LEU d   1       7.146  13.939   1.528  0.00  0.00     0.028 H 
ENDBRANCH 193 199
ENDBRANCH 190 193
ENDBRANCH 142 190
ENDBRANCH 140 142
ENDBRANCH 136 138
BRANCH 136 203
ATOM    203  CB  LEU d   1       2.300  14.566   7.447  0.00  0.00    -0.035 C 
ATOM    204  H83 LEU d   1       2.938  14.925   6.626  0.00  0.00     0.037 H 
ATOM    205  H84 LEU d   1       2.505  15.153   8.354  0.00  0.00     0.037 H 
BRANCH 203 206
ATOM    206  CG  LEU d   1       0.845  14.813   7.050  0.00  0.00    -0.059 C 
ATOM    207  H85 LEU d   1       0.218  14.054   7.541  0.00  0.00     0.038 H 
BRANCH 206 208
ATOM    208  CD1 LEU d   1       0.390  16.187   7.518  0.00  0.00    -0.073 C 
ATOM    209  H86 LEU d   1      -0.658  16.346   7.224  0.00  0.00     0.028 H 
ATOM    210  H87 LEU d   1       1.022  16.960   7.056  0.00  0.00     0.028 H 
ATOM    211  H88 LEU d   1       0.477  16.249   8.613  0.00  0.00     0.028 H 
ENDBRANCH 206 208
BRANCH 206 212
ATOM    212  CD2 LEU d   1       0.672  14.677   5.544  0.00  0.00    -0.073 C 
ATOM    213  H89 LEU d   1       1.006  13.678   5.225  0.00  0.00     0.028 H 
ATOM    214  H90 LEU d   1       1.274  15.444   5.035  0.00  0.00     0.028 H 
ATOM    215  H91 LEU d   1      -0.388  14.810   5.283  0.00  0.00     0.028 H 
ENDBRANCH 206 212
ENDBRANCH 203 206
ENDBRANCH 136 203
ENDBRANCH 134 136
ENDBRANCH 130 132
BRANCH 130 216
ATOM    216  CB  LYS d   1       5.461  11.977  11.010  0.00  0.00    -0.038 C 
ATOM    217  H70 LYS d   1       4.663  12.715  11.181  0.00  0.00     0.036 H 
ATOM    218  H71 LYS d   1       6.343  12.246  11.609  0.00  0.00     0.036 H 
BRANCH 216 219
ATOM    219  CG  LYS d   1       4.964  10.618  11.471  0.00  0.00    -0.061 C 
ATOM    220  H72 LYS d   1       5.327   9.849  10.773  0.00  0.00     0.033 H 
ATOM    221  H73 LYS d   1       3.864  10.622  11.473  0.00  0.00     0.033 H 
BRANCH 219 222
ATOM    222  CD  LYS d   1       5.458  10.288  12.869  0.00  0.00    -0.043 C 
ATOM    223  H74 LYS d   1       4.764   9.572  13.334  0.00  0.00     0.035 H 
ATOM    224  H75 LYS d   1       5.486  11.212  13.466  0.00  0.00     0.035 H 
BRANCH 222 225
ATOM    225  CE  LYS d   1       6.851   9.677  12.839  0.00  0.00     0.080 C 
ATOM    226  H76 LYS d   1       7.585  10.474  12.649  0.00  0.00     0.075 H 
ATOM    227  H77 LYS d   1       6.897   8.935  12.028  0.00  0.00     0.075 H 
BRANCH 225 228
ATOM    228  NZ  LYS d   1       7.190   9.006  14.125  0.00  0.00    -0.079 N 
ATOM    229  H78 LYS d   1       8.117   8.615  14.066  0.00  0.00     0.274 HD
ATOM    230  H79 LYS d   1       6.526   8.270  14.305  0.00  0.00     0.274 HD
ATOM    231  H80 LYS d   1       7.156   9.679  14.874  0.00  0.00     0.274 HD
ENDBRANCH 225 228
ENDBRANCH 222 225
ENDBRANCH 219 222
ENDBRANCH 216 219
ENDBRANCH 130 216
ENDBRANCH 128 130
ENDBRANCH   1 126
BRANCH   1 232
ATOM    232  CB  TRP d   1       9.035  14.716   8.307  0.00  0.00    -0.012 C 
ATOM    233  H60 TRP d   1       9.007  14.216   9.287  0.00  0.00     0.044 H 
ATOM    234  H61 TRP d   1       9.526  15.695   8.409  0.00  0.00     0.044 H 
BRANCH 232 235
ATOM    235  CG  TRP d   1       9.843  13.874   7.367  0.00  0.00    -0.028 A 
ATOM    236  CD1 TRP d   1      10.486  12.705   7.660  0.00  0.00    -0.015 A 
ATOM    237  NE1 TRP d   1      11.123  12.226   6.541  0.00  0.00    -0.365 N 
ATOM    238  H62 TRP d   1      10.493  12.224   8.637  0.00  0.00     0.112 H 
ATOM    239  CE2 TRP d   1      10.899  13.085   5.499  0.00  0.00     0.042 A 
ATOM    240  H63 TRP d   1      11.679  11.360   6.494  0.00  0.00     0.165 HD
ATOM    241  CD2 TRP d   1      10.096  14.137   5.982  0.00  0.00    -0.002 A 
ATOM    242  CZ2 TRP d   1      11.333  13.028   4.177  0.00  0.00    -0.056 A 
ATOM    243  CE3 TRP d   1       9.722  15.157   5.104  0.00  0.00    -0.070 A 
ATOM    244  CZ3 TRP d   1      10.153  15.099   3.793  0.00  0.00    -0.082 A 
ATOM    245  H64 TRP d   1       9.104  15.980   5.446  0.00  0.00     0.084 H 
ATOM    246  CH2 TRP d   1      10.951  14.040   3.339  0.00  0.00    -0.081 A 
ATOM    247  H66 TRP d   1       9.869  15.886   3.104  0.00  0.00     0.083 H 
ATOM    248  H67 TRP d   1      11.272  14.022   2.304  0.00  0.00     0.083 H 
ATOM    249  H65 TRP d   1      11.952  12.211   3.824  0.00  0.00     0.086 H 
ENDBRANCH 232 235
ENDBRANCH   1 232
TORSDOF 70
