REMARK  11 active torsions:
REMARK  status: ('A' for Active; 'I' for Inactive)
REMARK       I    between atoms: C5_9  and  N2_7 
REMARK       I    between atoms: N3_11  and  C5_9 
REMARK    1  A    between atoms: C6_12  and  CG3_29 
REMARK    2  A    between atoms: C7_13  and  CG2_22 
REMARK    3  A    between atoms: C8_14  and  CG1_15 
REMARK    4  A    between atoms: CE4_26  and  O4_27 
REMARK    5  A    between atoms: O4_27  and  CM4_41 
REMARK    6  A    between atoms: CZ3_32  and  O3_39 
REMARK    7  A    between atoms: CD6_34  and  O6_35 
REMARK    8  A    between atoms: O6_35  and  C9_36 
REMARK    9  A    between atoms: C9_36  and  CM2_37 
REMARK   10  A    between atoms: C9_36  and  CM3_38 
REMARK   11  A    between atoms: O3_39  and  CM1_40 
ROOT
ATOM      1  N   44Z d   1       2.571  10.639 -12.590  0.00  0.00    -0.259 NA
ATOM      2  C1  44Z d   1      -0.781  16.280 -11.947  0.00  0.00     0.235 C 
ATOM      3  O1  44Z d   1      -1.131  17.432 -12.131  0.00  0.00    -0.272 OA
ATOM      4  N1  44Z d   1      -1.731  15.339 -11.849  0.00  0.00    -0.358 N 
ATOM      5  C2  44Z d   1      -1.447  13.912 -11.668  0.00  0.00     0.010 C 
ATOM      6  C3  44Z d   1      -0.091  13.514 -12.281  0.00  0.00     0.014 C 
ATOM      7  N2  44Z d   1       1.016  14.398 -11.848  0.00  0.00    -0.324 N 
ATOM      8  C4  44Z d   1       0.683  15.856 -11.818  0.00  0.00     0.073 C 
ATOM      9  C5  44Z d   1       2.243  13.977 -11.433  0.00  0.00     0.327 C 
ATOM     10  O5  44Z d   1       2.885  14.672 -10.665  0.00  0.00    -0.247 OA
ATOM     11  N3  44Z d   1       2.716  12.770 -11.817  0.00  0.00    -0.272 N 
ATOM     12  C6  44Z d   1       2.421  11.877 -12.885  0.00  0.00     0.143 C 
ATOM     13  C7  44Z d   1       3.131  10.482 -11.224  0.00  0.00     0.084 C 
ATOM     14  C8  44Z d   1       3.430  11.961 -10.816  0.00  0.00     0.074 C 
ATOM     15  H1  44Z d   1      -2.687  15.627 -11.902  0.00  0.00     0.162 HD
ATOM     16  H2  44Z d   1      -2.242  13.327 -12.153  0.00  0.00     0.066 H 
ATOM     17  H3  44Z d   1      -1.431  13.686 -10.591  0.00  0.00     0.066 H 
ATOM     18  H4  44Z d   1      -0.172  13.564 -13.377  0.00  0.00     0.067 H 
ATOM     19  H5  44Z d   1       0.143  12.483 -11.977  0.00  0.00     0.067 H 
ATOM     20  H6  44Z d   1       1.051  16.252 -10.860  0.00  0.00     0.079 H 
ATOM     21  H7  44Z d   1       1.231  16.330 -12.646  0.00  0.00     0.079 H 
ATOM     22  H8  44Z d   1       2.353  10.072 -10.563  0.00  0.00     0.087 H 
ATOM     23  H9  44Z d   1       2.979  12.156  -9.832  0.00  0.00     0.085 H 
ENDROOT
BRANCH  12  24
ATOM     24  CG3 44Z d   1       1.979  12.294 -14.260  0.00  0.00     0.043 A 
ATOM     25  CD5 44Z d   1       1.316  11.332 -15.040  0.00  0.00    -0.064 A 
ATOM     26  CE5 44Z d   1       0.816  11.636 -16.304  0.00  0.00    -0.050 A 
ATOM     27  H18 44Z d   1       1.190  10.329 -14.649  0.00  0.00     0.085 H 
ATOM     28  CZ3 44Z d   1       0.964  12.919 -16.822  0.00  0.00     0.070 A 
ATOM     29  H19 44Z d   1       0.311  10.873 -16.885  0.00  0.00     0.087 H 
ATOM     30  CE6 44Z d   1       1.641  13.875 -16.079  0.00  0.00    -0.018 A 
ATOM     31  CD6 44Z d   1       2.176  13.569 -14.827  0.00  0.00     0.086 A 
ATOM     32  H20 44Z d   1       1.756  14.876 -16.478  0.00  0.00     0.092 H 
BRANCH  28  33
ATOM     33  O3  44Z d   1       0.469  13.289 -18.059  0.00  0.00    -0.356 OA
BRANCH  33  34
ATOM     34  CM1 44Z d   1      -0.399  12.437 -18.844  0.00  0.00     0.010 C 
ATOM     35  H28 44Z d   1      -0.659  12.945 -19.784  0.00  0.00     0.066 H 
ATOM     36  H29 44Z d   1      -1.317  12.225 -18.276  0.00  0.00     0.066 H 
ATOM     37  H30 44Z d   1       0.119  11.493 -19.069  0.00  0.00     0.066 H 
ENDBRANCH  33  34
ENDBRANCH  28  33
BRANCH  31  38
ATOM     38  O6  44Z d   1       2.896  14.556 -14.187  0.00  0.00    -0.346 OA
BRANCH  38  39
ATOM     39  C9  44Z d   1       4.253  14.890 -14.572  0.00  0.00     0.038 C 
ATOM     40  H21 44Z d   1       4.834  13.966 -14.711  0.00  0.00     0.082 H 
BRANCH  39  41
ATOM     41  CM2 44Z d   1       4.285  15.702 -15.881  0.00  0.00    -0.052 C 
ATOM     42  H22 44Z d   1       5.328  15.937 -16.141  0.00  0.00     0.030 H 
ATOM     43  H23 44Z d   1       3.721  16.637 -15.746  0.00  0.00     0.030 H 
ATOM     44  H24 44Z d   1       3.829  15.112 -16.690  0.00  0.00     0.030 H 
ENDBRANCH  39  41
BRANCH  39  45
ATOM     45  CM3 44Z d   1       4.855  15.717 -13.422  0.00  0.00    -0.052 C 
ATOM     46  H25 44Z d   1       5.890  15.994 -13.672  0.00  0.00     0.030 H 
ATOM     47  H26 44Z d   1       4.848  15.120 -12.498  0.00  0.00     0.030 H 
ATOM     48  H27 44Z d   1       4.257  16.628 -13.274  0.00  0.00     0.030 H 
ENDBRANCH  39  45
ENDBRANCH  38  39
ENDBRANCH  31  38
ENDBRANCH  12  24
BRANCH  13  49
ATOM     49  CG2 44Z d   1       4.347   9.549 -11.111  0.00  0.00    -0.028 C 
ATOM     50  CD3 44Z d   1       5.406   9.649 -12.020  0.00  0.00    -0.074 C 
ATOM     51  CE3 44Z d   1       6.653   9.112 -11.717  0.00  0.00    -0.080 C 
ATOM     52  H14 44Z d   1       5.253  10.150 -12.969  0.00  0.00     0.084 H 
ATOM     53  CZ2 44Z d   1       6.832   8.413 -10.527  0.00  0.00    -0.051 C 
ATOM     54  H15 44Z d   1       7.481   9.237 -12.405  0.00  0.00     0.083 H 
ATOM     55  CE4 44Z d   1       5.755   8.184  -9.687  0.00  0.00     0.068 C 
ATOM     56  H16 44Z d   1       7.816   8.047 -10.257  0.00  0.00     0.087 H 
ATOM     57  CD4 44Z d   1       4.522   8.759  -9.969  0.00  0.00    -0.043 C 
ATOM     58  H17 44Z d   1       3.687   8.594  -9.298  0.00  0.00     0.088 H 
BRANCH  55  59
ATOM     59  O4  44Z d   1       5.949   7.456  -8.536  0.00  0.00    -0.356 OA
BRANCH  59  60
ATOM     60  CM4 44Z d   1       5.249   6.202  -8.373  0.00  0.00     0.010 C 
ATOM     61  H31 44Z d   1       5.517   5.755  -7.404  0.00  0.00     0.066 H 
ATOM     62  H32 44Z d   1       5.533   5.516  -9.184  0.00  0.00     0.066 H 
ATOM     63  H33 44Z d   1       4.164   6.381  -8.406  0.00  0.00     0.066 H 
ENDBRANCH  59  60
ENDBRANCH  55  59
ENDBRANCH  13  49
BRANCH  14  64
ATOM     64  CG1 44Z d   1       4.931  12.245 -10.674  0.00  0.00    -0.032 A 
ATOM     65  CD1 44Z d   1       5.728  12.687 -11.736  0.00  0.00    -0.073 A 
ATOM     66  CE1 44Z d   1       7.120  12.701 -11.607  0.00  0.00    -0.061 A 
ATOM     67  H10 44Z d   1       5.266  13.019 -12.659  0.00  0.00     0.084 H 
ATOM     68  CZ1 44Z d   1       7.722  12.235 -10.437  0.00  0.00     0.034 A 
ATOM     69  H11 44Z d   1       7.734  13.075 -12.418  0.00  0.00     0.086 H 
ATOM     70 CL   44Z d   1       9.444  12.119 -10.340  0.00  0.00    -0.084 Cl
ATOM     71  CE2 44Z d   1       6.933  11.781  -9.382  0.00  0.00    -0.061 A 
ATOM     72  CD2 44Z d   1       5.554  11.816  -9.504  0.00  0.00    -0.073 A 
ATOM     73  H12 44Z d   1       7.394  11.405  -8.476  0.00  0.00     0.086 H 
ATOM     74  H13 44Z d   1       4.942  11.501  -8.666  0.00  0.00     0.084 H 
ENDBRANCH  14  64
TORSDOF 11
