REMARK  7 active torsions:
REMARK  status: ('A' for Active; 'I' for Inactive)
REMARK    1  A    between atoms: C8_39  and  CG1_2 
REMARK    2  A    between atoms: C7_38  and  CG2_3 
REMARK    3  A    between atoms: CG3_4  and  C6_36 
REMARK    4  A    between atoms: O6_37  and  CD6_10 
REMARK    5  A    between atoms: C9_40  and  CM2_23 
REMARK    6  A    between atoms: C9_40  and  CM3_24 
REMARK       I    between atoms: C5_34  and  N2_30 
REMARK       I    between atoms: N3_32  and  C5_34 
REMARK    7  A    between atoms: O6_37  and  C9_40 
ROOT
ATOM      1  CG3 48M d   1      -0.627  15.662 -14.005  0.00  0.00     0.043 A 
ATOM      2  CD5 48M d   1      -1.727  15.091 -14.662  0.00  0.00    -0.065 A 
ATOM      3  CD6 48M d   1       0.018  16.752 -14.617  0.00  0.00     0.084 A 
ATOM      4  CE5 48M d   1      -2.227  15.632 -15.841  0.00  0.00    -0.062 A 
ATOM      5  CE6 48M d   1      -0.494  17.296 -15.801  0.00  0.00    -0.030 A 
ATOM      6  CZ3 48M d   1      -1.625  16.750 -16.402  0.00  0.00     0.047 A 
ATOM      7  CM1 48M d   1      -2.185  17.330 -17.597  0.00  0.00     0.099 C 
ATOM      8  NM1 48M d   1      -2.651  17.777 -18.540  0.00  0.00    -0.191 NA
ATOM      9  H5  48M d   1      -2.197  14.209 -14.242  0.00  0.00     0.085 H 
ATOM     10  H9  48M d   1      -3.087  15.181 -16.322  0.00  0.00     0.085 H 
ATOM     11  H10 48M d   1      -0.005  18.151 -16.254  0.00  0.00     0.090 H 
ENDROOT
BRANCH   3  12
ATOM     12  O6  48M d   1       1.196  17.243 -14.085  0.00  0.00    -0.346 OA
BRANCH  12  13
ATOM     13  C9  48M d   1       2.228  17.945 -14.819  0.00  0.00     0.038 C 
ATOM     14  H27 48M d   1       1.791  18.787 -15.376  0.00  0.00     0.082 H 
BRANCH  13  15
ATOM     15  CM2 48M d   1       2.918  16.983 -15.807  0.00  0.00    -0.052 C 
ATOM     16  H12 48M d   1       3.700  17.524 -16.360  0.00  0.00     0.030 H 
ATOM     17  H13 48M d   1       2.174  16.589 -16.515  0.00  0.00     0.030 H 
ATOM     18  H14 48M d   1       3.372  16.150 -15.251  0.00  0.00     0.030 H 
ENDBRANCH  13  15
BRANCH  13  19
ATOM     19  CM3 48M d   1       3.230  18.466 -13.780  0.00  0.00    -0.052 C 
ATOM     20  H15 48M d   1       2.717  19.149 -13.087  0.00  0.00     0.030 H 
ATOM     21  H16 48M d   1       4.042  19.004 -14.291  0.00  0.00     0.030 H 
ATOM     22  H17 48M d   1       3.649  17.619 -13.217  0.00  0.00     0.030 H 
ENDBRANCH  13  19
ENDBRANCH  12  13
ENDBRANCH   3  12
BRANCH   1  23
ATOM     23  C6  48M d   1      -0.231  15.062 -12.690  0.00  0.00     0.143 C 
ATOM     24  N   48M d   1      -0.512  13.843 -12.430  0.00  0.00    -0.259 NA
ATOM     25  C7  48M d   1       0.215  13.401 -11.219  0.00  0.00     0.084 C 
ATOM     26  C8  48M d   1       1.215  14.576 -10.958  0.00  0.00     0.074 C 
ATOM     27  H25 48M d   1      -0.490  13.377 -10.375  0.00  0.00     0.087 H 
ATOM     28  N3  48M d   1       0.629  15.678 -11.741  0.00  0.00    -0.272 N 
ATOM     29  H26 48M d   1       1.186  14.837  -9.890  0.00  0.00     0.085 H 
ATOM     30  C5  48M d   1       0.764  16.948 -11.290  0.00  0.00     0.327 C 
ATOM     31  N2  48M d   1      -0.233  17.858 -11.485  0.00  0.00    -0.324 N 
ATOM     32  O5  48M d   1       1.759  17.275 -10.672  0.00  0.00    -0.247 OA
ATOM     33  C3  48M d   1      -1.663  17.538 -11.699  0.00  0.00     0.014 C 
ATOM     34  C4  48M d   1       0.059  19.324 -11.409  0.00  0.00     0.073 C 
ATOM     35  C2  48M d   1      -2.596  18.338 -10.771  0.00  0.00     0.010 C 
ATOM     36  H21 48M d   1      -1.923  17.768 -12.743  0.00  0.00     0.067 H 
ATOM     37  H22 48M d   1      -1.815  16.465 -11.511  0.00  0.00     0.067 H 
ATOM     38  N1  48M d   1      -2.284  19.770 -10.761  0.00  0.00    -0.358 N 
ATOM     39  H19 48M d   1      -3.633  18.205 -11.114  0.00  0.00     0.066 H 
ATOM     40  H20 48M d   1      -2.495  17.948  -9.748  0.00  0.00     0.066 H 
ATOM     41  C1  48M d   1      -1.082  20.280 -11.064  0.00  0.00     0.235 C 
ATOM     42  H18 48M d   1      -3.014  20.407 -10.512  0.00  0.00     0.162 HD
ATOM     43  O1  48M d   1      -0.953  21.489 -11.031  0.00  0.00    -0.272 OA
ATOM     44  H23 48M d   1       0.838  19.460 -10.645  0.00  0.00     0.079 H 
ATOM     45  H24 48M d   1       0.451  19.628 -12.391  0.00  0.00     0.079 H 
BRANCH  25  46
ATOM     46  CG2 48M d   1       0.763  11.973 -11.337  0.00  0.00    -0.029 A 
ATOM     47  CD3 48M d   1       0.267  10.977 -10.490  0.00  0.00    -0.075 A 
ATOM     48  CE3 48M d   1       0.736   9.666 -10.578  0.00  0.00    -0.081 A 
ATOM     49  H3  48M d   1      -0.491  11.226  -9.756  0.00  0.00     0.084 H 
ATOM     50  CZ2 48M d   1       1.732   9.341 -11.497  0.00  0.00    -0.062 A 
ATOM     51  H8  48M d   1       0.325   8.899  -9.931  0.00  0.00     0.083 H 
ATOM     52  CE4 48M d   1       2.236  10.327 -12.341  0.00  0.00     0.034 A 
ATOM     53  H11 48M d   1       2.112   8.327 -11.554  0.00  0.00     0.086 H 
ATOM     54  CD4 48M d   1       1.719  11.617 -12.294  0.00  0.00    -0.054 A 
ATOM     55 CL1  48M d   1       3.552   9.980 -13.409  0.00  0.00    -0.084 Cl
ATOM     56  H4  48M d   1       2.061  12.357 -13.009  0.00  0.00     0.087 H 
ENDBRANCH  25  46
BRANCH  26  57
ATOM     57  CG1 48M d   1       2.679  14.282 -11.299  0.00  0.00    -0.032 A 
ATOM     58  CD1 48M d   1       3.229  14.610 -12.545  0.00  0.00    -0.073 A 
ATOM     59  CE1 48M d   1       4.531  14.228 -12.866  0.00  0.00    -0.061 A 
ATOM     60  H1  48M d   1       2.638  15.165 -13.265  0.00  0.00     0.084 H 
ATOM     61  CZ1 48M d   1       5.297  13.533 -11.936  0.00  0.00     0.034 A 
ATOM     62  H6  48M d   1       4.945  14.472 -13.838  0.00  0.00     0.086 H 
ATOM     63  CE2 48M d   1       4.774  13.235 -10.685  0.00  0.00    -0.061 A 
ATOM     64 CL2  48M d   1       6.899  13.022 -12.324  0.00  0.00    -0.084 Cl
ATOM     65  CD2 48M d   1       3.474  13.615 -10.361  0.00  0.00    -0.073 A 
ATOM     66  H7  48M d   1       5.379  12.705  -9.958  0.00  0.00     0.086 H 
ATOM     67  H2  48M d   1       3.076  13.393  -9.377  0.00  0.00     0.084 H 
ENDBRANCH  26  57
ENDBRANCH   1  23
TORSDOF 7
