REMARK  9 active torsions:
REMARK  status: ('A' for Active; 'I' for Inactive)
REMARK    1  A    between atoms: C8_38  and  CG1_2 
REMARK    2  A    between atoms: C7_37  and  CG2_3 
REMARK    3  A    between atoms: CG3_4  and  C6_35 
REMARK    4  A    between atoms: O6_36  and  CD6_10 
REMARK    5  A    between atoms: CZ3_19  and  O3_31 
REMARK    6  A    between atoms: O3_31  and  CM1_21 
REMARK    7  A    between atoms: C9_39  and  CM2_22 
REMARK    8  A    between atoms: C9_39  and  CM3_23 
REMARK       I    between atoms: C5_33  and  N2_28 
REMARK       I    between atoms: N3_30  and  C5_33 
REMARK    9  A    between atoms: O6_36  and  C9_39 
ROOT
ATOM      1  N   48L d   1      -0.837  12.637 -10.904  0.00  0.00    -0.259 NA
ATOM      2  C1  48L d   1      -1.611  19.042 -12.313  0.00  0.00     0.235 C 
ATOM      3  N1  48L d   1      -2.846  18.618 -12.020  0.00  0.00    -0.358 N 
ATOM      4  O1  48L d   1      -1.483  20.091 -12.916  0.00  0.00    -0.272 OA
ATOM      5  C2  48L d   1      -3.110  17.375 -11.296  0.00  0.00     0.010 C 
ATOM      6  N2  48L d   1      -0.674  16.720 -11.591  0.00  0.00    -0.324 N 
ATOM      7  C3  48L d   1      -2.089  16.277 -11.653  0.00  0.00     0.014 C 
ATOM      8  N3  48L d   1       0.276  14.593 -11.172  0.00  0.00    -0.272 N 
ATOM      9  C4  48L d   1      -0.436  18.168 -11.884  0.00  0.00     0.073 C 
ATOM     10  C5  48L d   1       0.389  15.941 -11.230  0.00  0.00     0.327 C 
ATOM     11  O5  48L d   1       1.429  16.477 -10.888  0.00  0.00    -0.247 OA
ATOM     12  C6  48L d   1      -0.660  13.646 -11.672  0.00  0.00     0.143 C 
ATOM     13  C7  48L d   1       0.085  12.724  -9.739  0.00  0.00     0.087 C 
ATOM     14  C8  48L d   1       1.043  13.876 -10.147  0.00  0.00     0.074 C 
ATOM     15  H20 48L d   1      -3.624  19.176 -12.309  0.00  0.00     0.162 HD
ATOM     16  H21 48L d   1      -4.119  17.020 -11.553  0.00  0.00     0.066 H 
ATOM     17  H22 48L d   1      -3.056  17.574 -10.216  0.00  0.00     0.066 H 
ATOM     18  H23 48L d   1      -2.298  15.931 -12.676  0.00  0.00     0.067 H 
ATOM     19  H24 48L d   1      -2.220  15.442 -10.949  0.00  0.00     0.067 H 
ATOM     20  H25 48L d   1      -0.018  18.616 -10.971  0.00  0.00     0.079 H 
ATOM     21  H26 48L d   1       0.311  18.215 -12.690  0.00  0.00     0.079 H 
ATOM     22  H27 48L d   1      -0.490  13.042  -8.857  0.00  0.00     0.087 H 
ATOM     23  H28 48L d   1       1.202  14.534  -9.280  0.00  0.00     0.085 H 
ENDROOT
BRANCH  12  24
ATOM     24  CG3 48L d   1      -1.169  13.615 -13.082  0.00  0.00     0.043 A 
ATOM     25  CD5 48L d   1      -2.251  12.765 -13.363  0.00  0.00    -0.064 A 
ATOM     26  CE5 48L d   1      -2.799  12.686 -14.642  0.00  0.00    -0.050 A 
ATOM     27  H4  48L d   1      -2.669  12.158 -12.568  0.00  0.00     0.085 H 
ATOM     28  CZ3 48L d   1      -2.272  13.457 -15.671  0.00  0.00     0.070 A 
ATOM     29  H8  48L d   1      -3.635  12.024 -14.834  0.00  0.00     0.087 H 
ATOM     30  CE6 48L d   1      -1.184  14.273 -15.417  0.00  0.00    -0.018 A 
ATOM     31  CD6 48L d   1      -0.617  14.357 -14.143  0.00  0.00     0.086 A 
ATOM     32  H9  48L d   1      -0.762  14.860 -16.225  0.00  0.00     0.092 H 
BRANCH  28  33
ATOM     33  O3  48L d   1      -2.761  13.430 -16.961  0.00  0.00    -0.356 OA
BRANCH  33  34
ATOM     34  CM1 48L d   1      -4.055  12.879 -17.302  0.00  0.00     0.010 C 
ATOM     35  H11 48L d   1      -4.219  12.972 -18.386  0.00  0.00     0.066 H 
ATOM     36  H12 48L d   1      -4.841  13.429 -16.764  0.00  0.00     0.066 H 
ATOM     37  H13 48L d   1      -4.089  11.818 -17.015  0.00  0.00     0.066 H 
ENDBRANCH  33  34
ENDBRANCH  28  33
BRANCH  31  38
ATOM     38  O6  48L d   1       0.553  15.073 -13.959  0.00  0.00    -0.346 OA
BRANCH  38  39
ATOM     39  C9  48L d   1       1.413  15.550 -15.025  0.00  0.00     0.038 C 
ATOM     40  H29 48L d   1       1.391  14.842 -15.867  0.00  0.00     0.082 H 
BRANCH  39  41
ATOM     41  CM2 48L d   1       2.842  15.637 -14.462  0.00  0.00    -0.052 C 
ATOM     42  H14 48L d   1       3.524  15.997 -15.247  0.00  0.00     0.030 H 
ATOM     43  H15 48L d   1       3.164  14.641 -14.125  0.00  0.00     0.030 H 
ATOM     44  H16 48L d   1       2.860  16.335 -13.612  0.00  0.00     0.030 H 
ENDBRANCH  39  41
BRANCH  39  45
ATOM     45  CM3 48L d   1       0.923  16.930 -15.512  0.00  0.00    -0.052 C 
ATOM     46  H17 48L d   1      -0.099  16.837 -15.908  0.00  0.00     0.030 H 
ATOM     47  H18 48L d   1       1.591  17.298 -16.304  0.00  0.00     0.030 H 
ATOM     48  H19 48L d   1       0.927  17.639 -14.671  0.00  0.00     0.030 H 
ENDBRANCH  39  45
ENDBRANCH  38  39
ENDBRANCH  31  38
ENDBRANCH  12  24
BRANCH  13  49
ATOM     49  CG2 48L d   1       0.765  11.409  -9.355  0.00  0.00     0.009 A 
ATOM     50  CD3 48L d   1       1.052  10.437 -10.320  0.00  0.00    -0.055 A 
ATOM     51  CE4 48L d   1       1.668   9.243  -9.952  0.00  0.00     0.011 A 
ATOM     52  H3  48L d   1       0.794  10.614 -11.358  0.00  0.00     0.086 H 
ATOM     53  CZ2 48L d   1       1.979   8.986  -8.619  0.00  0.00    -0.063 A 
ATOM     54 BR   48L d   1       2.098   7.962 -11.284  0.00  0.00    -0.051 Br
ATOM     55  CE3 48L d   1       1.702   9.951  -7.653  0.00  0.00    -0.044 A 
ATOM     56  H10 48L d   1       2.433   8.043  -8.335  0.00  0.00     0.085 H 
ATOM     57  CD4 48L d   1       1.111  11.158  -8.022  0.00  0.00     0.124 A 
ATOM     58  H7  48L d   1       1.946   9.763  -6.614  0.00  0.00     0.088 H 
ATOM     59  F   48L d   1       0.875  12.079  -7.069  0.00  0.00    -0.205 F 
ENDBRANCH  13  49
BRANCH  14  60
ATOM     60  CG1 48L d   1       2.427  13.437 -10.639  0.00  0.00    -0.032 A 
ATOM     61  CD1 48L d   1       2.619  12.869 -11.905  0.00  0.00    -0.073 A 
ATOM     62  CE1 48L d   1       3.896  12.490 -12.322  0.00  0.00    -0.061 A 
ATOM     63  H1  48L d   1       1.771  12.723 -12.565  0.00  0.00     0.084 H 
ATOM     64  CZ1 48L d   1       4.987  12.687 -11.482  0.00  0.00     0.034 A 
ATOM     65  H5  48L d   1       4.037  12.043 -13.299  0.00  0.00     0.086 H 
ATOM     66  CE2 48L d   1       4.804  13.253 -10.227  0.00  0.00    -0.061 A 
ATOM     67 CL   48L d   1       6.575  12.241 -11.992  0.00  0.00    -0.084 Cl
ATOM     68  CD2 48L d   1       3.532  13.630  -9.807  0.00  0.00    -0.073 A 
ATOM     69  H6  48L d   1       5.655  13.402  -9.572  0.00  0.00     0.086 H 
ATOM     70  H2  48L d   1       3.398  14.076  -8.828  0.00  0.00     0.084 H 
ENDBRANCH  14  60
TORSDOF 9
