REMARK  9 active torsions:
REMARK  status: ('A' for Active; 'I' for Inactive)
REMARK    1  A    between atoms: C8_39  and  CG1_2 
REMARK    2  A    between atoms: C7_38  and  CG2_3 
REMARK    3  A    between atoms: CG3_4  and  C6_36 
REMARK    4  A    between atoms: O6_37  and  CD6_10 
REMARK    5  A    between atoms: CZ3_19  and  O3_32 
REMARK    6  A    between atoms: O3_32  and  CM1_22 
REMARK    7  A    between atoms: C9_40  and  CM2_23 
REMARK    8  A    between atoms: C9_40  and  CM3_24 
REMARK       I    between atoms: C5_34  and  N2_29 
REMARK       I    between atoms: N3_31  and  C5_34 
REMARK    9  A    between atoms: O6_37  and  C9_40 
ROOT
ATOM      1  N   49H d   1      -1.325  13.954 -12.499  0.00  0.00    -0.259 NA
ATOM      2  C1  49H d   1      -3.191  18.783 -11.884  0.00  0.00     0.235 C 
ATOM      3  N1  49H d   1      -2.744  20.045 -11.879  0.00  0.00    -0.358 N 
ATOM      4  O1  49H d   1      -4.383  18.587 -11.734  0.00  0.00    -0.272 OA
ATOM      5  C2  49H d   1      -1.330  20.382 -12.040  0.00  0.00     0.010 C 
ATOM      6  N2  49H d   1      -0.732  17.937 -11.715  0.00  0.00    -0.324 N 
ATOM      7  C3  49H d   1      -0.423  19.342 -11.356  0.00  0.00     0.014 C 
ATOM      8  N3  49H d   1      -0.028  15.694 -11.858  0.00  0.00    -0.272 N 
ATOM      9  C4  49H d   1      -2.167  17.663 -12.058  0.00  0.00     0.073 C 
ATOM     10  C5  49H d   1       0.185  16.963 -11.438  0.00  0.00     0.327 C 
ATOM     11  O5  49H d   1       1.163  17.222 -10.757  0.00  0.00    -0.247 OA
ATOM     12  C6  49H d   1      -0.861  15.094 -12.844  0.00  0.00     0.143 C 
ATOM     13  C7  49H d   1      -0.766  13.558 -11.185  0.00  0.00     0.084 C 
ATOM     14  C8  49H d   1       0.387  14.587 -10.980  0.00  0.00     0.074 C 
ATOM     15  H21 49H d   1      -3.404  20.787 -11.760  0.00  0.00     0.162 HD
ATOM     16  H22 49H d   1      -1.144  21.369 -11.592  0.00  0.00     0.066 H 
ATOM     17  H23 49H d   1      -1.090  20.416 -13.113  0.00  0.00     0.066 H 
ATOM     18  H24 49H d   1      -0.532  19.452 -10.267  0.00  0.00     0.067 H 
ATOM     19  H25 49H d   1       0.618  19.550 -11.643  0.00  0.00     0.067 H 
ATOM     20  H26 49H d   1      -2.195  17.361 -13.115  0.00  0.00     0.079 H 
ATOM     21  H27 49H d   1      -2.496  16.823 -11.428  0.00  0.00     0.079 H 
ATOM     22  H28 49H d   1      -1.523  13.736 -10.407  0.00  0.00     0.087 H 
ATOM     23  H29 49H d   1       0.388  14.926  -9.934  0.00  0.00     0.085 H 
ENDROOT
BRANCH  12  24
ATOM     24  CG3 49H d   1      -1.001  15.563 -14.263  0.00  0.00     0.043 A 
ATOM     25  CD5 49H d   1      -1.996  14.956 -15.046  0.00  0.00    -0.064 A 
ATOM     26  CE5 49H d   1      -2.254  15.375 -16.347  0.00  0.00    -0.050 A 
ATOM     27  H5  49H d   1      -2.576  14.142 -14.627  0.00  0.00     0.085 H 
ATOM     28  CZ3 49H d   1      -1.509  16.406 -16.905  0.00  0.00     0.070 A 
ATOM     29  H9  49H d   1      -3.036  14.897 -16.925  0.00  0.00     0.087 H 
ATOM     30  CE6 49H d   1      -0.482  16.976 -16.170  0.00  0.00    -0.018 A 
ATOM     31  CD6 49H d   1      -0.208  16.559 -14.864  0.00  0.00     0.086 A 
ATOM     32  H10 49H d   1       0.120  17.760 -16.616  0.00  0.00     0.092 H 
BRANCH  28  33
ATOM     33  O3  49H d   1      -1.741  16.887 -18.177  0.00  0.00    -0.356 OA
BRANCH  33  34
ATOM     34  CM1 49H d   1      -2.970  16.637 -18.899  0.00  0.00     0.010 C 
ATOM     35  H12 49H d   1      -2.920  17.120 -19.886  0.00  0.00     0.066 H 
ATOM     36  H13 49H d   1      -3.818  17.048 -18.332  0.00  0.00     0.066 H 
ATOM     37  H14 49H d   1      -3.106  15.553 -19.028  0.00  0.00     0.066 H 
ENDBRANCH  33  34
ENDBRANCH  28  33
BRANCH  31  38
ATOM     38  O6  49H d   1       0.871  17.101 -14.189  0.00  0.00    -0.346 OA
BRANCH  38  39
ATOM     39  C9  49H d   1       2.014  17.743 -14.810  0.00  0.00     0.038 C 
ATOM     40  H30 49H d   1       1.671  18.526 -15.502  0.00  0.00     0.082 H 
BRANCH  39  41
ATOM     41  CM2 49H d   1       2.842  16.703 -15.592  0.00  0.00    -0.052 C 
ATOM     42  H15 49H d   1       3.706  17.198 -16.059  0.00  0.00     0.030 H 
ATOM     43  H16 49H d   1       2.215  16.247 -16.372  0.00  0.00     0.030 H 
ATOM     44  H17 49H d   1       3.196  15.922 -14.902  0.00  0.00     0.030 H 
ENDBRANCH  39  41
BRANCH  39  45
ATOM     45  CM3 49H d   1       2.851  18.375 -13.688  0.00  0.00    -0.052 C 
ATOM     46  H18 49H d   1       2.240  19.112 -13.146  0.00  0.00     0.030 H 
ATOM     47  H19 49H d   1       3.729  18.875 -14.123  0.00  0.00     0.030 H 
ATOM     48  H20 49H d   1       3.183  17.591 -12.992  0.00  0.00     0.030 H 
ENDBRANCH  39  45
ENDBRANCH  38  39
ENDBRANCH  31  38
ENDBRANCH  12  24
BRANCH  13  49
ATOM     49  CG2 49H d   1      -0.414  12.073 -11.100  0.00  0.00    -0.029 A 
ATOM     50  CD3 49H d   1       0.366  11.452 -12.081  0.00  0.00    -0.054 A 
ATOM     51  CE3 49H d   1       0.670  10.096 -11.988  0.00  0.00     0.034 A 
ATOM     52  H3  49H d   1       0.737  12.030 -12.920  0.00  0.00     0.087 H 
ATOM     53  CZ2 49H d   1       0.156   9.334 -10.943  0.00  0.00    -0.062 A 
ATOM     54 CL2  49H d   1       1.703   9.357 -13.160  0.00  0.00    -0.084 Cl
ATOM     55  CE4 49H d   1      -0.638   9.938  -9.970  0.00  0.00    -0.081 A 
ATOM     56  H11 49H d   1       0.373   8.273 -10.886  0.00  0.00     0.086 H 
ATOM     57  CD4 49H d   1      -0.910  11.304 -10.043  0.00  0.00    -0.075 A 
ATOM     58  H8  49H d   1      -1.044   9.347  -9.157  0.00  0.00     0.083 H 
ATOM     59  H4  49H d   1      -1.512  11.774  -9.273  0.00  0.00     0.084 H 
ENDBRANCH  13  49
BRANCH  14  60
ATOM     60  CG1 49H d   1       1.795  14.063 -11.285  0.00  0.00    -0.032 A 
ATOM     61  CD1 49H d   1       2.430  14.317 -12.507  0.00  0.00    -0.073 A 
ATOM     62  CE1 49H d   1       3.691  13.790 -12.772  0.00  0.00    -0.061 A 
ATOM     63  H1  49H d   1       1.936  14.929 -13.253  0.00  0.00     0.084 H 
ATOM     64  CZ1 49H d   1       4.324  12.997 -11.822  0.00  0.00     0.034 A 
ATOM     65  H6  49H d   1       4.178  13.998 -13.718  0.00  0.00     0.086 H 
ATOM     66  CE2 49H d   1       3.708  12.741 -10.601  0.00  0.00    -0.061 A 
ATOM     67 CL1  49H d   1       5.869  12.319 -12.182  0.00  0.00    -0.084 Cl
ATOM     68  CD2 49H d   1       2.455  13.287 -10.328  0.00  0.00    -0.073 A 
ATOM     69  H7  49H d   1       4.202  12.118  -9.864  0.00  0.00     0.086 H 
ATOM     70  H2  49H d   1       1.989  13.108  -9.366  0.00  0.00     0.084 H 
ENDBRANCH  14  60
TORSDOF 9
