REMARK WARNING: 32 MAX_TORS EXCEEDED!!!
REMARK  73 active torsions:
REMARK  status: ('A' for Active; 'I' for Inactive)
REMARK    1  A    between atoms: N_1  and  CA_2 
REMARK    2  A    between atoms: CA_2  and  C_3 
REMARK    3  A    between atoms: CA_2  and  CB_5 
REMARK       I    between atoms: C_3  and  N_10 
REMARK    4  A    between atoms: CB_5  and  CG_6 
REMARK    5  A    between atoms: CG_6  and  CD_7 
REMARK    6  A    between atoms: CD_7  and  CE_8 
REMARK    7  A    between atoms: CE_8  and  NZ_9 
REMARK    8  A    between atoms: N_10  and  CA_11 
REMARK    9  A    between atoms: CA_11  and  C_12 
REMARK       I    between atoms: C_12  and  N_14 
REMARK   10  A    between atoms: N_14  and  CA_15 
REMARK   11  A    between atoms: CA_15  and  C_16 
REMARK   12  A    between atoms: CA_15  and  CB_18 
REMARK       I    between atoms: C_16  and  N_22 
REMARK   13  A    between atoms: CB_18  and  CG_19 
REMARK       I    between atoms: CG_19  and  ND2_21 
REMARK   14  A    between atoms: N_22  and  CA_23 
REMARK   15  A    between atoms: CA_23  and  C_24 
REMARK   16  A    between atoms: CA_23  and  CB_26 
REMARK       I    between atoms: C_24  and  N_30 
REMARK   17  A    between atoms: CB_26  and  CG_27 
REMARK   18  A    between atoms: CG_27  and  SD_28 
REMARK   19  A    between atoms: SD_28  and  CE_29 
REMARK   20  A    between atoms: N_30  and  CA_31 
REMARK   21  A    between atoms: CA_31  and  C_32 
REMARK   22  A    between atoms: CA_31  and  CB_34 
REMARK       I    between atoms: C_32  and  N_38 
REMARK   23  A    between atoms: CB_34  and  CG_35 
REMARK   24  A    between atoms: CG_35  and  SD_36 
REMARK   25  A    between atoms: SD_36  and  CE_37 
REMARK   26  A    between atoms: N_38  and  CA_39 
REMARK   27  A    between atoms: CA_39  and  C_40 
REMARK   28  A    between atoms: CA_39  and  CB_42 
REMARK       I    between atoms: C_40  and  N_44 
REMARK   29  A    between atoms: CB_42  and  OG_43 
REMARK   30  A    between atoms: N_44  and  CA_45 
REMARK   31  A    between atoms: CA_45  and  C_46 
REMARK   32  A    between atoms: CA_45  and  CB_48 
REMARK       I    between atoms: C_46  and  N_52 
REMARK   33  A    between atoms: CB_48  and  CG_49 
REMARK       I    between atoms: CG_49  and  ND2_51 
REMARK   34  A    between atoms: N_52  and  CA_53 
REMARK   35  A    between atoms: CA_53  and  C_54 
REMARK   36  A    between atoms: CA_53  and  CB_56 
REMARK       I    between atoms: C_54  and  N_63 
REMARK   37  A    between atoms: CB_56  and  CG_57 
REMARK   38  A    between atoms: N_63  and  CA_64 
REMARK   39  A    between atoms: CA_64  and  C_65 
REMARK   40  A    between atoms: CA_64  and  CB_67 
REMARK       I    between atoms: C_65  and  N_74 
REMARK   41  A    between atoms: CB_67  and  CG_68 
REMARK   42  A    between atoms: N_74  and  CA_75 
REMARK   43  A    between atoms: CA_75  and  C_76 
REMARK       I    between atoms: C_76  and  N_78 
REMARK   44  A    between atoms: N_78  and  CA_79 
REMARK   45  A    between atoms: CA_79  and  C_80 
REMARK   46  A    between atoms: CA_79  and  CB_82 
REMARK       I    between atoms: C_80  and  N_87 
REMARK   47  A    between atoms: CB_82  and  CG_83 
REMARK   48  A    between atoms: CG_83  and  CD_84 
REMARK   49  A    between atoms: CD_84  and  CE_85 
REMARK   50  A    between atoms: CE_85  and  NZ_86 
REMARK   51  A    between atoms: N_87  and  CA_88 
REMARK   52  A    between atoms: CA_88  and  C_89 
REMARK   53  A    between atoms: CA_88  and  CB_91 
REMARK       I    between atoms: C_89  and  N_92 
REMARK   54  A    between atoms: N_92  and  CA_93 
REMARK   55  A    between atoms: CA_93  and  C_94 
REMARK   56  A    between atoms: CA_93  and  CB_96 
REMARK       I    between atoms: C_94  and  N_97 
REMARK   57  A    between atoms: N_97  and  CA_98 
REMARK   58  A    between atoms: CA_98  and  C_99 
REMARK   59  A    between atoms: CA_98  and  CB_101 
REMARK       I    between atoms: C_99  and  N_105 
REMARK   60  A    between atoms: CB_101  and  CG_102 
REMARK   61  A    between atoms: CG_102  and  SD_103 
REMARK   62  A    between atoms: SD_103  and  CE_104 
REMARK   63  A    between atoms: N_105  and  CA_106 
REMARK   64  A    between atoms: CA_106  and  C_107 
REMARK   65  A    between atoms: CA_106  and  CB_109 
REMARK       I    between atoms: C_107  and  N_113 
REMARK   66  A    between atoms: CB_109  and  CG_110 
REMARK       I    between atoms: CG_110  and  ND2_112 
REMARK   67  A    between atoms: N_113  and  CA_114 
REMARK   68  A    between atoms: CA_114  and  C_115 
REMARK   69  A    between atoms: CA_114  and  CB_117 
REMARK   70  A    between atoms: CB_117  and  CG_118 
REMARK   71  A    between atoms: CG_118  and  CD_119 
REMARK   72  A    between atoms: CD_119  and  CE_120 
REMARK   73  A    between atoms: CE_120  and  NZ_121 
ROOT
ATOM      1  C   PHE d   1       4.740 -15.551  -7.139  0.00  0.00     0.241 C 
ATOM      2  O   PHE d   1       5.867 -15.554  -6.637  0.00  0.00    -0.271 OA
ATOM      3  N   PHE d   1       3.855 -14.547  -6.962  0.00  0.00    -0.346 N 
ATOM      4  H63 PHE d   1       2.994 -14.585  -7.469  0.00  0.00     0.163 HD
ENDROOT
BRANCH   1   5
ATOM      5  CA  PHE d   1       4.262 -16.722  -8.025  0.00  0.00     0.093 C 
ATOM      6  H55 PHE d   1       4.842 -17.618  -7.760  0.00  0.00     0.088 H 
BRANCH   5   7
ATOM      7  N   PHE d   1       2.851 -16.971  -7.777  0.00  0.00    -0.346 N 
ATOM      8  C   ASN d   1       2.394 -17.982  -7.044  0.00  0.00     0.241 C 
ATOM      9  O   ASN d   1       3.110 -18.775  -6.431  0.00  0.00    -0.271 OA
ATOM     10  H54 PHE d   1       2.185 -16.345  -8.182  0.00  0.00     0.163 HD
BRANCH   8  11
ATOM     11  CA  ASN d   1       0.874 -18.098  -7.015  0.00  0.00     0.097 C 
ATOM     12  H49 ASN d   1       0.505 -17.618  -7.934  0.00  0.00     0.088 H 
BRANCH  11  13
ATOM     13  N   ASN d   1       0.375 -19.501  -7.050  0.00  0.00    -0.345 N 
ATOM     14  C   SER d   1       0.884 -20.491  -7.828  0.00  0.00     0.243 C 
ATOM     15  O   SER d   1       1.717 -20.306  -8.731  0.00  0.00    -0.271 OA
ATOM     16  H48 ASN d   1      -0.395 -19.732  -6.455  0.00  0.00     0.163 HD
BRANCH  14  17
ATOM     17  CA  SER d   1       0.292 -21.902  -7.588  0.00  0.00     0.109 C 
ATOM     18  H44 SER d   1       0.056 -21.972  -6.516  0.00  0.00     0.090 H 
BRANCH  17  19
ATOM     19  N   SER d   1      -0.963 -22.129  -8.330  0.00  0.00    -0.344 N 
ATOM     20  C   MET d   1      -1.092 -22.089  -9.672  0.00  0.00     0.241 C 
ATOM     21  O   MET d   1      -0.245 -21.622 -10.441  0.00  0.00    -0.271 OA
ATOM     22  H43 SER d   1      -1.784 -22.328  -7.795  0.00  0.00     0.163 HD
BRANCH  20  23
ATOM     23  CA  MET d   1      -2.455 -22.587 -10.190  0.00  0.00     0.090 C 
ATOM     24  H35 MET d   1      -2.667 -23.559  -9.721  0.00  0.00     0.087 H 
BRANCH  23  25
ATOM     25  N   MET d   1      -3.502 -21.638  -9.781  0.00  0.00    -0.346 N 
ATOM     26  C   MET d   1      -4.604 -21.980  -9.079  0.00  0.00     0.241 C 
ATOM     27  O   MET d   1      -4.889 -23.150  -8.800  0.00  0.00    -0.271 OA
ATOM     28  H34 MET d   1      -3.391 -20.678 -10.039  0.00  0.00     0.163 HD
BRANCH  26  29
ATOM     29  CA  MET d   1      -5.510 -20.816  -8.611  0.00  0.00     0.090 C 
ATOM     30  H26 MET d   1      -6.492 -21.246  -8.363  0.00  0.00     0.087 H 
BRANCH  29  31
ATOM     31  N   MET d   1      -4.986 -20.183  -7.375  0.00  0.00    -0.346 N 
ATOM     32  C   ASN d   1      -3.744 -19.658  -7.225  0.00  0.00     0.241 C 
ATOM     33  O   ASN d   1      -2.917 -19.561  -8.143  0.00  0.00    -0.271 OA
ATOM     34  H25 MET d   1      -5.600 -20.140  -6.587  0.00  0.00     0.163 HD
BRANCH  32  35
ATOM     35  CA  ASN d   1      -3.373 -19.140  -5.815  0.00  0.00     0.097 C 
ATOM     36  H20 ASN d   1      -2.745 -18.249  -5.964  0.00  0.00     0.088 H 
BRANCH  35  37
ATOM     37  N   ASN d   1      -4.549 -18.691  -5.016  0.00  0.00    -0.346 N 
ATOM     38  C   GLY d   1      -5.409 -19.507  -4.375  0.00  0.00     0.236 C 
ATOM     39  O   GLY d   1      -5.424 -20.734  -4.521  0.00  0.00    -0.272 OA
ATOM     40  H19 ASN d   1      -4.713 -17.707  -4.951  0.00  0.00     0.163 HD
BRANCH  38  41
ATOM     41  CA  GLY d   1      -6.447 -18.830  -3.481  0.00  0.00     0.069 C 
ATOM     42  H17 GLY d   1      -5.929 -18.142  -2.797  0.00  0.00     0.078 H 
ATOM     43  H18 GLY d   1      -7.143 -18.262  -4.115  0.00  0.00     0.078 H 
BRANCH  41  44
ATOM     44  N   GLY d   1      -7.212 -19.795  -2.689  0.00  0.00    -0.351 N 
ATOM     45  C   LYS d   1      -6.690 -20.439  -1.627  0.00  0.00     0.248 C 
ATOM     46  O   LYS d   1      -5.527 -20.265  -1.223  0.00  0.00    -0.271 OA
ATOM     47  H16 GLY d   1      -8.160 -19.984  -2.947  0.00  0.00     0.163 HD
BRANCH  45  48
ATOM     48  CA  LYS d   1      -7.609 -21.479  -0.960  0.00  0.00     0.176 C 
ATOM     49  H4  LYS d   1      -8.653 -21.173  -1.121  0.00  0.00     0.099 H 
BRANCH  48  50
ATOM     50  N   LYS d   1      -7.402 -22.782  -1.587  0.00  0.00    -0.067 N 
ATOM     51  H1  LYS d   1      -8.003 -23.464  -1.151  0.00  0.00     0.275 HD
ATOM     52  H2  LYS d   1      -6.440 -23.061  -1.473  0.00  0.00     0.275 HD
ATOM     53  H3  LYS d   1      -7.620 -22.721  -2.569  0.00  0.00     0.275 HD
ENDBRANCH  48  50
BRANCH  48  54
ATOM     54  CB  LYS d   1      -7.359 -21.567   0.574  0.00  0.00    -0.030 C 
ATOM     55  H5  LYS d   1      -7.578 -20.584   1.016  0.00  0.00     0.036 H 
ATOM     56  H6  LYS d   1      -6.300 -21.815   0.737  0.00  0.00     0.036 H 
BRANCH  54  57
ATOM     57  CG  LYS d   1      -8.221 -22.625   1.295  0.00  0.00    -0.061 C 
ATOM     58  H7  LYS d   1      -8.092 -23.590   0.784  0.00  0.00     0.033 H 
ATOM     59  H8  LYS d   1      -9.275 -22.317   1.238  0.00  0.00     0.033 H 
BRANCH  57  60
ATOM     60  CD  LYS d   1      -7.839 -22.800   2.781  0.00  0.00    -0.043 C 
ATOM     61  H9  LYS d   1      -8.070 -21.868   3.317  0.00  0.00     0.035 H 
ATOM     62  H10 LYS d   1      -6.760 -23.003   2.847  0.00  0.00     0.035 H 
BRANCH  60  63
ATOM     63  CE  LYS d   1      -8.600 -23.955   3.448  0.00  0.00     0.080 C 
ATOM     64  H11 LYS d   1      -9.676 -23.729   3.427  0.00  0.00     0.075 H 
ATOM     65  H12 LYS d   1      -8.264 -24.044   4.492  0.00  0.00     0.075 H 
BRANCH  63  66
ATOM     66  NZ  LYS d   1      -8.370 -25.258   2.757  0.00  0.00    -0.079 N 
ATOM     67  H13 LYS d   1      -8.887 -25.984   3.228  0.00  0.00     0.274 HD
ATOM     68  H14 LYS d   1      -7.387 -25.480   2.776  0.00  0.00     0.274 HD
ATOM     69  H15 LYS d   1      -8.681 -25.191   1.800  0.00  0.00     0.274 HD
ENDBRANCH  63  66
ENDBRANCH  60  63
ENDBRANCH  57  60
ENDBRANCH  54  57
ENDBRANCH  48  54
ENDBRANCH  45  48
ENDBRANCH  41  44
ENDBRANCH  38  41
ENDBRANCH  35  37
BRANCH  35  70
ATOM     70  CB  ASN d   1      -2.491 -20.191  -5.049  0.00  0.00     0.036 C 
ATOM     71  H21 ASN d   1      -1.766 -20.611  -5.761  0.00  0.00     0.051 H 
ATOM     72  H22 ASN d   1      -3.152 -20.991  -4.684  0.00  0.00     0.051 H 
BRANCH  70  73
ATOM     73  CG  ASN d   1      -1.709 -19.630  -3.844  0.00  0.00     0.217 C 
ATOM     74  OD1 ASN d   1      -0.652 -20.153  -3.494  0.00  0.00    -0.274 OA
ATOM     75  ND2 ASN d   1      -2.178 -18.548  -3.230  0.00  0.00    -0.370 N 
ATOM     76  H23 ASN d   1      -1.688 -18.166  -2.446  0.00  0.00     0.159 HD
ATOM     77  H24 ASN d   1      -3.021 -18.116  -3.552  0.00  0.00     0.159 HD
ENDBRANCH  70  73
ENDBRANCH  35  70
ENDBRANCH  32  35
ENDBRANCH  29  31
BRANCH  29  78
ATOM     78  CB  MET d   1      -5.739 -19.782  -9.752  0.00  0.00    -0.030 C 
ATOM     79  H27 MET d   1      -6.163 -20.318 -10.614  0.00  0.00     0.037 H 
ATOM     80  H28 MET d   1      -4.761 -19.361 -10.027  0.00  0.00     0.037 H 
BRANCH  78  81
ATOM     81  CG  MET d   1      -6.680 -18.611  -9.414  0.00  0.00    -0.021 C 
ATOM     82  H29 MET d   1      -7.593 -19.018  -8.956  0.00  0.00     0.049 H 
ATOM     83  H30 MET d   1      -6.939 -18.090 -10.348  0.00  0.00     0.049 H 
BRANCH  81  84
ATOM     84  SD  MET d   1      -5.950 -17.412  -8.271  0.00  0.00    -0.173 SA
BRANCH  84  85
ATOM     85  CE  MET d   1      -7.195 -16.117  -8.252  0.00  0.00    -0.035 C 
ATOM     86  H31 MET d   1      -6.872 -15.307  -7.581  0.00  0.00     0.041 H 
ATOM     87  H32 MET d   1      -8.149 -16.531  -7.894  0.00  0.00     0.041 H 
ATOM     88  H33 MET d   1      -7.327 -15.720  -9.269  0.00  0.00     0.041 H 
ENDBRANCH  84  85
ENDBRANCH  81  84
ENDBRANCH  78  81
ENDBRANCH  29  78
ENDBRANCH  26  29
ENDBRANCH  23  25
BRANCH  23  89
ATOM     89  CB  MET d   1      -2.446 -22.795 -11.735  0.00  0.00    -0.030 C 
ATOM     90  H36 MET d   1      -1.535 -23.350 -12.002  0.00  0.00     0.037 H 
ATOM     91  H37 MET d   1      -2.426 -21.805 -12.215  0.00  0.00     0.037 H 
BRANCH  89  92
ATOM     92  CG  MET d   1      -3.657 -23.569 -12.280  0.00  0.00    -0.021 C 
ATOM     93  H38 MET d   1      -4.562 -22.967 -12.110  0.00  0.00     0.049 H 
ATOM     94  H39 MET d   1      -3.740 -24.519 -11.731  0.00  0.00     0.049 H 
BRANCH  92  95
ATOM     95  SD  MET d   1      -3.535 -23.936 -14.050  0.00  0.00    -0.173 SA
BRANCH  95  96
ATOM     96  CE  MET d   1      -2.029 -24.918 -14.122  0.00  0.00    -0.035 C 
ATOM     97  H40 MET d   1      -1.833 -25.214 -15.163  0.00  0.00     0.041 H 
ATOM     98  H41 MET d   1      -2.148 -25.818 -13.502  0.00  0.00     0.041 H 
ATOM     99  H42 MET d   1      -1.185 -24.322 -13.745  0.00  0.00     0.041 H 
ENDBRANCH  95  96
ENDBRANCH  92  95
ENDBRANCH  89  92
ENDBRANCH  23  89
ENDBRANCH  20  23
ENDBRANCH  17  19
BRANCH  17 100
ATOM    100  CB  SER d   1       1.312 -23.029  -7.916  0.00  0.00     0.044 C 
ATOM    101  H45 SER d   1       1.696 -22.876  -8.936  0.00  0.00     0.077 H 
ATOM    102  H46 SER d   1       0.799 -24.000  -7.859  0.00  0.00     0.077 H 
BRANCH 100 103
ATOM    103  OG  SER d   1       2.403 -23.033  -7.012  0.00  0.00    -0.398 OA
ATOM    104  H47 SER d   1       3.002 -23.733  -7.244  0.00  0.00     0.209 HD
ENDBRANCH 100 103
ENDBRANCH  17 100
ENDBRANCH  14  17
ENDBRANCH  11  13
BRANCH  11 105
ATOM    105  CB  ASN d   1       0.288 -17.287  -5.812  0.00  0.00     0.036 C 
ATOM    106  H50 ASN d   1       1.084 -16.651  -5.396  0.00  0.00     0.051 H 
ATOM    107  H51 ASN d   1      -0.054 -17.996  -5.044  0.00  0.00     0.051 H 
BRANCH 105 108
ATOM    108  CG  ASN d   1      -0.891 -16.395  -6.214  0.00  0.00     0.217 C 
ATOM    109  OD1 ASN d   1      -1.589 -16.665  -7.190  0.00  0.00    -0.274 OA
ATOM    110  ND2 ASN d   1      -1.147 -15.351  -5.447  0.00  0.00    -0.370 N 
ATOM    111  H52 ASN d   1      -1.907 -14.741  -5.671  0.00  0.00     0.159 HD
ATOM    112  H53 ASN d   1      -0.581 -15.171  -4.643  0.00  0.00     0.159 HD
ENDBRANCH 105 108
ENDBRANCH  11 105
ENDBRANCH   8  11
ENDBRANCH   5   7
BRANCH   5 113
ATOM    113  CB  PHE d   1       4.447 -16.440  -9.544  0.00  0.00    -0.014 C 
ATOM    114  H56 PHE d   1       4.167 -15.394  -9.735  0.00  0.00     0.043 H 
ATOM    115  H57 PHE d   1       3.773 -17.108 -10.101  0.00  0.00     0.043 H 
BRANCH 113 116
ATOM    116  CG  PHE d   1       5.865 -16.655 -10.062  0.00  0.00    -0.056 A 
ATOM    117  CD1 PHE d   1       6.556 -17.841  -9.796  0.00  0.00    -0.077 A 
ATOM    118  CE1 PHE d   1       7.837 -18.031 -10.279  0.00  0.00    -0.082 A 
ATOM    119  H58 PHE d   1       6.083 -18.618  -9.206  0.00  0.00     0.084 H 
ATOM    120  CZ  PHE d   1       8.437 -17.060 -11.029  0.00  0.00    -0.083 A 
ATOM    121  H60 PHE d   1       8.366 -18.952 -10.062  0.00  0.00     0.083 H 
ATOM    122  CE2 PHE d   1       7.773 -15.898 -11.302  0.00  0.00    -0.082 A 
ATOM    123  H62 PHE d   1       9.441 -17.212 -11.408  0.00  0.00     0.083 H 
ATOM    124  CD2 PHE d   1       6.502 -15.694 -10.824  0.00  0.00    -0.077 A 
ATOM    125  H61 PHE d   1       8.253 -15.132 -11.900  0.00  0.00     0.083 H 
ATOM    126  H59 PHE d   1       5.990 -14.765 -11.048  0.00  0.00     0.084 H 
ENDBRANCH 113 116
ENDBRANCH   5 113
ENDBRANCH   1   5
BRANCH   3 127
ATOM    127  CA  PHE d   1       4.081 -13.393  -6.063  0.00  0.00     0.093 C 
ATOM    128  H64 PHE d   1       5.165 -13.242  -5.948  0.00  0.00     0.088 H 
BRANCH 127 129
ATOM    129  C   PHE d   1       3.467 -13.677  -4.700  0.00  0.00     0.241 C 
ATOM    130  O   PHE d   1       4.088 -13.448  -3.669  0.00  0.00    -0.271 OA
ATOM    131  N   GLY d   1       2.214 -14.144  -4.724  0.00  0.00    -0.351 N 
ATOM    132  H72 GLY d   1       1.748 -14.237  -5.604  0.00  0.00     0.163 HD
BRANCH 131 133
ATOM    133  CA  GLY d   1       1.503 -14.524  -3.498  0.00  0.00     0.069 C 
ATOM    134  H73 GLY d   1       0.485 -14.833  -3.777  0.00  0.00     0.078 H 
ATOM    135  H74 GLY d   1       1.452 -13.639  -2.846  0.00  0.00     0.078 H 
BRANCH 133 136
ATOM    136  C   GLY d   1       2.146 -15.672  -2.693  0.00  0.00     0.236 C 
ATOM    137  O   GLY d   1       1.816 -15.855  -1.516  0.00  0.00    -0.272 OA
ATOM    138  N   LYS d   1       3.040 -16.467  -3.328  0.00  0.00    -0.346 N 
ATOM    139  H75 LYS d   1       3.147 -16.380  -4.319  0.00  0.00     0.163 HD
BRANCH 138 140
ATOM    140  CA  LYS d   1       3.867 -17.463  -2.601  0.00  0.00     0.089 C 
ATOM    141  H76 LYS d   1       3.238 -17.977  -1.860  0.00  0.00     0.087 H 
BRANCH 140 142
ATOM    142  C   LYS d   1       4.992 -16.712  -1.862  0.00  0.00     0.241 C 
ATOM    143  O   LYS d   1       5.295 -17.001  -0.703  0.00  0.00    -0.271 OA
ATOM    144  N   ALA d   1       5.579 -15.716  -2.544  0.00  0.00    -0.346 N 
ATOM    145  H88 ALA d   1       5.292 -15.556  -3.489  0.00  0.00     0.163 HD
BRANCH 144 146
ATOM    146  CA  ALA d   1       6.627 -14.842  -1.975  0.00  0.00     0.086 C 
ATOM    147  H89 ALA d   1       7.217 -15.427  -1.254  0.00  0.00     0.086 H 
BRANCH 146 148
ATOM    148  C   ALA d   1       6.010 -13.631  -1.226  0.00  0.00     0.240 C 
ATOM    149  O   ALA d   1       6.691 -12.622  -1.003  0.00  0.00    -0.271 OA
ATOM    150  N   ALA d   1       4.719 -13.753  -0.825  0.00  0.00    -0.346 N 
ATOM    151  H93 ALA d   1       4.246 -14.613  -1.015  0.00  0.00     0.163 HD
BRANCH 150 152
ATOM    152  CA  ALA d   1       3.972 -12.686  -0.123  0.00  0.00     0.086 C 
ATOM    153  H94 ALA d   1       4.092 -11.757  -0.699  0.00  0.00     0.086 H 
BRANCH 152 154
ATOM    154  C   ALA d   1       4.515 -12.434   1.292  0.00  0.00     0.240 C 
ATOM    155  O   ALA d   1       5.450 -13.112   1.742  0.00  0.00    -0.271 OA
ATOM    156  N   MET d   1       3.926 -11.445   1.989  0.00  0.00    -0.346 N 
ATOM    157  H98 MET d   1       3.208 -10.909   1.546  0.00  0.00     0.163 HD
BRANCH 156 158
ATOM    158  CA  MET d   1       4.293 -11.121   3.370  0.00  0.00     0.090 C 
ATOM    159  H99 MET d   1       5.390 -11.118   3.450  0.00  0.00     0.087 H 
BRANCH 158 160
ATOM    160  C   MET d   1       3.740 -12.225   4.310  0.00  0.00     0.241 C 
ATOM    161  O   MET d   1       2.642 -12.102   4.873  0.00  0.00    -0.271 OA
ATOM    162  N   ASN d   1       4.511 -13.328   4.412  0.00  0.00    -0.346 N 
ATOM    163 7H10 ASN d   1       5.431 -13.293   4.022  0.00  0.00     0.163 HD
BRANCH 162 164
ATOM    164  CA  ASN d   1       4.084 -14.582   5.062  0.00  0.00     0.097 C 
ATOM    165 8H10 ASN d   1       3.557 -14.340   5.997  0.00  0.00     0.088 H 
BRANCH 164 166
ATOM    166  C   ASN d   1       5.322 -15.441   5.395  0.00  0.00     0.241 C 
ATOM    167  O   ASN d   1       5.980 -15.959   4.485  0.00  0.00    -0.271 OA
ATOM    168  N   LYS d   1       5.635 -15.553   6.699  0.00  0.00    -0.345 N 
ATOM    169 3H11 LYS d   1       5.092 -15.032   7.357  0.00  0.00     0.163 HD
BRANCH 168 170
ATOM    170  CA  LYS d   1       6.732 -16.398   7.221  0.00  0.00     0.096 C 
ATOM    171 4H11 LYS d   1       6.668 -17.378   6.726  0.00  0.00     0.089 H 
BRANCH 170 172
ATOM    172  C   LYS d   1       6.540 -16.620   8.751  0.00  0.00     0.196 C 
ATOM    173  O   LYS d   1       6.589 -17.783   9.206  0.00  0.00    -0.646 OA
ATOM    174  OXT LYS d   1       6.277 -15.638   9.484  0.00  0.00    -0.646 OA
ENDBRANCH 170 172
BRANCH 170 175
ATOM    175  CB  LYS d   1       8.142 -15.798   6.897  0.00  0.00    -0.037 C 
ATOM    176 5H11 LYS d   1       8.286 -15.836   5.807  0.00  0.00     0.036 H 
ATOM    177 6H11 LYS d   1       8.900 -16.426   7.389  0.00  0.00     0.036 H 
BRANCH 175 178
ATOM    178  CG  LYS d   1       8.359 -14.340   7.356  0.00  0.00    -0.061 C 
ATOM    179 7H11 LYS d   1       8.173 -14.283   8.439  0.00  0.00     0.033 H 
ATOM    180 8H11 LYS d   1       7.641 -13.697   6.826  0.00  0.00     0.033 H 
BRANCH 178 181
ATOM    181  CD  LYS d   1       9.788 -13.817   7.075  0.00  0.00    -0.043 C 
ATOM    182 9H11 LYS d   1       9.976 -13.865   5.992  0.00  0.00     0.035 H 
ATOM    183 0H12 LYS d   1      10.510 -14.459   7.601  0.00  0.00     0.035 H 
BRANCH 181 184
ATOM    184  CE  LYS d   1       9.982 -12.360   7.548  0.00  0.00     0.080 C 
ATOM    185 1H12 LYS d   1       9.715 -12.296   8.613  0.00  0.00     0.075 H 
ATOM    186 2H12 LYS d   1       9.316 -11.708   6.964  0.00  0.00     0.075 H 
BRANCH 184 187
ATOM    187  NZ  LYS d   1      11.379 -11.890   7.378  0.00  0.00    -0.079 N 
ATOM    188 3H12 LYS d   1      11.455 -10.938   7.700  0.00  0.00     0.274 HD
ATOM    189 4H12 LYS d   1      11.633 -11.937   6.404  0.00  0.00     0.274 HD
ATOM    190 5H12 LYS d   1      11.998 -12.476   7.915  0.00  0.00     0.274 HD
ENDBRANCH 184 187
ENDBRANCH 181 184
ENDBRANCH 178 181
ENDBRANCH 175 178
ENDBRANCH 170 175
ENDBRANCH 168 170
ENDBRANCH 164 166
BRANCH 164 191
ATOM    191  CB  ASN d   1       3.111 -15.364   4.123  0.00  0.00     0.036 C 
ATOM    192 9H10 ASN d   1       3.611 -15.496   3.152  0.00  0.00     0.051 H 
ATOM    193 0H11 ASN d   1       2.205 -14.754   3.990  0.00  0.00     0.051 H 
BRANCH 191 194
ATOM    194  CG  ASN d   1       2.675 -16.758   4.626  0.00  0.00     0.217 C 
ATOM    195  OD1 ASN d   1       2.468 -17.669   3.824  0.00  0.00    -0.274 OA
ATOM    196  ND2 ASN d   1       2.503 -16.939   5.932  0.00  0.00    -0.370 N 
ATOM    197 1H11 ASN d   1       2.221 -17.833   6.280  0.00  0.00     0.159 HD
ATOM    198 2H11 ASN d   1       2.656 -16.181   6.566  0.00  0.00     0.159 HD
ENDBRANCH 191 194
ENDBRANCH 164 191
ENDBRANCH 162 164
ENDBRANCH 158 160
BRANCH 158 199
ATOM    199  CB  MET d   1       3.781  -9.702   3.758  0.00  0.00    -0.030 C 
ATOM    200 0H10 MET d   1       2.682  -9.717   3.728  0.00  0.00     0.037 H 
ATOM    201 1H10 MET d   1       4.159  -8.988   3.011  0.00  0.00     0.037 H 
BRANCH 199 202
ATOM    202  CG  MET d   1       4.213  -9.206   5.153  0.00  0.00    -0.021 C 
ATOM    203 2H10 MET d   1       5.312  -9.217   5.204  0.00  0.00     0.049 H 
ATOM    204 3H10 MET d   1       3.804  -9.891   5.910  0.00  0.00     0.049 H 
BRANCH 202 205
ATOM    205  SD  MET d   1       3.635  -7.530   5.519  0.00  0.00    -0.173 SA
BRANCH 205 206
ATOM    206  CE  MET d   1       4.427  -6.577   4.219  0.00  0.00    -0.035 C 
ATOM    207 4H10 MET d   1       4.155  -5.516   4.324  0.00  0.00     0.041 H 
ATOM    208 5H10 MET d   1       4.092  -6.946   3.238  0.00  0.00     0.041 H 
ATOM    209 6H10 MET d   1       5.519  -6.685   4.298  0.00  0.00     0.041 H 
ENDBRANCH 205 206
ENDBRANCH 202 205
ENDBRANCH 199 202
ENDBRANCH 158 199
ENDBRANCH 156 158
ENDBRANCH 152 154
BRANCH 152 210
ATOM    210  CB  ALA d   1       2.473 -13.027  -0.071  0.00  0.00    -0.049 C 
ATOM    211  H95 ALA d   1       1.933 -12.225   0.453  0.00  0.00     0.030 H 
ATOM    212  H96 ALA d   1       2.331 -13.976   0.466  0.00  0.00     0.030 H 
ATOM    213  H97 ALA d   1       2.083 -13.123  -1.095  0.00  0.00     0.030 H 
ENDBRANCH 152 210
ENDBRANCH 150 152
ENDBRANCH 146 148
BRANCH 146 214
ATOM    214  CB  ALA d   1       7.559 -14.373  -3.109  0.00  0.00    -0.049 C 
ATOM    215  H90 ALA d   1       8.342 -13.722  -2.694  0.00  0.00     0.030 H 
ATOM    216  H91 ALA d   1       6.976 -13.815  -3.856  0.00  0.00     0.030 H 
ATOM    217  H92 ALA d   1       8.024 -15.248  -3.587  0.00  0.00     0.030 H 
ENDBRANCH 146 214
ENDBRANCH 144 146
ENDBRANCH 140 142
BRANCH 140 218
ATOM    218  CB  LYS d   1       4.439 -18.532  -3.584  0.00  0.00    -0.038 C 
ATOM    219  H77 LYS d   1       5.308 -18.088  -4.092  0.00  0.00     0.036 H 
ATOM    220  H78 LYS d   1       3.657 -18.758  -4.324  0.00  0.00     0.036 H 
BRANCH 218 221
ATOM    221  CG  LYS d   1       4.899 -19.883  -2.953  0.00  0.00    -0.061 C 
ATOM    222  H79 LYS d   1       5.051 -20.609  -3.766  0.00  0.00     0.033 H 
ATOM    223  H80 LYS d   1       4.101 -20.241  -2.286  0.00  0.00     0.033 H 
BRANCH 221 224
ATOM    224  CD  LYS d   1       6.213 -19.791  -2.132  0.00  0.00    -0.043 C 
ATOM    225  H81 LYS d   1       6.072 -19.047  -1.334  0.00  0.00     0.035 H 
ATOM    226  H82 LYS d   1       7.019 -19.461  -2.804  0.00  0.00     0.035 H 
BRANCH 224 227
ATOM    227  CE  LYS d   1       6.634 -21.122  -1.485  0.00  0.00     0.080 C 
ATOM    228  H83 LYS d   1       6.796 -21.868  -2.277  0.00  0.00     0.075 H 
ATOM    229  H84 LYS d   1       5.830 -21.464  -0.817  0.00  0.00     0.075 H 
BRANCH 227 230
ATOM    230  NZ  LYS d   1       7.890 -20.976  -0.694  0.00  0.00    -0.079 N 
ATOM    231  H85 LYS d   1       8.135 -21.864  -0.286  0.00  0.00     0.274 HD
ATOM    232  H86 LYS d   1       7.749 -20.297   0.038  0.00  0.00     0.274 HD
ATOM    233  H87 LYS d   1       8.634 -20.668  -1.300  0.00  0.00     0.274 HD
ENDBRANCH 227 230
ENDBRANCH 224 227
ENDBRANCH 221 224
ENDBRANCH 218 221
ENDBRANCH 140 218
ENDBRANCH 138 140
ENDBRANCH 133 136
ENDBRANCH 131 133
ENDBRANCH 127 129
BRANCH 127 234
ATOM    234  CB  PHE d   1       3.449 -12.092  -6.637  0.00  0.00    -0.014 C 
ATOM    235  H65 PHE d   1       3.543 -11.306  -5.873  0.00  0.00     0.043 H 
ATOM    236  H66 PHE d   1       2.384 -12.291  -6.829  0.00  0.00     0.043 H 
BRANCH 234 237
ATOM    237  CG  PHE d   1       4.064 -11.564  -7.927  0.00  0.00    -0.056 A 
ATOM    238  CD1 PHE d   1       4.911 -12.311  -8.709  0.00  0.00    -0.077 A 
ATOM    239  CE1 PHE d   1       5.415 -11.826  -9.864  0.00  0.00    -0.082 A 
ATOM    240  H67 PHE d   1       5.181 -13.312  -8.392  0.00  0.00     0.084 H 
ATOM    241  CZ  PHE d   1       5.097 -10.569 -10.275  0.00  0.00    -0.083 A 
ATOM    242  H69 PHE d   1       6.075 -12.440 -10.466  0.00  0.00     0.083 H 
ATOM    243  CE2 PHE d   1       4.266  -9.810  -9.525  0.00  0.00    -0.082 A 
ATOM    244  H71 PHE d   1       5.508 -10.178 -11.199  0.00  0.00     0.083 H 
ATOM    245  CD2 PHE d   1       3.749 -10.310  -8.365  0.00  0.00    -0.077 A 
ATOM    246  H70 PHE d   1       4.011  -8.806  -9.845  0.00  0.00     0.083 H 
ATOM    247  H68 PHE d   1       3.073  -9.698  -7.779  0.00  0.00     0.084 H 
ENDBRANCH 234 237
ENDBRANCH 127 234
ENDBRANCH   3 127
TORSDOF 73
