REMARK  14 active torsions:
REMARK  status: ('A' for Active; 'I' for Inactive)
REMARK    1  A    between atoms: C17_18  and  C1_1 
REMARK    2  A    between atoms: C3_3  and  O12_21 
REMARK    3  A    between atoms: C4_4  and  O10_20 
REMARK    4  A    between atoms: C38_7  and  C40_6 
REMARK    5  A    between atoms: C38_7  and  C44_8 
REMARK    6  A    between atoms: C37_9  and  C38_7 
REMARK    7  A    between atoms: C36_10  and  C37_9 
REMARK    8  A    between atoms: C33_11  and  C36_10 
REMARK    9  A    between atoms: C30_12  and  C33_11 
REMARK   10  A    between atoms: C27_13  and  C30_12 
REMARK   11  A    between atoms: C24_14  and  C27_13 
REMARK   12  A    between atoms: C22_15  and  C24_14 
REMARK       I    between atoms: N21_17  and  C22_15 
REMARK   13  A    between atoms: N21_17  and  C17_18 
REMARK   14  A    between atoms: O12_21  and  C13_22 
ROOT
ATOM      1  C24 4DY d   1      -3.901  -3.693   3.088  0.00  0.00     0.009 C 
ATOM      2  H20 4DY d   1      -4.453  -4.348   2.398  0.00  0.00     0.047 H 
ATOM      3  H21 4DY d   1      -3.446  -2.866   2.523  0.00  0.00     0.047 H 
ENDROOT
BRANCH   1   4
ATOM      4  C27 4DY d   1      -2.804  -4.498   3.789  0.00  0.00    -0.057 C 
ATOM      5  H18 4DY d   1      -3.094  -4.680   4.834  0.00  0.00     0.033 H 
ATOM      6  H19 4DY d   1      -2.669  -5.460   3.273  0.00  0.00     0.033 H 
BRANCH   4   7
ATOM      7  C30 4DY d   1      -1.493  -3.712   3.754  0.00  0.00    -0.065 C 
ATOM      8  H16 4DY d   1      -1.580  -2.885   3.033  0.00  0.00     0.033 H 
ATOM      9  H17 4DY d   1      -1.282  -3.306   4.754  0.00  0.00     0.033 H 
BRANCH   7  10
ATOM     10  C33 4DY d   1      -0.353  -4.640   3.330  0.00  0.00    -0.065 C 
ATOM     11  H14 4DY d   1      -0.517  -5.641   3.756  0.00  0.00     0.033 H 
ATOM     12  H15 4DY d   1      -0.326  -4.709   2.232  0.00  0.00     0.033 H 
BRANCH  10  13
ATOM     13  C36 4DY d   1       0.977  -4.082   3.838  0.00  0.00    -0.065 C 
ATOM     14  H12 4DY d   1       0.991  -3.012   3.582  0.00  0.00     0.033 H 
ATOM     15  H13 4DY d   1       0.973  -4.197   4.932  0.00  0.00     0.033 H 
BRANCH  13  16
ATOM     16  C37 4DY d   1       2.297  -4.674   3.336  0.00  0.00    -0.062 C 
ATOM     17  H10 4DY d   1       2.307  -5.731   3.640  0.00  0.00     0.033 H 
ATOM     18  H11 4DY d   1       2.277  -4.608   2.238  0.00  0.00     0.033 H 
BRANCH  16  19
ATOM     19  C38 4DY d   1       3.628  -4.072   3.790  0.00  0.00    -0.061 C 
ATOM     20  H6  4DY d   1       3.438  -3.155   4.366  0.00  0.00     0.038 H 
BRANCH  19  21
ATOM     21  C40 4DY d   1       4.477  -3.737   2.563  0.00  0.00    -0.073 C 
ATOM     22  H3  4DY d   1       5.435  -3.304   2.887  0.00  0.00     0.028 H 
ATOM     23  H4  4DY d   1       3.941  -3.012   1.933  0.00  0.00     0.028 H 
ATOM     24  H5  4DY d   1       4.666  -4.654   1.986  0.00  0.00     0.028 H 
ENDBRANCH  19  21
BRANCH  19  25
ATOM     25  C44 4DY d   1       4.371  -5.079   4.667  0.00  0.00    -0.073 C 
ATOM     26  H7  4DY d   1       3.759  -5.319   5.549  0.00  0.00     0.028 H 
ATOM     27  H8  4DY d   1       5.329  -4.646   4.992  0.00  0.00     0.028 H 
ATOM     28  H9  4DY d   1       4.560  -5.997   4.091  0.00  0.00     0.028 H 
ENDBRANCH  19  25
ENDBRANCH  16  19
ENDBRANCH  13  16
ENDBRANCH  10  13
ENDBRANCH   7  10
ENDBRANCH   4   7
ENDBRANCH   1   4
BRANCH   1  29
ATOM     29  C22 4DY d   1      -4.864  -3.127   4.135  0.00  0.00     0.217 C 
ATOM     30  O23 4DY d   1      -4.472  -2.835   5.263  0.00  0.00    -0.274 OA
ATOM     31  N21 4DY d   1      -6.130  -2.987   3.722  0.00  0.00    -0.357 N 
ATOM     32  H22 4DY d   1      -6.368  -3.254   2.788  0.00  0.00     0.162 HD
BRANCH  31  33
ATOM     33  C17 4DY d   1      -7.180  -2.452   4.601  0.00  0.00     0.019 C 
ATOM     34  H23 4DY d   1      -6.778  -2.324   5.617  0.00  0.00     0.071 H 
ATOM     35  H24 4DY d   1      -7.520  -1.479   4.216  0.00  0.00     0.071 H 
BRANCH  33  36
ATOM     36  C1  4DY d   1      -8.253  -3.339   4.635  0.00  0.00    -0.038 A 
ATOM     37  C2  4DY d   1      -8.646  -3.904   5.844  0.00  0.00    -0.040 A 
ATOM     38  C3  4DY d   1      -9.718  -4.791   5.867  0.00  0.00     0.101 A 
ATOM     39  H1  4DY d   1      -8.122  -3.656   6.760  0.00  0.00     0.088 H 
ATOM     40  C4  4DY d   1     -10.392  -5.109   4.694  0.00  0.00     0.099 A 
ATOM     41  C5  4DY d   1     -10.000  -4.542   3.484  0.00  0.00    -0.048 A 
ATOM     42  C6  4DY d   1      -8.925  -3.657   3.458  0.00  0.00    -0.072 A 
ATOM     43  H2  4DY d   1     -10.527  -4.788   2.569  0.00  0.00     0.087 H 
ATOM     44  H25 4DY d   1      -8.611  -3.215   2.519  0.00  0.00     0.084 H 
BRANCH  38  45
ATOM     45  O12 4DY d   1     -10.153  -5.384   7.012  0.00  0.00    -0.353 OA
BRANCH  45  46
ATOM     46  C13 4DY d   1     -11.269  -4.663   7.537  0.00  0.00     0.010 C 
ATOM     47  H27 4DY d   1     -11.616  -5.147   8.462  0.00  0.00     0.066 H 
ATOM     48  H28 4DY d   1     -12.084  -4.659   6.798  0.00  0.00     0.066 H 
ATOM     49  H29 4DY d   1     -10.967  -3.628   7.756  0.00  0.00     0.066 H 
ENDBRANCH  45  46
ENDBRANCH  38  45
BRANCH  40  50
ATOM     50  O10 4DY d   1     -11.434  -5.978   4.793  0.00  0.00    -0.358 OA
ATOM     51  H26 4DY d   1     -11.536  -6.247   5.699  0.00  0.00     0.217 HD
ENDBRANCH  40  50
ENDBRANCH  33  36
ENDBRANCH  31  33
ENDBRANCH   1  29
TORSDOF 14
