REMARK WARNING: 32 MAX_TORS EXCEEDED!!!
REMARK  87 active torsions:
REMARK  status: ('A' for Active; 'I' for Inactive)
REMARK    1  A    between atoms: N_1  and  CA_2 
REMARK    2  A    between atoms: CA_2  and  C_3 
REMARK    3  A    between atoms: CA_2  and  CB_5 
REMARK       I    between atoms: C_3  and  N_8 
REMARK    4  A    between atoms: CB_5  and  OG1_6 
REMARK    5  A    between atoms: CB_5  and  CG2_7 
REMARK    6  A    between atoms: N_8  and  CA_9 
REMARK    7  A    between atoms: CA_9  and  C_10 
REMARK    8  A    between atoms: CA_9  and  CB_12 
REMARK       I    between atoms: C_10  and  N_22 
REMARK    9  A    between atoms: CB_12  and  CG_13 
REMARK   10  A    between atoms: N_22  and  CA_23 
REMARK   11  A    between atoms: CA_23  and  C_24 
REMARK   12  A    between atoms: CA_23  and  CB_26 
REMARK       I    between atoms: C_24  and  N_33 
REMARK   13  A    between atoms: CB_26  and  CG_27 
REMARK   14  A    between atoms: CG_27  and  CD_28 
REMARK   15  A    between atoms: CD_28  and  NE_29 
REMARK       I    between atoms: NE_29  and  CZ_30 
REMARK       I    between atoms: CZ_30  and  NH1_31 
REMARK       I    between atoms: CZ_30  and  NH2_32 
REMARK   16  A    between atoms: N_33  and  CA_34 
REMARK   17  A    between atoms: CA_34  and  C_35 
REMARK   18  A    between atoms: CA_34  and  CB_37 
REMARK       I    between atoms: C_35  and  N_40 
REMARK   19  A    between atoms: CB_37  and  CG1_38 
REMARK   20  A    between atoms: CB_37  and  CG2_39 
REMARK   21  A    between atoms: N_40  and  CA_41 
REMARK   22  A    between atoms: CA_41  and  C_42 
REMARK   23  A    between atoms: CA_41  and  CB_44 
REMARK       I    between atoms: C_42  and  N_49 
REMARK   24  A    between atoms: CB_44  and  CG_45 
REMARK   25  A    between atoms: CG_45  and  CD_46 
REMARK       I    between atoms: CD_46  and  NE2_48 
REMARK   26  A    between atoms: N_49  and  CA_50 
REMARK   27  A    between atoms: CA_50  and  C_51 
REMARK   28  A    between atoms: CA_50  and  CB_53 
REMARK       I    between atoms: C_51  and  N_60 
REMARK   29  A    between atoms: CB_53  and  CG_54 
REMARK   30  A    between atoms: CG_54  and  CD_55 
REMARK   31  A    between atoms: CD_55  and  NE_56 
REMARK       I    between atoms: NE_56  and  CZ_57 
REMARK       I    between atoms: CZ_57  and  NH1_58 
REMARK       I    between atoms: CZ_57  and  NH2_59 
REMARK   32  A    between atoms: N_60  and  CA_61 
REMARK   33  A    between atoms: CA_61  and  C_62 
REMARK   34  A    between atoms: CA_61  and  CB_64 
REMARK       I    between atoms: C_62  and  N_66 
REMARK   35  A    between atoms: CB_64  and  OG_65 
REMARK   36  A    between atoms: N_66  and  CA_67 
REMARK   37  A    between atoms: CA_67  and  C_68 
REMARK   38  A    between atoms: CA_67  and  CB_70 
REMARK       I    between atoms: C_68  and  N_75 
REMARK   39  A    between atoms: CB_70  and  CG_71 
REMARK   40  A    between atoms: CG_71  and  CD_72 
REMARK       I    between atoms: CD_72  and  NE2_74 
REMARK   41  A    between atoms: N_75  and  CA_76 
REMARK   42  A    between atoms: CA_76  and  C_77 
REMARK   43  A    between atoms: CA_76  and  CB_79 
REMARK       I    between atoms: C_77  and  N_83 
REMARK   44  A    between atoms: CB_79  and  CG_80 
REMARK       I    between atoms: CG_80  and  ND2_82 
REMARK   45  A    between atoms: CA_84  and  C_85 
REMARK       I    between atoms: C_85  and  N_90 
REMARK   46  A    between atoms: N_90  and  CA_91 
REMARK   47  A    between atoms: CA_91  and  C_92 
REMARK   48  A    between atoms: CA_91  and  CB_94 
REMARK       I    between atoms: C_92  and  N_98 
REMARK   49  A    between atoms: CB_94  and  CG_95 
REMARK   50  A    between atoms: CG_95  and  CD1_96 
REMARK   51  A    between atoms: CG_95  and  CD2_97 
REMARK   52  A    between atoms: N_98  and  CA_99 
REMARK   53  A    between atoms: CA_99  and  C_100 
REMARK   54  A    between atoms: CA_99  and  CB_102 
REMARK       I    between atoms: C_100  and  N_107 
REMARK   55  A    between atoms: CB_102  and  CG_103 
REMARK   56  A    between atoms: CG_103  and  CD_104 
REMARK   57  A    between atoms: CD_104  and  CE_105 
REMARK   58  A    between atoms: CE_105  and  NZ_106 
REMARK   59  A    between atoms: N_107  and  CA_108 
REMARK   60  A    between atoms: CA_108  and  C_109 
REMARK   61  A    between atoms: CA_108  and  CB_111 
REMARK       I    between atoms: C_109  and  N_115 
REMARK   62  A    between atoms: CB_111  and  CG1_112 
REMARK   63  A    between atoms: CB_111  and  CG2_113 
REMARK   64  A    between atoms: CG1_112  and  CD1_114 
REMARK   65  A    between atoms: N_115  and  CA_116 
REMARK   66  A    between atoms: CA_116  and  C_117 
REMARK   67  A    between atoms: CA_116  and  CB_119 
REMARK       I    between atoms: C_117  and  N_126 
REMARK   68  A    between atoms: CB_119  and  CG_120 
REMARK   69  A    between atoms: CG_120  and  CD_121 
REMARK   70  A    between atoms: CD_121  and  NE_122 
REMARK       I    between atoms: NE_122  and  CZ_123 
REMARK       I    between atoms: CZ_123  and  NH1_124 
REMARK       I    between atoms: CZ_123  and  NH2_125 
REMARK   71  A    between atoms: N_126  and  CA_127 
REMARK   72  A    between atoms: CA_127  and  C_128 
REMARK   73  A    between atoms: CA_127  and  CB_130 
REMARK       I    between atoms: C_128  and  N_134 
REMARK   74  A    between atoms: CB_130  and  CG_131 
REMARK   75  A    between atoms: CG_131  and  CD1_132 
REMARK   76  A    between atoms: CG_131  and  CD2_133 
REMARK   77  A    between atoms: N_134  and  CA_135 
REMARK   78  A    between atoms: CA_135  and  C_136 
REMARK   79  A    between atoms: CA_135  and  CB_138 
REMARK       I    between atoms: C_136  and  N_141 
REMARK   80  A    between atoms: CB_138  and  OG1_139 
REMARK   81  A    between atoms: CB_138  and  CG2_140 
REMARK   82  A    between atoms: N_141  and  CA_142 
REMARK   83  A    between atoms: CA_142  and  C_143 
REMARK   84  A    between atoms: CA_142  and  CB_145 
REMARK   85  A    between atoms: CB_145  and  CG_146 
REMARK   86  A    between atoms: CG_146  and  CD_147 
REMARK   87  A    between atoms: CD_147  and  NE_148 
REMARK       I    between atoms: NE_148  and  CZ_149 
REMARK       I    between atoms: CZ_149  and  NH1_150 
REMARK       I    between atoms: CZ_149  and  NH2_151 
ROOT
ATOM      1  CA  ASN d   1      -1.159 -13.376  -2.217  0.00  0.00     0.097 C 
ATOM      2  H77 ASN d   1      -1.760 -14.203  -1.810  0.00  0.00     0.088 H 
ENDROOT
BRANCH   1   3
ATOM      3  N   ASN d   1       0.114 -13.915  -2.683  0.00  0.00    -0.346 N 
ATOM      4  C   GLN d   1       0.193 -14.668  -3.776  0.00  0.00     0.241 C 
ATOM      5  O   GLN d   1      -0.786 -14.959  -4.461  0.00  0.00    -0.271 OA
ATOM      6  H76 ASN d   1       0.947 -13.713  -2.168  0.00  0.00     0.163 HD
BRANCH   4   7
ATOM      7  CA  GLN d   1       1.585 -15.167  -4.151  0.00  0.00     0.090 C 
ATOM      8  H69 GLN d   1       1.651 -15.227  -5.247  0.00  0.00     0.087 H 
BRANCH   7   9
ATOM      9  N   GLN d   1       2.612 -14.248  -3.676  0.00  0.00    -0.346 N 
ATOM     10  C   SER d   1       2.659 -12.984  -4.087  0.00  0.00     0.243 C 
ATOM     11  O   SER d   1       1.852 -12.507  -4.883  0.00  0.00    -0.271 OA
ATOM     12  H68 GLN d   1       3.297 -14.576  -3.026  0.00  0.00     0.163 HD
BRANCH  10  13
ATOM     13  CA  SER d   1       3.787 -12.133  -3.512  0.00  0.00     0.109 C 
ATOM     14  H64 SER d   1       4.743 -12.500  -3.915  0.00  0.00     0.090 H 
BRANCH  13  15
ATOM     15  N   SER d   1       3.629 -10.735  -3.896  0.00  0.00    -0.344 N 
ATOM     16  C   ARG d   1       4.631 -10.041  -4.427  0.00  0.00     0.241 C 
ATOM     17  O   ARG d   1       5.745 -10.523  -4.633  0.00  0.00    -0.271 OA
ATOM     18  H63 SER d   1       2.746 -10.288  -3.756  0.00  0.00     0.163 HD
BRANCH  16  19
ATOM     19  CA  ARG d   1       4.331  -8.587  -4.779  0.00  0.00     0.089 C 
ATOM     20  H51 ARG d   1       3.923  -8.088  -3.888  0.00  0.00     0.087 H 
BRANCH  19  21
ATOM     21  N   ARG d   1       5.546  -7.889  -5.184  0.00  0.00    -0.346 N 
ATOM     22  C   GLN d   1       6.505  -7.597  -4.311  0.00  0.00     0.241 C 
ATOM     23  O   GLN d   1       6.437  -7.890  -3.118  0.00  0.00    -0.271 OA
ATOM     24  H50 ARG d   1       5.660  -7.624  -6.141  0.00  0.00     0.163 HD
BRANCH  22  25
ATOM     25  CA  GLN d   1       7.721  -6.864  -4.868  0.00  0.00     0.090 C 
ATOM     26  H43 GLN d   1       7.579  -6.722  -5.949  0.00  0.00     0.087 H 
BRANCH  25  27
ATOM     27  N   GLN d   1       7.868  -5.553  -4.246  0.00  0.00    -0.346 N 
ATOM     28  C   VAL d   1       8.540  -4.572  -4.840  0.00  0.00     0.241 C 
ATOM     29  O   VAL d   1       9.077  -4.697  -5.940  0.00  0.00    -0.271 OA
ATOM     30  H42 GLN d   1       7.453  -5.388  -3.351  0.00  0.00     0.163 HD
BRANCH  28  31
ATOM     31  CA  VAL d   1       8.617  -3.253  -4.080  0.00  0.00     0.092 C 
ATOM     32  H34 VAL d   1       8.528  -3.463  -3.004  0.00  0.00     0.088 H 
BRANCH  31  33
ATOM     33  N   VAL d   1       9.894  -2.589  -4.308  0.00  0.00    -0.346 N 
ATOM     34  C   ARG d   1      10.430  -1.778  -3.401  0.00  0.00     0.241 C 
ATOM     35  O   ARG d   1       9.894  -1.534  -2.320  0.00  0.00    -0.271 OA
ATOM     36  H33 VAL d   1      10.379  -2.747  -5.168  0.00  0.00     0.163 HD
BRANCH  34  37
ATOM     37  CA  ARG d   1      11.771  -1.149  -3.768  0.00  0.00     0.089 C 
ATOM     38  H21 ARG d   1      11.693  -0.723  -4.779  0.00  0.00     0.087 H 
BRANCH  37  39
ATOM     39  N   ARG d   1      12.114  -0.078  -2.841  0.00  0.00    -0.346 N 
ATOM     40  C   TRP d   1      12.414   1.144  -3.269  0.00  0.00     0.241 C 
ATOM     41  O   TRP d   1      12.424   1.454  -4.461  0.00  0.00    -0.271 OA
ATOM     42  H20 ARG d   1      12.124  -0.267  -1.859  0.00  0.00     0.163 HD
BRANCH  40  43
ATOM     43  CA  TRP d   1      12.755   2.170  -2.194  0.00  0.00     0.093 C 
ATOM     44  H11 TRP d   1      13.306   1.663  -1.389  0.00  0.00     0.088 H 
BRANCH  43  45
ATOM     45  N   TRP d   1      13.599   3.230  -2.735  0.00  0.00    -0.346 N 
ATOM     46  C   THR d   1      14.867   3.011  -3.061  0.00  0.00     0.251 C 
ATOM     47  O   THR d   1      15.413   1.915  -2.933  0.00  0.00    -0.271 OA
ATOM     48  H10 TRP d   1      13.213   4.144  -2.863  0.00  0.00     0.163 HD
BRANCH  46  49
ATOM     49  CA  THR d   1      15.636   4.205  -3.615  0.00  0.00     0.199 C 
ATOM     50  H4  THR d   1      15.714   4.968  -2.827  0.00  0.00     0.103 H 
BRANCH  49  51
ATOM     51  N   THR d   1      16.985   3.823  -4.012  0.00  0.00    -0.064 N 
ATOM     52  H1  THR d   1      17.472   3.437  -3.219  0.00  0.00     0.275 HD
ATOM     53  H2  THR d   1      17.479   4.635  -4.347  0.00  0.00     0.275 HD
ATOM     54  H3  THR d   1      16.937   3.133  -4.745  0.00  0.00     0.275 HD
ENDBRANCH  49  51
BRANCH  49  55
ATOM     55  CB  THR d   1      14.851   4.802  -4.798  0.00  0.00     0.068 C 
ATOM     56  H5  THR d   1      13.921   4.229  -4.928  0.00  0.00     0.086 H 
BRANCH  55  57
ATOM     57  OG1 THR d   1      15.626   4.707  -5.999  0.00  0.00    -0.393 OA
ATOM     58  H6  THR d   1      15.134   5.077  -6.722  0.00  0.00     0.210 HD
ENDBRANCH  55  57
BRANCH  55  59
ATOM     59  CG2 THR d   1      14.495   6.257  -4.533  0.00  0.00    -0.050 C 
ATOM     60  H7  THR d   1      13.936   6.660  -5.391  0.00  0.00     0.031 H 
ATOM     61  H8  THR d   1      15.417   6.840  -4.390  0.00  0.00     0.031 H 
ATOM     62  H9  THR d   1      13.875   6.324  -3.627  0.00  0.00     0.031 H 
ENDBRANCH  55  59
ENDBRANCH  49  55
ENDBRANCH  46  49
ENDBRANCH  43  45
BRANCH  43  63
ATOM     63  CB  TRP d   1      11.470   2.761  -1.610  0.00  0.00    -0.012 C 
ATOM     64  H12 TRP d   1      10.649   2.050  -1.782  0.00  0.00     0.044 H 
ATOM     65  H13 TRP d   1      11.252   3.706  -2.130  0.00  0.00     0.044 H 
BRANCH  63  66
ATOM     66  CG  TRP d   1      11.559   3.037  -0.140  0.00  0.00    -0.028 A 
ATOM     67  CD1 TRP d   1      12.261   4.041   0.464  0.00  0.00    -0.015 A 
ATOM     68  NE1 TRP d   1      12.102   3.971   1.827  0.00  0.00    -0.365 N 
ATOM     69  H14 TRP d   1      12.859   4.787  -0.058  0.00  0.00     0.112 H 
ATOM     70  CE2 TRP d   1      11.286   2.913   2.127  0.00  0.00     0.042 A 
ATOM     71  H15 TRP d   1      12.528   4.611   2.513  0.00  0.00     0.165 HD
ATOM     72  CD2 TRP d   1      10.925   2.300   0.911  0.00  0.00    -0.002 A 
ATOM     73  CZ2 TRP d   1      10.836   2.444   3.358  0.00  0.00    -0.056 A 
ATOM     74  CE3 TRP d   1      10.086   1.183   0.943  0.00  0.00    -0.070 A 
ATOM     75  CZ3 TRP d   1       9.641   0.718   2.166  0.00  0.00    -0.082 A 
ATOM     76  H16 TRP d   1       9.789   0.690   0.024  0.00  0.00     0.084 H 
ATOM     77  CH2 TRP d   1      10.016   1.348   3.360  0.00  0.00    -0.081 A 
ATOM     78  H18 TRP d   1       8.991  -0.149   2.202  0.00  0.00     0.083 H 
ATOM     79  H19 TRP d   1       9.650   0.960   4.304  0.00  0.00     0.083 H 
ATOM     80  H17 TRP d   1      11.125   2.930   4.283  0.00  0.00     0.086 H 
ENDBRANCH  63  66
ENDBRANCH  43  63
ENDBRANCH  40  43
ENDBRANCH  37  39
BRANCH  37  81
ATOM     81  CB  ARG d   1      12.865  -2.219  -3.771  0.00  0.00    -0.036 C 
ATOM     82  H22 ARG d   1      13.842  -1.717  -3.816  0.00  0.00     0.036 H 
ATOM     83  H23 ARG d   1      12.734  -2.847  -4.665  0.00  0.00     0.036 H 
BRANCH  81  84
ATOM     84  CG  ARG d   1      12.842  -3.117  -2.545  0.00  0.00    -0.048 C 
ATOM     85  H24 ARG d   1      11.919  -3.715  -2.557  0.00  0.00     0.035 H 
ATOM     86  H25 ARG d   1      12.860  -2.489  -1.642  0.00  0.00     0.035 H 
BRANCH  84  87
ATOM     87  CD  ARG d   1      14.038  -4.055  -2.519  0.00  0.00     0.009 C 
ATOM     88  H26 ARG d   1      14.174  -4.429  -1.493  0.00  0.00     0.064 H 
ATOM     89  H27 ARG d   1      14.934  -3.497  -2.828  0.00  0.00     0.064 H 
BRANCH  87  90
ATOM     90  NE  ARG d   1      13.860  -5.194  -3.416  0.00  0.00    -0.227 N 
ATOM     91  CZ  ARG d   1      14.717  -6.205  -3.500  0.00  0.00     0.665 C 
ATOM     92  NH1 ARG d   1      15.806  -6.219  -2.744  0.00  0.00    -0.235 N 
ATOM     93  NH2 ARG d   1      14.486  -7.205  -4.341  0.00  0.00    -0.235 N 
ATOM     94  H29 ARG d   1      16.469  -7.004  -2.811  0.00  0.00     0.174 HD
ATOM     95  H30 ARG d   1      15.989  -5.445  -2.090  0.00  0.00     0.174 HD
ATOM     96  H31 ARG d   1      13.641  -7.198  -4.930  0.00  0.00     0.174 HD
ATOM     97  H32 ARG d   1      15.152  -7.989  -4.405  0.00  0.00     0.174 HD
ATOM     98  H28 ARG d   1      13.024  -5.214  -4.017  0.00  0.00     0.177 HD
ENDBRANCH  87  90
ENDBRANCH  84  87
ENDBRANCH  81  84
ENDBRANCH  37  81
ENDBRANCH  34  37
ENDBRANCH  31  33
BRANCH  31  99
ATOM     99  CB  VAL d   1       7.436  -2.359  -4.503  0.00  0.00    -0.033 C 
ATOM    100  H35 VAL d   1       7.582  -2.067  -5.553  0.00  0.00     0.042 H 
BRANCH  99 101
ATOM    101  CG1 VAL d   1       6.124  -3.123  -4.399  0.00  0.00    -0.071 C 
ATOM    102  H36 VAL d   1       5.294  -2.469  -4.705  0.00  0.00     0.028 H 
ATOM    103  H37 VAL d   1       5.971  -3.449  -3.360  0.00  0.00     0.028 H 
ATOM    104  H38 VAL d   1       6.159  -4.003  -5.058  0.00  0.00     0.028 H 
ENDBRANCH  99 101
BRANCH  99 105
ATOM    105  CG2 VAL d   1       7.395  -1.095  -3.658  0.00  0.00    -0.071 C 
ATOM    106  H39 VAL d   1       8.353  -0.561  -3.750  0.00  0.00     0.028 H 
ATOM    107  H40 VAL d   1       7.224  -1.363  -2.605  0.00  0.00     0.028 H 
ATOM    108  H41 VAL d   1       6.579  -0.446  -4.008  0.00  0.00     0.028 H 
ENDBRANCH  99 105
ENDBRANCH  31  99
ENDBRANCH  28  31
ENDBRANCH  25  27
BRANCH  25 109
ATOM    109  CB  GLN d   1       8.981  -7.701  -4.646  0.00  0.00    -0.030 C 
ATOM    110  H44 GLN d   1       9.804  -7.249  -5.220  0.00  0.00     0.037 H 
ATOM    111  H45 GLN d   1       8.792  -8.719  -5.016  0.00  0.00     0.037 H 
BRANCH 109 112
ATOM    112  CG  GLN d   1       9.404  -7.791  -3.189  0.00  0.00     0.011 C 
ATOM    113  H46 GLN d   1       9.533  -8.851  -2.925  0.00  0.00     0.047 H 
ATOM    114  H47 GLN d   1       8.612  -7.351  -2.565  0.00  0.00     0.047 H 
BRANCH 112 115
ATOM    115  CD  GLN d   1      10.703  -7.060  -2.912  0.00  0.00     0.215 C 
ATOM    116  OE1 GLN d   1      11.587  -6.997  -3.766  0.00  0.00    -0.274 OA
ATOM    117  NE2 GLN d   1      10.825  -6.504  -1.712  0.00  0.00    -0.370 N 
ATOM    118  H48 GLN d   1      11.660  -6.009  -1.473  0.00  0.00     0.159 HD
ATOM    119  H49 GLN d   1      10.082  -6.581  -1.048  0.00  0.00     0.159 HD
ENDBRANCH 112 115
ENDBRANCH 109 112
ENDBRANCH  25 109
ENDBRANCH  22  25
ENDBRANCH  19  21
BRANCH  19 120
ATOM    120  CB  ARG d   1       3.287  -8.526  -5.895  0.00  0.00    -0.036 C 
ATOM    121  H52 ARG d   1       2.327  -8.883  -5.493  0.00  0.00     0.036 H 
ATOM    122  H53 ARG d   1       3.612  -9.188  -6.712  0.00  0.00     0.036 H 
BRANCH 120 123
ATOM    123  CG  ARG d   1       3.081  -7.130  -6.461  0.00  0.00    -0.048 C 
ATOM    124  H54 ARG d   1       3.482  -6.393  -5.750  0.00  0.00     0.035 H 
ATOM    125  H55 ARG d   1       2.004  -6.956  -6.601  0.00  0.00     0.035 H 
BRANCH 123 126
ATOM    126  CD  ARG d   1       3.787  -6.962  -7.797  0.00  0.00     0.009 C 
ATOM    127  H56 ARG d   1       4.477  -7.806  -7.943  0.00  0.00     0.064 H 
ATOM    128  H57 ARG d   1       4.357  -6.021  -7.781  0.00  0.00     0.064 H 
BRANCH 126 129
ATOM    129  NE  ARG d   1       2.846  -6.924  -8.913  0.00  0.00    -0.227 N 
ATOM    130  CZ  ARG d   1       3.144  -6.431 -10.110  0.00  0.00     0.665 C 
ATOM    131  NH1 ARG d   1       4.352  -5.936 -10.345  0.00  0.00    -0.235 N 
ATOM    132  NH2 ARG d   1       2.233  -6.432 -11.075  0.00  0.00    -0.235 N 
ATOM    133  H59 ARG d   1       4.580  -5.554 -11.274  0.00  0.00     0.174 HD
ATOM    134  H60 ARG d   1       5.062  -5.933  -9.598  0.00  0.00     0.174 HD
ATOM    135  H61 ARG d   1       1.294  -6.816 -10.896  0.00  0.00     0.174 HD
ATOM    136  H62 ARG d   1       2.465  -6.049 -12.003  0.00  0.00     0.174 HD
ATOM    137  H58 ARG d   1       1.899  -7.300  -8.764  0.00  0.00     0.177 HD
ENDBRANCH 126 129
ENDBRANCH 123 126
ENDBRANCH 120 123
ENDBRANCH  19 120
ENDBRANCH  16  19
ENDBRANCH  13  15
BRANCH  13 138
ATOM    138  CB  SER d   1       3.815 -12.264  -1.988  0.00  0.00     0.044 C 
ATOM    139  H65 SER d   1       2.797 -12.472  -1.626  0.00  0.00     0.077 H 
ATOM    140  H66 SER d   1       4.173 -11.320  -1.552  0.00  0.00     0.077 H 
BRANCH 138 141
ATOM    141  OG  SER d   1       4.674 -13.316  -1.583  0.00  0.00    -0.398 OA
ATOM    142  H67 SER d   1       4.674 -13.376  -0.635  0.00  0.00     0.209 HD
ENDBRANCH 138 141
ENDBRANCH  13 138
ENDBRANCH  10  13
ENDBRANCH   7   9
BRANCH   7 143
ATOM    143  CB  GLN d   1       1.812 -16.563  -3.570  0.00  0.00    -0.030 C 
ATOM    144  H70 GLN d   1       2.849 -16.863  -3.781  0.00  0.00     0.037 H 
ATOM    145  H71 GLN d   1       1.120 -17.262  -4.064  0.00  0.00     0.037 H 
BRANCH 143 146
ATOM    146  CG  GLN d   1       1.585 -16.642  -2.069  0.00  0.00     0.011 C 
ATOM    147  H72 GLN d   1       1.873 -15.681  -1.618  0.00  0.00     0.047 H 
ATOM    148  H73 GLN d   1       2.217 -17.444  -1.659  0.00  0.00     0.047 H 
BRANCH 146 149
ATOM    149  CD  GLN d   1       0.141 -16.932  -1.711  0.00  0.00     0.215 C 
ATOM    150  OE1 GLN d   1      -0.678 -17.232  -2.580  0.00  0.00    -0.274 OA
ATOM    151  NE2 GLN d   1      -0.180 -16.843  -0.426  0.00  0.00    -0.370 N 
ATOM    152  H74 GLN d   1      -1.118 -17.024  -0.131  0.00  0.00     0.159 HD
ATOM    153  H75 GLN d   1       0.517 -16.595   0.247  0.00  0.00     0.159 HD
ENDBRANCH 146 149
ENDBRANCH 143 146
ENDBRANCH   7 143
ENDBRANCH   4   7
ENDBRANCH   1   3
BRANCH   1 154
ATOM    154  C   ASN d   1      -1.931 -12.735  -3.365  0.00  0.00     0.243 C 
ATOM    155  O   ASN d   1      -1.387 -12.456  -4.434  0.00  0.00    -0.271 OA
ATOM    156  N   PRO d   1      -3.232 -12.493  -3.142  0.00  0.00    -0.337 N 
ATOM    157  CA  PRO d   1      -4.107 -11.880  -4.145  0.00  0.00     0.091 C 
ATOM    158  CD  PRO d   1      -3.947 -12.799  -1.892  0.00  0.00    -0.001 C 
ATOM    159  CB  PRO d   1      -5.502 -12.020  -3.531  0.00  0.00    -0.036 C 
ATOM    160  H82 PRO d   1      -4.041 -12.425  -5.098  0.00  0.00     0.087 H 
ATOM    161  CG  PRO d   1      -5.264 -12.094  -2.062  0.00  0.00    -0.048 C 
ATOM    162  H83 PRO d   1      -5.994 -12.936  -3.891  0.00  0.00     0.036 H 
ATOM    163  H84 PRO d   1      -6.124 -11.148  -3.780  0.00  0.00     0.036 H 
ATOM    164  H85 PRO d   1      -6.068 -12.663  -1.572  0.00  0.00     0.035 H 
ATOM    165  H86 PRO d   1      -5.215 -11.083  -1.631  0.00  0.00     0.035 H 
ATOM    166  H87 PRO d   1      -3.401 -12.408  -1.021  0.00  0.00     0.064 H 
ATOM    167  H88 PRO d   1      -4.093 -13.883  -1.777  0.00  0.00     0.064 H 
BRANCH 157 168
ATOM    168  C   PRO d   1      -3.775 -10.412  -4.385  0.00  0.00     0.241 C 
ATOM    169  O   PRO d   1      -4.159  -9.836  -5.404  0.00  0.00    -0.271 OA
ATOM    170  N   LEU d   1      -3.060  -9.810  -3.441  0.00  0.00    -0.346 N 
ATOM    171  H89 LEU d   1      -2.779 -10.332  -2.635  0.00  0.00     0.163 HD
BRANCH 170 172
ATOM    172  CA  LEU d   1      -2.675  -8.407  -3.550  0.00  0.00     0.089 C 
ATOM    173  H90 LEU d   1      -2.104  -8.273  -4.481  0.00  0.00     0.087 H 
BRANCH 172 174
ATOM    174  C   LEU d   1      -1.794  -7.991  -2.377  0.00  0.00     0.241 C 
ATOM    175  O   LEU d   1      -2.115  -7.055  -1.645  0.00  0.00    -0.271 OA
ATOM    176  N   LYS d   1      -0.678  -8.692  -2.204  0.00  0.00    -0.346 N 
ATOM    177 0H10 LYS d   1      -0.472  -9.442  -2.832  0.00  0.00     0.163 HD
BRANCH 176 178
ATOM    178  CA  LYS d   1       0.253  -8.395  -1.122  0.00  0.00     0.089 C 
ATOM    179 1H10 LYS d   1      -0.255  -7.747  -0.392  0.00  0.00     0.087 H 
BRANCH 178 180
ATOM    180  C   LYS d   1       1.483  -7.662  -1.649  0.00  0.00     0.241 C 
ATOM    181  O   LYS d   1       2.383  -8.274  -2.225  0.00  0.00    -0.271 OA
ATOM    182  N   ILE d   1       1.514  -6.349  -1.447  0.00  0.00    -0.346 N 
ATOM    183 3H11 ILE d   1       0.751  -5.910  -0.973  0.00  0.00     0.163 HD
BRANCH 182 184
ATOM    184  CA  ILE d   1       2.634  -5.533  -1.900  0.00  0.00     0.092 C 
ATOM    185 4H11 ILE d   1       3.096  -6.036  -2.763  0.00  0.00     0.088 H 
BRANCH 184 186
ATOM    186  C   ILE d   1       3.685  -5.386  -0.804  0.00  0.00     0.241 C 
ATOM    187  O   ILE d   1       3.431  -4.775   0.234  0.00  0.00    -0.271 OA
ATOM    188  N   ARG d   1       4.865  -5.947  -1.045  0.00  0.00    -0.346 N 
ATOM    189 4H12 ARG d   1       5.009  -6.429  -1.909  0.00  0.00     0.163 HD
BRANCH 188 190
ATOM    190  CA  ARG d   1       5.955  -5.877  -0.079  0.00  0.00     0.089 C 
ATOM    191 5H12 ARG d   1       5.524  -5.734   0.923  0.00  0.00     0.087 H 
BRANCH 190 192
ATOM    192  C   ARG d   1       6.877  -4.700  -0.383  0.00  0.00     0.241 C 
ATOM    193  O   ARG d   1       7.654  -4.738  -1.338  0.00  0.00    -0.271 OA
ATOM    194  N   LEU d   1       6.785  -3.657   0.433  0.00  0.00    -0.346 N 
ATOM    195 7H13 LEU d   1       6.134  -3.687   1.191  0.00  0.00     0.163 HD
BRANCH 194 196
ATOM    196  CA  LEU d   1       7.611  -2.468   0.251  0.00  0.00     0.089 C 
ATOM    197 8H13 LEU d   1       7.991  -2.462  -0.781  0.00  0.00     0.087 H 
BRANCH 196 198
ATOM    198  C   LEU d   1       8.801  -2.480   1.206  0.00  0.00     0.241 C 
ATOM    199  O   LEU d   1       8.660  -2.796   2.388  0.00  0.00    -0.271 OA
ATOM    200  N   THR d   1       9.974  -2.132   0.686  0.00  0.00    -0.344 N 
ATOM    201 8H14 THR d   1      10.025  -1.885  -0.282  0.00  0.00     0.163 HD
BRANCH 200 202
ATOM    202  CA  THR d   1      11.188  -2.101   1.492  0.00  0.00     0.113 C 
ATOM    203 9H14 THR d   1      10.908  -1.839   2.523  0.00  0.00     0.091 H 
BRANCH 202 204
ATOM    204  C   THR d   1      12.166  -1.053   0.973  0.00  0.00     0.243 C 
ATOM    205  O   THR d   1      12.249  -0.810  -0.231  0.00  0.00    -0.271 OA
ATOM    206  N   ARG d   1      12.905  -0.435   1.888  0.00  0.00    -0.345 N 
ATOM    207 5H15 ARG d   1      12.791  -0.677   2.852  0.00  0.00     0.163 HD
BRANCH 206 208
ATOM    208  CA  ARG d   1      13.878   0.587   1.522  0.00  0.00     0.096 C 
ATOM    209 6H15 ARG d   1      13.335   1.468   1.151  0.00  0.00     0.089 H 
BRANCH 208 210
ATOM    210  C   ARG d   1      14.803   0.087   0.417  0.00  0.00     0.196 C 
ATOM    211  O   ARG d   1      16.022   0.239   0.498  0.00  0.00    -0.646 OA
ATOM    212  OXT ARG d   1      14.349  -0.478  -0.578  0.00  0.00    -0.646 OA
ENDBRANCH 208 210
BRANCH 208 213
ATOM    213  CB  ARG d   1      14.701   0.998   2.744  0.00  0.00    -0.035 C 
ATOM    214 7H15 ARG d   1      15.607   1.515   2.395  0.00  0.00     0.036 H 
ATOM    215 8H15 ARG d   1      14.986   0.088   3.293  0.00  0.00     0.036 H 
BRANCH 213 216
ATOM    216  CG  ARG d   1      13.959   1.921   3.697  0.00  0.00    -0.047 C 
ATOM    217 9H15 ARG d   1      13.063   1.404   4.070  0.00  0.00     0.035 H 
ATOM    218 0H16 ARG d   1      13.659   2.829   3.154  0.00  0.00     0.035 H 
BRANCH 216 219
ATOM    219  CD  ARG d   1      14.829   2.317   4.879  0.00  0.00     0.009 C 
ATOM    220 1H16 ARG d   1      14.691   1.580   5.684  0.00  0.00     0.064 H 
ATOM    221 2H16 ARG d   1      14.516   3.310   5.233  0.00  0.00     0.064 H 
BRANCH 219 222
ATOM    222  NE  ARG d   1      16.244   2.368   4.525  0.00  0.00    -0.227 N 
ATOM    223  CZ  ARG d   1      16.787   3.344   3.806  0.00  0.00     0.665 C 
ATOM    224  NH1 ARG d   1      16.037   4.345   3.367  0.00  0.00    -0.235 N 
ATOM    225  NH2 ARG d   1      18.084   3.320   3.524  0.00  0.00    -0.235 N 
ATOM    226 4H16 ARG d   1      16.461   5.100   2.810  0.00  0.00     0.174 HD
ATOM    227 5H16 ARG d   1      15.030   4.367   3.583  0.00  0.00     0.174 HD
ATOM    228 6H16 ARG d   1      18.671   2.544   3.863  0.00  0.00     0.174 HD
ATOM    229 7H16 ARG d   1      18.504   4.077   2.966  0.00  0.00     0.174 HD
ATOM    230 3H16 ARG d   1      16.855   1.605   4.851  0.00  0.00     0.177 HD
ENDBRANCH 219 222
ENDBRANCH 216 219
ENDBRANCH 213 216
ENDBRANCH 208 213
ENDBRANCH 206 208
ENDBRANCH 202 204
BRANCH 202 231
ATOM    231  CB  THR d   1      11.886  -3.474   1.509  0.00  0.00     0.060 C 
ATOM    232 0H15 THR d   1      12.689  -3.451   2.260  0.00  0.00     0.086 H 
BRANCH 231 233
ATOM    233  OG1 THR d   1      12.459  -3.748   0.226  0.00  0.00    -0.393 OA
ATOM    234 1H15 THR d   1      13.096  -3.076   0.015  0.00  0.00     0.210 HD
ENDBRANCH 231 233
BRANCH 231 235
ATOM    235  CG2 THR d   1      10.903  -4.576   1.877  0.00  0.00    -0.050 C 
ATOM    236 2H15 THR d   1      11.424  -5.545   1.883  0.00  0.00     0.031 H 
ATOM    237 3H15 THR d   1      10.088  -4.602   1.139  0.00  0.00     0.031 H 
ATOM    238 4H15 THR d   1      10.487  -4.378   2.876  0.00  0.00     0.031 H 
ENDBRANCH 231 235
ENDBRANCH 202 231
ENDBRANCH 200 202
ENDBRANCH 196 198
BRANCH 196 239
ATOM    239  CB  LEU d   1       6.777  -1.205   0.473  0.00  0.00    -0.035 C 
ATOM    240 9H13 LEU d   1       7.468  -0.383   0.713  0.00  0.00     0.037 H 
ATOM    241 0H14 LEU d   1       6.112  -1.387   1.330  0.00  0.00     0.037 H 
BRANCH 239 242
ATOM    242  CG  LEU d   1       5.910  -0.758  -0.704  0.00  0.00    -0.059 C 
ATOM    243 1H14 LEU d   1       6.538  -0.179  -1.397  0.00  0.00     0.038 H 
BRANCH 242 244
ATOM    244  CD1 LEU d   1       5.361  -1.963  -1.451  0.00  0.00    -0.073 C 
ATOM    245 2H14 LEU d   1       4.741  -1.621  -2.293  0.00  0.00     0.028 H 
ATOM    246 3H14 LEU d   1       4.749  -2.570  -0.768  0.00  0.00     0.028 H 
ATOM    247 4H14 LEU d   1       6.196  -2.569  -1.833  0.00  0.00     0.028 H 
ENDBRANCH 242 244
BRANCH 242 248
ATOM    248  CD2 LEU d   1       4.777   0.137  -0.223  0.00  0.00    -0.073 C 
ATOM    249 5H14 LEU d   1       5.195   1.001   0.314  0.00  0.00     0.028 H 
ATOM    250 6H14 LEU d   1       4.122  -0.432   0.453  0.00  0.00     0.028 H 
ATOM    251 7H14 LEU d   1       4.195   0.489  -1.088  0.00  0.00     0.028 H 
ENDBRANCH 242 248
ENDBRANCH 239 242
ENDBRANCH 196 239
ENDBRANCH 194 196
ENDBRANCH 190 192
BRANCH 190 252
ATOM    252  CB  ARG d   1       6.755  -7.181  -0.085  0.00  0.00    -0.036 C 
ATOM    253 6H12 ARG d   1       7.238  -7.288  -1.068  0.00  0.00     0.036 H 
ATOM    254 7H12 ARG d   1       6.058  -8.017   0.074  0.00  0.00     0.036 H 
BRANCH 252 255
ATOM    255  CG  ARG d   1       7.830  -7.241   0.987  0.00  0.00    -0.048 C 
ATOM    256 8H12 ARG d   1       7.810  -6.306   1.566  0.00  0.00     0.035 H 
ATOM    257 9H12 ARG d   1       8.812  -7.352   0.503  0.00  0.00     0.035 H 
BRANCH 255 258
ATOM    258  CD  ARG d   1       7.609  -8.412   1.932  0.00  0.00     0.009 C 
ATOM    259 0H13 ARG d   1       6.638  -8.875   1.702  0.00  0.00     0.064 H 
ATOM    260 1H13 ARG d   1       7.601  -8.037   2.966  0.00  0.00     0.064 H 
BRANCH 258 261
ATOM    261  NE  ARG d   1       8.656  -9.423   1.805  0.00  0.00    -0.227 N 
ATOM    262  CZ  ARG d   1       8.664 -10.357   0.861  0.00  0.00     0.665 C 
ATOM    263  NH1 ARG d   1       7.688 -10.409  -0.034  0.00  0.00    -0.235 N 
ATOM    264  NH2 ARG d   1       9.651 -11.242   0.811  0.00  0.00    -0.235 N 
ATOM    265 3H13 ARG d   1       7.697 -11.135  -0.765  0.00  0.00     0.174 HD
ATOM    266 4H13 ARG d   1       6.920  -9.724   0.001  0.00  0.00     0.174 HD
ATOM    267 5H13 ARG d   1      10.412 -11.205   1.505  0.00  0.00     0.174 HD
ATOM    268 6H13 ARG d   1       9.657 -11.966   0.079  0.00  0.00     0.174 HD
ATOM    269 2H13 ARG d   1       9.430  -9.411   2.485  0.00  0.00     0.177 HD
ENDBRANCH 258 261
ENDBRANCH 255 258
ENDBRANCH 252 255
ENDBRANCH 190 252
ENDBRANCH 188 190
ENDBRANCH 184 186
BRANCH 184 270
ATOM    270  CB  ILE d   1       2.169  -4.133  -2.342  0.00  0.00    -0.030 C 
ATOM    271 5H11 ILE d   1       2.034  -3.510  -1.445  0.00  0.00     0.043 H 
BRANCH 270 272
ATOM    272  CG1 ILE d   1       0.829  -4.225  -3.075  0.00  0.00    -0.063 C 
ATOM    273 6H11 ILE d   1       0.737  -5.232  -3.507  0.00  0.00     0.033 H 
ATOM    274 7H11 ILE d   1       0.822  -3.478  -3.882  0.00  0.00     0.033 H 
BRANCH 272 275
ATOM    275  CD1 ILE d   1      -0.366  -3.976  -2.183  0.00  0.00    -0.076 C 
ATOM    276 1H12 ILE d   1      -1.289  -4.058  -2.775  0.00  0.00     0.027 H 
ATOM    277 2H12 ILE d   1      -0.297  -2.967  -1.750  0.00  0.00     0.027 H 
ATOM    278 3H12 ILE d   1      -0.382  -4.722  -1.374  0.00  0.00     0.027 H 
ENDBRANCH 272 275
ENDBRANCH 270 272
BRANCH 270 279
ATOM    279  CG2 ILE d   1       3.220  -3.481  -3.227  0.00  0.00    -0.071 C 
ATOM    280 8H11 ILE d   1       4.174  -3.425  -2.682  0.00  0.00     0.028 H 
ATOM    281 9H11 ILE d   1       2.892  -2.467  -3.499  0.00  0.00     0.028 H 
ATOM    282 0H12 ILE d   1       3.354  -4.080  -4.140  0.00  0.00     0.028 H 
ENDBRANCH 270 279
ENDBRANCH 184 270
ENDBRANCH 182 184
ENDBRANCH 178 180
BRANCH 178 283
ATOM    283  CB  LYS d   1       0.679  -9.686  -0.419  0.00  0.00    -0.038 C 
ATOM    284 2H10 LYS d   1       1.095 -10.371  -1.172  0.00  0.00     0.036 H 
ATOM    285 3H10 LYS d   1      -0.211 -10.142   0.040  0.00  0.00     0.036 H 
BRANCH 283 286
ATOM    286  CG  LYS d   1       1.722  -9.473   0.664  0.00  0.00    -0.061 C 
ATOM    287 4H10 LYS d   1       1.264  -8.918   1.496  0.00  0.00     0.033 H 
ATOM    288 5H10 LYS d   1       2.555  -8.888   0.247  0.00  0.00     0.033 H 
BRANCH 286 289
ATOM    289  CD  LYS d   1       2.260 -10.794   1.188  0.00  0.00    -0.043 C 
ATOM    290 6H10 LYS d   1       3.264 -10.630   1.607  0.00  0.00     0.035 H 
ATOM    291 7H10 LYS d   1       2.322 -11.510   0.355  0.00  0.00     0.035 H 
BRANCH 289 292
ATOM    292  CE  LYS d   1       1.361 -11.372   2.271  0.00  0.00     0.080 C 
ATOM    293 8H10 LYS d   1       0.600 -12.010   1.798  0.00  0.00     0.075 H 
ATOM    294 9H10 LYS d   1       0.868 -10.545   2.803  0.00  0.00     0.075 H 
BRANCH 292 295
ATOM    295  NZ  LYS d   1       2.129 -12.186   3.253  0.00  0.00    -0.079 N 
ATOM    296 0H11 LYS d   1       1.501 -12.550   3.952  0.00  0.00     0.274 HD
ATOM    297 1H11 LYS d   1       2.826 -11.608   3.696  0.00  0.00     0.274 HD
ATOM    298 2H11 LYS d   1       2.580 -12.951   2.776  0.00  0.00     0.274 HD
ENDBRANCH 292 295
ENDBRANCH 289 292
ENDBRANCH 286 289
ENDBRANCH 283 286
ENDBRANCH 178 283
ENDBRANCH 176 178
ENDBRANCH 172 174
BRANCH 172 299
ATOM    299  CB  LEU d   1      -3.920  -7.519  -3.606  0.00  0.00    -0.035 C 
ATOM    300  H91 LEU d   1      -4.085  -7.107  -2.599  0.00  0.00     0.037 H 
ATOM    301  H92 LEU d   1      -4.774  -8.153  -3.887  0.00  0.00     0.037 H 
BRANCH 299 302
ATOM    302  CG  LEU d   1      -3.865  -6.348  -4.587  0.00  0.00    -0.059 C 
ATOM    303  H93 LEU d   1      -4.798  -5.773  -4.493  0.00  0.00     0.038 H 
BRANCH 302 304
ATOM    304  CD1 LEU d   1      -2.699  -5.429  -4.256  0.00  0.00    -0.073 C 
ATOM    305  H94 LEU d   1      -2.676  -4.594  -4.971  0.00  0.00     0.028 H 
ATOM    306  H95 LEU d   1      -1.757  -5.994  -4.321  0.00  0.00     0.028 H 
ATOM    307  H96 LEU d   1      -2.821  -5.035  -3.236  0.00  0.00     0.028 H 
ENDBRANCH 302 304
BRANCH 302 308
ATOM    308  CD2 LEU d   1      -3.756  -6.855  -6.018  0.00  0.00    -0.073 C 
ATOM    309  H97 LEU d   1      -4.607  -7.517  -6.238  0.00  0.00     0.028 H 
ATOM    310  H98 LEU d   1      -2.816  -7.413  -6.138  0.00  0.00     0.028 H 
ATOM    311  H99 LEU d   1      -3.767  -6.001  -6.711  0.00  0.00     0.028 H 
ENDBRANCH 302 308
ENDBRANCH 299 302
ENDBRANCH 172 299
ENDBRANCH 170 172
ENDBRANCH 157 168
ENDBRANCH   1 154
BRANCH   1 312
ATOM    312  CB  ASN d   1      -0.925 -12.349  -1.108  0.00  0.00     0.036 C 
ATOM    313  H78 ASN d   1      -1.511 -11.446  -1.334  0.00  0.00     0.051 H 
ATOM    314  H79 ASN d   1       0.145 -12.095  -1.082  0.00  0.00     0.051 H 
BRANCH 312 315
ATOM    315  CG  ASN d   1      -1.336 -12.868   0.257  0.00  0.00     0.217 C 
ATOM    316  OD1 ASN d   1      -2.216 -12.305   0.908  0.00  0.00    -0.274 OA
ATOM    317  ND2 ASN d   1      -0.698 -13.947   0.696  0.00  0.00    -0.370 N 
ATOM    318  H80 ASN d   1      -0.927 -14.334   1.589  0.00  0.00     0.159 HD
ATOM    319  H81 ASN d   1       0.011 -14.372   0.133  0.00  0.00     0.159 HD
ENDBRANCH 312 315
ENDBRANCH   1 312
TORSDOF 87
