REMARK WARNING: 32 MAX_TORS EXCEEDED!!!
REMARK  54 active torsions:
REMARK  status: ('A' for Active; 'I' for Inactive)
REMARK    1  A    between atoms: N_1  and  CA_2 
REMARK    2  A    between atoms: CA_2  and  C_3 
REMARK    3  A    between atoms: CA_2  and  CB_5 
REMARK       I    between atoms: C_3  and  N_6 
REMARK    4  A    between atoms: CA_7  and  C_8 
REMARK       I    between atoms: C_8  and  N_13 
REMARK    5  A    between atoms: N_13  and  CA_14 
REMARK    6  A    between atoms: CA_14  and  C_15 
REMARK    7  A    between atoms: CA_14  and  CB_17 
REMARK       I    between atoms: C_15  and  N_21 
REMARK    8  A    between atoms: CB_17  and  CG_18 
REMARK    9  A    between atoms: CG_18  and  CD1_19 
REMARK   10  A    between atoms: CG_18  and  CD2_20 
REMARK   11  A    between atoms: N_21  and  CA_22 
REMARK   12  A    between atoms: CA_22  and  CB_23 
REMARK   13  A    between atoms: CA_22  and  C_25 
REMARK   14  A    between atoms: CB_23  and  OG_24 
REMARK   15  A    between atoms: OG_24  and  P_27 
REMARK       I    between atoms: C_25  and  N_31 
REMARK   16  A    between atoms: CA_32  and  C_33 
REMARK       I    between atoms: C_33  and  N_38 
REMARK   17  A    between atoms: N_38  and  CA_39 
REMARK   18  A    between atoms: CA_39  and  C_40 
REMARK   19  A    between atoms: CA_39  and  CB_42 
REMARK       I    between atoms: C_40  and  N_46 
REMARK   20  A    between atoms: CB_42  and  CG_43 
REMARK   21  A    between atoms: CG_43  and  SD_44 
REMARK   22  A    between atoms: SD_44  and  CE_45 
REMARK   23  A    between atoms: N_46  and  CA_47 
REMARK   24  A    between atoms: CA_47  and  CB_48 
REMARK   25  A    between atoms: CA_47  and  C_50 
REMARK   26  A    between atoms: CB_48  and  OG_49 
REMARK   27  A    between atoms: OG_49  and  P_52 
REMARK       I    between atoms: C_50  and  N_56 
REMARK   28  A    between atoms: CA_57  and  C_58 
REMARK       I    between atoms: C_58  and  N_63 
REMARK   29  A    between atoms: CA_64  and  C_65 
REMARK       I    between atoms: C_65  and  N_70 
REMARK   30  A    between atoms: N_70  and  CA_71 
REMARK   31  A    between atoms: CA_71  and  C_72 
REMARK       I    between atoms: C_72  and  N_74 
REMARK   32  A    between atoms: N_74  and  CA_75 
REMARK   33  A    between atoms: CA_75  and  C_76 
REMARK   34  A    between atoms: CA_75  and  CB_78 
REMARK       I    between atoms: C_76  and  N_86 
REMARK   35  A    between atoms: CB_78  and  CG_79 
REMARK   36  A    between atoms: CZ_84  and  OH_85 
REMARK   37  A    between atoms: N_86  and  CA_87 
REMARK   38  A    between atoms: CA_87  and  C_88 
REMARK   39  A    between atoms: CA_87  and  CB_90 
REMARK       I    between atoms: C_88  and  N_95 
REMARK   40  A    between atoms: CB_90  and  CG_91 
REMARK   41  A    between atoms: CG_91  and  CD_92 
REMARK   42  A    between atoms: CD_92  and  CE_93 
REMARK   43  A    between atoms: CE_93  and  NZ_94 
REMARK   44  A    between atoms: N_95  and  CA_96 
REMARK   45  A    between atoms: CA_96  and  C_97 
REMARK   46  A    between atoms: CA_96  and  CB_99 
REMARK       I    between atoms: C_97  and  N_103 
REMARK   47  A    between atoms: CB_99  and  CG_100 
REMARK   48  A    between atoms: CG_100  and  CD1_101 
REMARK   49  A    between atoms: CG_100  and  CD2_102 
REMARK   50  A    between atoms: N_103  and  CA_104 
REMARK   51  A    between atoms: CA_104  and  C_105 
REMARK   52  A    between atoms: CA_104  and  CB_107 
REMARK   53  A    between atoms: CB_107  and  CG1_108 
REMARK   54  A    between atoms: CB_107  and  CG2_109 
ROOT
ATOM      1  N   PRO d   1       3.712  -7.894  -0.259  0.00  0.00    -0.337 N 
ATOM      2  CA  PRO d   1       5.103  -7.469  -0.178  0.00  0.00     0.092 C 
ATOM      3  CB  PRO d   1       5.171  -6.321  -1.182  0.00  0.00    -0.036 C 
ATOM      4  CG  PRO d   1       3.798  -5.728  -1.196  0.00  0.00    -0.048 C 
ATOM      5  CD  PRO d   1       2.840  -6.782  -0.683  0.00  0.00    -0.001 C 
ATOM      6  H50 PRO d   1       5.777  -8.287  -0.473  0.00  0.00     0.087 H 
ATOM      7  H51 PRO d   1       5.438  -6.697  -2.180  0.00  0.00     0.036 H 
ATOM      8  H52 PRO d   1       5.911  -5.572  -0.862  0.00  0.00     0.036 H 
ATOM      9  H53 PRO d   1       3.524  -5.439  -2.222  0.00  0.00     0.035 H 
ATOM     10  H54 PRO d   1       3.765  -4.842  -0.545  0.00  0.00     0.035 H 
ATOM     11  H55 PRO d   1       2.257  -6.398   0.167  0.00  0.00     0.064 H 
ATOM     12  H56 PRO d   1       2.155  -7.106  -1.480  0.00  0.00     0.064 H 
ATOM     13  C   SEP d   1       3.343  -9.163   0.031  0.00  0.00     0.245 C 
ATOM     14  O   SEP d   1       4.182 -10.015   0.329  0.00  0.00    -0.271 OA
ENDROOT
BRANCH  13  15
ATOM     15  CA  SEP d   1       1.853  -9.547   0.005  0.00  0.00     0.110 C 
ATOM     16  H47 SEP d   1       1.765 -10.561   0.422  0.00  0.00     0.090 H 
BRANCH  15  17
ATOM     17  N   SEP d   1       1.051  -8.655   0.829  0.00  0.00    -0.344 N 
ATOM     18  C   MET d   1       0.790  -8.932   2.097  0.00  0.00     0.241 C 
ATOM     19  O   MET d   1       1.184  -9.959   2.651  0.00  0.00    -0.271 OA
ATOM     20  H46 SEP d   1       0.689  -7.814   0.428  0.00  0.00     0.163 HD
BRANCH  18  21
ATOM     21  CA  MET d   1      -0.043  -7.906   2.852  0.00  0.00     0.090 C 
ATOM     22  H38 MET d   1      -0.389  -7.144   2.139  0.00  0.00     0.087 H 
BRANCH  21  23
ATOM     23  N   MET d   1      -1.211  -8.531   3.462  0.00  0.00    -0.346 N 
ATOM     24  C   PRO d   1      -2.348  -8.694   2.796  0.00  0.00     0.241 C 
ATOM     25  O   PRO d   1      -2.488  -8.372   1.615  0.00  0.00    -0.271 OA
ATOM     26  H37 MET d   1      -1.154  -8.846   4.409  0.00  0.00     0.163 HD
BRANCH  24  27
ATOM     27  CA  PRO d   1      -3.507  -9.306   3.587  0.00  0.00     0.091 C 
ATOM     28  N   PRO d   1      -4.714  -8.473   3.531  0.00  0.00    -0.337 N 
ATOM     29  C   SEP d   1      -4.797  -7.269   4.130  0.00  0.00     0.245 C 
ATOM     30  CD  PRO d   1      -5.791  -9.109   2.751  0.00  0.00    -0.001 C 
ATOM     31  O   SEP d   1      -3.866  -6.808   4.789  0.00  0.00    -0.271 OA
ATOM     32  CG  PRO d   1      -5.113 -10.286   2.098  0.00  0.00    -0.048 C 
ATOM     33  H35 PRO d   1      -6.189  -8.416   1.995  0.00  0.00     0.064 H 
ATOM     34  H36 PRO d   1      -6.607  -9.442   3.409  0.00  0.00     0.064 H 
ATOM     35  CB  PRO d   1      -3.954 -10.635   2.967  0.00  0.00    -0.036 C 
ATOM     36  H33 PRO d   1      -5.808 -11.136   2.030  0.00  0.00     0.035 H 
ATOM     37  H34 PRO d   1      -4.766 -10.015   1.090  0.00  0.00     0.035 H 
ATOM     38  H31 PRO d   1      -4.258 -11.344   3.751  0.00  0.00     0.036 H 
ATOM     39  H32 PRO d   1      -3.142 -11.075   2.370  0.00  0.00     0.036 H 
ATOM     40  H30 PRO d   1      -3.190  -9.452   4.630  0.00  0.00     0.087 H 
BRANCH  29  41
ATOM     41  CA  SEP d   1      -6.110  -6.493   3.980  0.00  0.00     0.110 C 
ATOM     42  H27 SEP d   1      -6.912  -7.211   3.752  0.00  0.00     0.090 H 
BRANCH  41  43
ATOM     43  N   SEP d   1      -6.452  -5.787   5.212  0.00  0.00    -0.344 N 
ATOM     44  C   LEU d   1      -7.075  -6.381   6.222  0.00  0.00     0.241 C 
ATOM     45  O   LEU d   1      -7.392  -7.573   6.217  0.00  0.00    -0.271 OA
ATOM     46  H26 SEP d   1      -6.208  -4.821   5.298  0.00  0.00     0.163 HD
BRANCH  44  47
ATOM     47  CA  LEU d   1      -7.394  -5.499   7.423  0.00  0.00     0.089 C 
ATOM     48  H16 LEU d   1      -7.444  -4.453   7.087  0.00  0.00     0.087 H 
BRANCH  47  49
ATOM     49  N   LEU d   1      -8.683  -5.864   8.001  0.00  0.00    -0.346 N 
ATOM     50  C   PRO d   1      -9.759  -5.101   7.869  0.00  0.00     0.241 C 
ATOM     51  O   PRO d   1      -9.757  -4.039   7.243  0.00  0.00    -0.271 OA
ATOM     52  H15 LEU d   1      -8.757  -6.719   8.514  0.00  0.00     0.163 HD
BRANCH  50  53
ATOM     53  CA  PRO d   1     -11.027  -5.611   8.563  0.00  0.00     0.091 C 
ATOM     54  N   PRO d   1     -10.863  -6.959   9.115  0.00  0.00    -0.337 N 
ATOM     55  C   ALA d   1     -11.121  -8.074   8.410  0.00  0.00     0.250 C 
ATOM     56  CD  PRO d   1     -10.413  -6.918  10.523  0.00  0.00    -0.001 C 
ATOM     57  O   ALA d   1     -11.551  -8.037   7.258  0.00  0.00    -0.271 OA
ATOM     58  CG  PRO d   1     -10.547  -5.459  10.905  0.00  0.00    -0.048 C 
ATOM     59  H13 PRO d   1      -9.368  -7.251  10.610  0.00  0.00     0.064 H 
ATOM     60  H14 PRO d   1     -11.053  -7.549  11.157  0.00  0.00     0.064 H 
ATOM     61  CB  PRO d   1     -11.319  -4.786   9.815  0.00  0.00    -0.036 C 
ATOM     62  H11 PRO d   1     -11.085  -5.367  11.860  0.00  0.00     0.035 H 
ATOM     63  H12 PRO d   1      -9.551  -5.001  11.000  0.00  0.00     0.035 H 
ATOM     64  H9  PRO d   1     -12.395  -4.793  10.041  0.00  0.00     0.036 H 
ATOM     65  H10 PRO d   1     -10.979  -3.748   9.683  0.00  0.00     0.036 H 
ATOM     66  H8  PRO d   1     -11.868  -5.576   7.855  0.00  0.00     0.087 H 
BRANCH  55  67
ATOM     67  CA  ALA d   1     -10.873  -9.406   9.100  0.00  0.00     0.172 C 
ATOM     68  H4  ALA d   1     -10.242  -9.227   9.983  0.00  0.00     0.098 H 
BRANCH  67  69
ATOM     69  N   ALA d   1     -12.144 -10.010   9.550  0.00  0.00    -0.067 N 
ATOM     70  H1  ALA d   1     -11.956 -10.890  10.004  0.00  0.00     0.275 HD
ATOM     71  H2  ALA d   1     -12.743 -10.164   8.754  0.00  0.00     0.275 HD
ATOM     72  H3  ALA d   1     -12.600  -9.388  10.199  0.00  0.00     0.275 HD
ENDBRANCH  67  69
BRANCH  67  73
ATOM     73  CB  ALA d   1     -10.136 -10.356   8.164  0.00  0.00    -0.042 C 
ATOM     74  H5  ALA d   1      -9.193  -9.892   7.838  0.00  0.00     0.030 H 
ATOM     75  H6  ALA d   1     -10.764 -10.566   7.285  0.00  0.00     0.030 H 
ATOM     76  H7  ALA d   1      -9.919 -11.296   8.692  0.00  0.00     0.030 H 
ENDBRANCH  67  73
ENDBRANCH  55  67
ENDBRANCH  50  53
ENDBRANCH  47  49
BRANCH  47  77
ATOM     77  CB  LEU d   1      -6.286  -5.624   8.474  0.00  0.00    -0.035 C 
ATOM     78  H17 LEU d   1      -5.381  -5.995   7.970  0.00  0.00     0.037 H 
ATOM     79  H18 LEU d   1      -6.614  -6.357   9.226  0.00  0.00     0.037 H 
BRANCH  77  80
ATOM     80  CG  LEU d   1      -5.919  -4.326   9.209  0.00  0.00    -0.059 C 
ATOM     81  H19 LEU d   1      -5.547  -3.607   8.464  0.00  0.00     0.038 H 
BRANCH  80  82
ATOM     82  CD1 LEU d   1      -7.128  -3.709   9.893  0.00  0.00    -0.073 C 
ATOM     83  H20 LEU d   1      -6.826  -2.784  10.407  0.00  0.00     0.028 H 
ATOM     84  H21 LEU d   1      -7.537  -4.420  10.627  0.00  0.00     0.028 H 
ATOM     85  H22 LEU d   1      -7.896  -3.477   9.141  0.00  0.00     0.028 H 
ENDBRANCH  80  82
BRANCH  80  86
ATOM     86  CD2 LEU d   1      -4.808  -4.587  10.213  0.00  0.00    -0.073 C 
ATOM     87  H23 LEU d   1      -3.945  -5.033   9.697  0.00  0.00     0.028 H 
ATOM     88  H24 LEU d   1      -5.169  -5.279  10.988  0.00  0.00     0.028 H 
ATOM     89  H25 LEU d   1      -4.506  -3.638  10.681  0.00  0.00     0.028 H 
ENDBRANCH  80  86
ENDBRANCH  77  80
ENDBRANCH  47  77
ENDBRANCH  44  47
ENDBRANCH  41  43
BRANCH  41  90
ATOM     90  CB  SEP d   1      -6.015  -5.483   2.837  0.00  0.00     0.059 C 
ATOM     91  H28 SEP d   1      -5.759  -6.007   1.904  0.00  0.00     0.079 H 
ATOM     92  H29 SEP d   1      -5.236  -4.741   3.066  0.00  0.00     0.079 H 
BRANCH  90  93
ATOM     93  OG  SEP d   1      -7.274  -4.823   2.684  0.00  0.00    -0.280 OA
BRANCH  93  94
ATOM     94  P   SEP d   1      -7.111  -3.779   1.478  0.00  0.00     0.422 P 
ATOM     95  O1P SEP d   1      -6.733  -4.494   0.239  0.00  0.00    -0.617 OA
ATOM     96  O2P SEP d   1      -8.501  -2.999   1.252  0.00  0.00    -0.617 OA
ATOM     97  O3P SEP d   1      -5.965  -2.723   1.849  0.00  0.00    -0.617 OA
ENDBRANCH  93  94
ENDBRANCH  90  93
ENDBRANCH  41  90
ENDBRANCH  29  41
ENDBRANCH  24  27
ENDBRANCH  21  23
BRANCH  21  98
ATOM     98  CB  MET d   1       0.818  -7.220   3.923  0.00  0.00    -0.030 C 
ATOM     99  H39 MET d   1       1.643  -6.693   3.421  0.00  0.00     0.037 H 
ATOM    100  H40 MET d   1       1.228  -7.994   4.588  0.00  0.00     0.037 H 
BRANCH  98 101
ATOM    101  CG  MET d   1       0.052  -6.218   4.768  0.00  0.00    -0.021 C 
ATOM    102  H41 MET d   1      -0.686  -6.763   5.374  0.00  0.00     0.049 H 
ATOM    103  H42 MET d   1      -0.469  -5.519   4.097  0.00  0.00     0.049 H 
BRANCH 101 104
ATOM    104  SD  MET d   1       1.114  -5.268   5.874  0.00  0.00    -0.173 SA
BRANCH 104 105
ATOM    105  CE  MET d   1       1.879  -6.580   6.829  0.00  0.00    -0.035 C 
ATOM    106  H43 MET d   1       2.571  -6.143   7.564  0.00  0.00     0.041 H 
ATOM    107  H44 MET d   1       2.435  -7.248   6.155  0.00  0.00     0.041 H 
ATOM    108  H45 MET d   1       1.101  -7.153   7.354  0.00  0.00     0.041 H 
ENDBRANCH 104 105
ENDBRANCH 101 104
ENDBRANCH  98 101
ENDBRANCH  21  98
ENDBRANCH  18  21
ENDBRANCH  15  17
BRANCH  15 109
ATOM    109  CB  SEP d   1       1.304  -9.578  -1.422  0.00  0.00     0.059 C 
ATOM    110  H48 SEP d   1       1.915 -10.255  -2.038  0.00  0.00     0.079 H 
ATOM    111  H49 SEP d   1       1.334  -8.565  -1.851  0.00  0.00     0.079 H 
BRANCH 109 112
ATOM    112  OG  SEP d   1      -0.049 -10.047  -1.392  0.00  0.00    -0.280 OA
BRANCH 112 113
ATOM    113  P   SEP d   1      -0.573 -10.053  -2.904  0.00  0.00     0.422 P 
ATOM    114  O1P SEP d   1       0.281 -10.934  -3.730  0.00  0.00    -0.617 OA
ATOM    115  O2P SEP d   1      -2.094 -10.573  -2.955  0.00  0.00    -0.617 OA
ATOM    116  O3P SEP d   1      -0.514  -8.559  -3.497  0.00  0.00    -0.617 OA
ENDBRANCH 112 113
ENDBRANCH 109 112
ENDBRANCH  15 109
ENDBRANCH  13  15
BRANCH   2 117
ATOM    117  C   PRO d   1       5.478  -6.996   1.230  0.00  0.00     0.243 C 
ATOM    118  O   PRO d   1       4.637  -6.476   1.965  0.00  0.00    -0.271 OA
ATOM    119  N   PRO d   1       6.749  -7.188   1.623  0.00  0.00    -0.337 N 
ATOM    120  CA  PRO d   1       7.248  -6.809   2.954  0.00  0.00     0.091 C 
ATOM    121  CD  PRO d   1       7.808  -7.787   0.795  0.00  0.00    -0.001 C 
ATOM    122  CB  PRO d   1       8.615  -7.497   3.009  0.00  0.00    -0.036 C 
ATOM    123  H57 PRO d   1       6.579  -7.186   3.741  0.00  0.00     0.087 H 
ATOM    124  CG  PRO d   1       9.052  -7.513   1.589  0.00  0.00    -0.048 C 
ATOM    125  H58 PRO d   1       8.525  -8.520   3.404  0.00  0.00     0.036 H 
ATOM    126  H59 PRO d   1       9.319  -6.924   3.631  0.00  0.00     0.036 H 
ATOM    127  H60 PRO d   1       9.797  -8.306   1.424  0.00  0.00     0.035 H 
ATOM    128  H61 PRO d   1       9.482  -6.541   1.307  0.00  0.00     0.035 H 
ATOM    129  H62 PRO d   1       7.856  -7.307  -0.194  0.00  0.00     0.064 H 
ATOM    130  H63 PRO d   1       7.649  -8.868   0.670  0.00  0.00     0.064 H 
BRANCH 120 131
ATOM    131  C   PRO d   1       7.420  -5.296   3.119  0.00  0.00     0.241 C 
ATOM    132  O   PRO d   1       7.065  -4.517   2.240  0.00  0.00    -0.271 OA
ATOM    133  N   GLY d   1       7.970  -4.892   4.256  0.00  0.00    -0.351 N 
ATOM    134  H64 GLY d   1       8.187  -5.563   4.965  0.00  0.00     0.163 HD
BRANCH 133 135
ATOM    135  CA  GLY d   1       8.261  -3.491   4.485  0.00  0.00     0.069 C 
ATOM    136  H65 GLY d   1       8.025  -2.926   3.571  0.00  0.00     0.078 H 
ATOM    137  H66 GLY d   1       9.331  -3.384   4.716  0.00  0.00     0.078 H 
BRANCH 135 138
ATOM    138  C   GLY d   1       7.455  -2.921   5.632  0.00  0.00     0.236 C 
ATOM    139  O   GLY d   1       8.014  -2.443   6.622  0.00  0.00    -0.272 OA
ATOM    140  N   TYR d   1       6.139  -2.984   5.508  0.00  0.00    -0.346 N 
ATOM    141  H67 TYR d   1       5.745  -3.391   4.684  0.00  0.00     0.163 HD
BRANCH 140 142
ATOM    142  CA  TYR d   1       5.252  -2.475   6.544  0.00  0.00     0.093 C 
ATOM    143  H68 TYR d   1       5.718  -1.600   7.021  0.00  0.00     0.088 H 
BRANCH 142 144
ATOM    144  C   TYR d   1       5.041  -3.556   7.590  0.00  0.00     0.241 C 
ATOM    145  O   TYR d   1       4.622  -4.662   7.257  0.00  0.00    -0.271 OA
ATOM    146  N   LYS d   1       5.369  -3.228   8.841  0.00  0.00    -0.346 N 
ATOM    147  H76 LYS d   1       5.654  -2.288   9.029  0.00  0.00     0.163 HD
BRANCH 146 148
ATOM    148  CA  LYS d   1       5.330  -4.184   9.952  0.00  0.00     0.089 C 
ATOM    149  H77 LYS d   1       5.469  -3.628  10.891  0.00  0.00     0.087 H 
BRANCH 148 150
ATOM    150  C   LYS d   1       6.467  -5.201   9.819  0.00  0.00     0.241 C 
ATOM    151  O   LYS d   1       6.561  -6.153  10.598  0.00  0.00    -0.271 OA
ATOM    152  N   LEU d   1       7.343  -4.952   8.842  0.00  0.00    -0.346 N 
ATOM    153  H89 LEU d   1       7.226  -4.117   8.305  0.00  0.00     0.163 HD
BRANCH 152 154
ATOM    154  CA  LEU d   1       8.463  -5.831   8.514  0.00  0.00     0.089 C 
ATOM    155  H90 LEU d   1       9.056  -5.333   7.733  0.00  0.00     0.087 H 
BRANCH 154 156
ATOM    156  C   LEU d   1       7.978  -7.162   7.946  0.00  0.00     0.241 C 
ATOM    157  O   LEU d   1       7.940  -7.333   6.726  0.00  0.00    -0.271 OA
ATOM    158  N   VAL d   1       7.608  -8.093   8.821  0.00  0.00    -0.344 N 
ATOM    159 0H10 VAL d   1       7.666  -7.888   9.798  0.00  0.00     0.163 HD
BRANCH 158 160
ATOM    160  CA  VAL d   1       7.120  -9.404   8.402  0.00  0.00     0.099 C 
ATOM    161 1H10 VAL d   1       6.699  -9.308   7.390  0.00  0.00     0.090 H 
BRANCH 160 162
ATOM    162  C   VAL d   1       6.029  -9.884   9.353  0.00  0.00     0.197 C 
ATOM    163  O   VAL d   1       6.350 -10.120  10.540  0.00  0.00    -0.646 OA
ATOM    164  OXT VAL d   1       4.871 -10.025   8.920  0.00  0.00    -0.646 OA
ENDBRANCH 160 162
BRANCH 160 165
ATOM    165  CB  VAL d   1       8.241 -10.472   8.371  0.00  0.00    -0.032 C 
ATOM    166 2H10 VAL d   1       8.650 -10.562   9.388  0.00  0.00     0.042 H 
BRANCH 165 167
ATOM    167  CG1 VAL d   1       7.683 -11.828   7.965  0.00  0.00    -0.071 C 
ATOM    168 3H10 VAL d   1       8.496 -12.569   7.950  0.00  0.00     0.028 H 
ATOM    169 4H10 VAL d   1       7.235 -11.755   6.963  0.00  0.00     0.028 H 
ATOM    170 5H10 VAL d   1       6.915 -12.140   8.688  0.00  0.00     0.028 H 
ENDBRANCH 165 167
BRANCH 165 171
ATOM    171  CG2 VAL d   1       9.374 -10.067   7.447  0.00  0.00    -0.071 C 
ATOM    172 6H10 VAL d   1       9.765  -9.086   7.755  0.00  0.00     0.028 H 
ATOM    173 7H10 VAL d   1       9.001 -10.005   6.414  0.00  0.00     0.028 H 
ATOM    174 8H10 VAL d   1      10.178 -10.816   7.502  0.00  0.00     0.028 H 
ENDBRANCH 165 171
ENDBRANCH 160 165
ENDBRANCH 158 160
ENDBRANCH 154 156
BRANCH 154 175
ATOM    175  CB  LEU d   1       9.381  -6.047   9.725  0.00  0.00    -0.035 C 
ATOM    176  H91 LEU d   1      10.165  -6.762   9.435  0.00  0.00     0.037 H 
ATOM    177  H92 LEU d   1       8.777  -6.475  10.539  0.00  0.00     0.037 H 
BRANCH 175 178
ATOM    178  CG  LEU d   1      10.064  -4.783  10.256  0.00  0.00    -0.059 C 
ATOM    179  H93 LEU d   1       9.284  -4.069  10.558  0.00  0.00     0.038 H 
BRANCH 178 180
ATOM    180  CD1 LEU d   1      10.917  -5.106  11.473  0.00  0.00    -0.073 C 
ATOM    181  H94 LEU d   1      11.398  -4.186  11.838  0.00  0.00     0.028 H 
ATOM    182  H95 LEU d   1      11.689  -5.838  11.195  0.00  0.00     0.028 H 
ATOM    183  H96 LEU d   1      10.281  -5.527  12.266  0.00  0.00     0.028 H 
ENDBRANCH 178 180
BRANCH 178 184
ATOM    184  CD2 LEU d   1      10.914  -4.134   9.173  0.00  0.00    -0.073 C 
ATOM    185  H97 LEU d   1      10.284  -3.906   8.300  0.00  0.00     0.028 H 
ATOM    186  H98 LEU d   1      11.718  -4.823   8.876  0.00  0.00     0.028 H 
ATOM    187  H99 LEU d   1      11.354  -3.203   9.561  0.00  0.00     0.028 H 
ENDBRANCH 178 184
ENDBRANCH 175 178
ENDBRANCH 154 175
ENDBRANCH 152 154
ENDBRANCH 148 150
BRANCH 148 188
ATOM    188  CB  LYS d   1       3.975  -4.903  10.014  0.00  0.00    -0.038 C 
ATOM    189  H78 LYS d   1       4.018  -5.655  10.816  0.00  0.00     0.036 H 
ATOM    190  H79 LYS d   1       3.804  -5.404   9.050  0.00  0.00     0.036 H 
BRANCH 188 191
ATOM    191  CG  LYS d   1       2.801  -3.976  10.288  0.00  0.00    -0.061 C 
ATOM    192  H80 LYS d   1       1.863  -4.526  10.120  0.00  0.00     0.033 H 
ATOM    193  H81 LYS d   1       2.853  -3.119   9.600  0.00  0.00     0.033 H 
BRANCH 191 194
ATOM    194  CD  LYS d   1       2.825  -3.465  11.717  0.00  0.00    -0.043 C 
ATOM    195  H82 LYS d   1       3.788  -2.967  11.902  0.00  0.00     0.035 H 
ATOM    196  H83 LYS d   1       2.716  -4.318  12.403  0.00  0.00     0.035 H 
BRANCH 194 197
ATOM    197  CE  LYS d   1       1.701  -2.476  11.978  0.00  0.00     0.080 C 
ATOM    198  H84 LYS d   1       0.750  -2.924  11.653  0.00  0.00     0.075 H 
ATOM    199  H85 LYS d   1       1.891  -1.560  11.399  0.00  0.00     0.075 H 
BRANCH 197 200
ATOM    200  NZ  LYS d   1       1.598  -2.122  13.415  0.00  0.00    -0.079 N 
ATOM    201  H86 LYS d   1       0.844  -1.466  13.546  0.00  0.00     0.274 HD
ATOM    202  H87 LYS d   1       2.463  -1.705  13.721  0.00  0.00     0.274 HD
ATOM    203  H88 LYS d   1       1.417  -2.954  13.954  0.00  0.00     0.274 HD
ENDBRANCH 197 200
ENDBRANCH 194 197
ENDBRANCH 191 194
ENDBRANCH 188 191
ENDBRANCH 148 188
ENDBRANCH 146 148
ENDBRANCH 142 144
BRANCH 142 204
ATOM    204  CB  TYR d   1       3.918  -2.052   5.930  0.00  0.00    -0.014 C 
ATOM    205  H69 TYR d   1       3.260  -2.933   5.900  0.00  0.00     0.043 H 
ATOM    206  H70 TYR d   1       4.109  -1.701   4.905  0.00  0.00     0.043 H 
BRANCH 204 207
ATOM    207  CG  TYR d   1       3.200  -0.956   6.675  0.00  0.00    -0.056 A 
ATOM    208  CD1 TYR d   1       3.662   0.354   6.653  0.00  0.00    -0.074 A 
ATOM    209  CE1 TYR d   1       2.978   1.357   7.309  0.00  0.00    -0.051 A 
ATOM    210  H71 TYR d   1       4.572   0.591   6.113  0.00  0.00     0.084 H 
ATOM    211  CZ  TYR d   1       1.826   1.055   8.001  0.00  0.00     0.065 A 
ATOM    212  H73 TYR d   1       3.345   2.377   7.280  0.00  0.00     0.087 H 
ATOM    213  CE2 TYR d   1       1.351  -0.238   8.039  0.00  0.00    -0.051 A 
ATOM    214  CD2 TYR d   1       2.037  -1.232   7.376  0.00  0.00    -0.074 A 
ATOM    215  H74 TYR d   1       0.445  -0.471   8.586  0.00  0.00     0.087 H 
ATOM    216  H72 TYR d   1       1.660  -2.248   7.403  0.00  0.00     0.084 H 
BRANCH 211 217
ATOM    217  OH  TYR d   1       1.142   2.055   8.649  0.00  0.00    -0.361 OA
ATOM    218  H75 TYR d   1       1.598   2.880   8.526  0.00  0.00     0.217 HD
ENDBRANCH 211 217
ENDBRANCH 204 207
ENDBRANCH 142 204
ENDBRANCH 140 142
ENDBRANCH 135 138
ENDBRANCH 133 135
ENDBRANCH 120 131
ENDBRANCH   2 117
TORSDOF 54
