REMARK WARNING: 32 MAX_TORS EXCEEDED!!!
REMARK  59 active torsions:
REMARK  status: ('A' for Active; 'I' for Inactive)
REMARK    1  A    between atoms: C_1  and  CH3_3 
REMARK       I    between atoms: C_1  and  N_4 
REMARK    2  A    between atoms: N_4  and  CA_5 
REMARK    3  A    between atoms: CA_5  and  C_6 
REMARK    4  A    between atoms: CA_5  and  CB_8 
REMARK       I    between atoms: C_6  and  N_13 
REMARK    5  A    between atoms: CB_8  and  CG_9 
REMARK    6  A    between atoms: CG_9  and  CD_10 
REMARK    7  A    between atoms: N_13  and  CA_14 
REMARK    8  A    between atoms: CA_14  and  C_15 
REMARK    9  A    between atoms: CA_14  and  CB_17 
REMARK       I    between atoms: C_15  and  N_21 
REMARK   10  A    between atoms: CB_17  and  CG_18 
REMARK   11  A    between atoms: N_21  and  CA_22 
REMARK   12  A    between atoms: CA_22  and  C_23 
REMARK   13  A    between atoms: CA_22  and  CB_25 
REMARK       I    between atoms: C_23  and  N_26 
REMARK   14  A    between atoms: N_26  and  CA_27 
REMARK   15  A    between atoms: CA_27  and  C_28 
REMARK   16  A    between atoms: CA_27  and  CB_30 
REMARK       I    between atoms: C_28  and  N_37 
REMARK   17  A    between atoms: CB_30  and  CG_31 
REMARK   18  A    between atoms: N_37  and  CA_38 
REMARK   19  A    between atoms: CA_38  and  C_39 
REMARK   20  A    between atoms: CA_38  and  CB_41 
REMARK       I    between atoms: C_39  and  N_45 
REMARK   21  A    between atoms: CB_41  and  CG1_42 
REMARK   22  A    between atoms: CB_41  and  CG2_43 
REMARK   23  A    between atoms: CG1_42  and  CD1_44 
REMARK   24  A    between atoms: N_45  and  CA_46 
REMARK   25  A    between atoms: CA_46  and  C_47 
REMARK   26  A    between atoms: CA_46  and  CB_49 
REMARK       I    between atoms: C_47  and  N_52 
REMARK   27  A    between atoms: CB_49  and  CG1_50 
REMARK   28  A    between atoms: CB_49  and  CG2_51 
REMARK   29  A    between atoms: N_52  and  CA_53 
REMARK   30  A    between atoms: CA_53  and  C_54 
REMARK   31  A    between atoms: CA_53  and  CB_56 
REMARK       I    between atoms: C_54  and  N_60 
REMARK   32  A    between atoms: CB_56  and  CG1_57 
REMARK   33  A    between atoms: CB_56  and  CG2_58 
REMARK   34  A    between atoms: CG1_57  and  CD1_59 
REMARK   35  A    between atoms: N_60  and  CA_61 
REMARK   36  A    between atoms: CA_61  and  CB_62 
REMARK   37  A    between atoms: CA_61  and  C_64 
REMARK   38  A    between atoms: CB_62  and  OG_63 
REMARK   39  A    between atoms: OG_63  and  P_66 
REMARK       I    between atoms: C_64  and  N_70 
REMARK   40  A    between atoms: N_70  and  CA_71 
REMARK   41  A    between atoms: CA_71  and  C_72 
REMARK   42  A    between atoms: CA_71  and  CB_74 
REMARK       I    between atoms: C_72  and  N_78 
REMARK   43  A    between atoms: CB_74  and  CG_75 
REMARK   44  A    between atoms: N_78  and  CA_79 
REMARK   45  A    between atoms: CA_79  and  CB_80 
REMARK   46  A    between atoms: CA_79  and  C_82 
REMARK   47  A    between atoms: CB_80  and  OG_81 
REMARK   48  A    between atoms: OG_81  and  P_84 
REMARK       I    between atoms: C_82  and  N_88 
REMARK   49  A    between atoms: N_88  and  CA_89 
REMARK   50  A    between atoms: CA_89  and  C_90 
REMARK   51  A    between atoms: CA_89  and  CB_92 
REMARK       I    between atoms: C_90  and  N_96 
REMARK   52  A    between atoms: CB_92  and  CG_93 
REMARK   53  A    between atoms: N_96  and  CA_97 
REMARK   54  A    between atoms: CA_97  and  C_98 
REMARK       I    between atoms: C_98  and  N_100 
REMARK   55  A    between atoms: N_100  and  CA_101 
REMARK   56  A    between atoms: CA_101  and  C_102 
REMARK   57  A    between atoms: CA_101  and  CB_104 
REMARK       I    between atoms: C_102  and  N_109 
REMARK   58  A    between atoms: CB_104  and  CG_105 
REMARK   59  A    between atoms: CG_105  and  CD_106 
ROOT
ATOM      1  N   ILE d   1      17.679   1.652 -37.182  0.00  0.00    -0.346 N 
ATOM      2  H48 ILE d   1      17.032   1.925 -36.470  0.00  0.00     0.163 HD
ATOM      3  C   VAL d   1      17.285   1.822 -38.465  0.00  0.00     0.241 C 
ATOM      4  O   VAL d   1      18.018   1.348 -39.349  0.00  0.00    -0.271 OA
ENDROOT
BRANCH   3   5
ATOM      5  CA  VAL d   1      16.148   2.762 -38.751  0.00  0.00     0.092 C 
ATOM      6  H40 VAL d   1      15.831   3.226 -37.805  0.00  0.00     0.088 H 
BRANCH   5   7
ATOM      7  N   VAL d   1      16.548   3.824 -39.681  0.00  0.00    -0.346 N 
ATOM      8  C   ILE d   1      16.506   5.065 -39.355  0.00  0.00     0.241 C 
ATOM      9  O   ILE d   1      16.311   5.476 -38.190  0.00  0.00    -0.271 OA
ATOM     10  H39 VAL d   1      16.863   3.574 -40.596  0.00  0.00     0.163 HD
BRANCH   8  11
ATOM     11  CA  ILE d   1      16.818   6.172 -40.417  0.00  0.00     0.092 C 
ATOM     12  H29 ILE d   1      16.681   5.738 -41.418  0.00  0.00     0.088 H 
BRANCH  11  13
ATOM     13  N   ILE d   1      15.876   7.237 -40.278  0.00  0.00    -0.346 N 
ATOM     14  C   PHE d   1      15.397   7.913 -41.267  0.00  0.00     0.241 C 
ATOM     15  O   PHE d   1      15.755   7.846 -42.453  0.00  0.00    -0.271 OA
ATOM     16  H28 ILE d   1      15.569   7.473 -39.356  0.00  0.00     0.163 HD
BRANCH  14  17
ATOM     17  CA  PHE d   1      14.472   9.021 -40.920  0.00  0.00     0.093 C 
ATOM     18  H20 PHE d   1      14.391   9.092 -39.825  0.00  0.00     0.088 H 
BRANCH  17  19
ATOM     19  N   PHE d   1      15.005  10.280 -41.485  0.00  0.00    -0.346 N 
ATOM     20  C   ALA d   1      14.490  11.462 -41.154  0.00  0.00     0.240 C 
ATOM     21  O   ALA d   1      13.852  11.571 -40.059  0.00  0.00    -0.271 OA
ATOM     22  H19 PHE d   1      15.769  10.242 -42.130  0.00  0.00     0.163 HD
BRANCH  20  23
ATOM     23  CA  ALA d   1      14.781  12.671 -42.102  0.00  0.00     0.086 C 
ATOM     24  H15 ALA d   1      15.869  12.806 -42.188  0.00  0.00     0.086 H 
BRANCH  23  25
ATOM     25  N   ALA d   1      14.235  12.357 -43.439  0.00  0.00    -0.346 N 
ATOM     26  C   ASP d   1      14.830  11.585 -44.384  0.00  0.00     0.241 C 
ATOM     27  O   ASP d   1      15.964  11.131 -44.170  0.00  0.00    -0.271 OA
ATOM     28  H14 ALA d   1      13.345  12.750 -43.669  0.00  0.00     0.163 HD
BRANCH  26  29
ATOM     29  CA  ASP d   1      14.076  11.367 -45.796  0.00  0.00     0.098 C 
ATOM     30  H11 ASP d   1      13.439  10.484 -45.639  0.00  0.00     0.088 H 
BRANCH  29  31
ATOM     31  N   ASP d   1      13.159  12.446 -46.143  0.00  0.00    -0.346 N 
ATOM     32  C   GLU d   1      11.854  12.553 -45.957  0.00  0.00     0.241 C 
ATOM     33  O   GLU d   1      11.306  11.616 -45.346  0.00  0.00    -0.271 OA
ATOM     34  H10 ASP d   1      13.585  13.231 -46.594  0.00  0.00     0.163 HD
BRANCH  32  35
ATOM     35  CA  GLU d   1      11.098  13.829 -46.498  0.00  0.00     0.090 C 
ATOM     36  H5  GLU d   1      10.182  13.921 -45.897  0.00  0.00     0.087 H 
BRANCH  35  37
ATOM     37  N   GLU d   1      11.891  15.022 -46.223  0.00  0.00    -0.348 N 
ATOM     38  C   ACE d   1      12.333  15.381 -44.991  0.00  0.00     0.214 C 
ATOM     39  O   ACE d   1      12.134  14.745 -43.990  0.00  0.00    -0.274 OA
ATOM     40  H4  GLU d   1      12.125  15.615 -46.994  0.00  0.00     0.163 HD
BRANCH  38  41
ATOM     41  CH3 ACE d   1      13.238  16.573 -44.995  0.00  0.00    -0.003 C 
ATOM     42  H1  ACE d   1      13.276  17.001 -46.008  0.00  0.00     0.040 H 
ATOM     43  H2  ACE d   1      14.249  16.267 -44.688  0.00  0.00     0.040 H 
ATOM     44  H3  ACE d   1      12.854  17.327 -44.292  0.00  0.00     0.040 H 
ENDBRANCH  38  41
ENDBRANCH  35  37
BRANCH  35  45
ATOM     45  CB  GLU d   1      10.620  13.722 -47.956  0.00  0.00    -0.029 C 
ATOM     46  H6  GLU d   1      11.464  13.956 -48.621  0.00  0.00     0.037 H 
ATOM     47  H7  GLU d   1       9.813  14.452 -48.117  0.00  0.00     0.037 H 
BRANCH  45  48
ATOM     48  CG  GLU d   1      10.098  12.335 -48.301  0.00  0.00     0.018 C 
ATOM     49  H8  GLU d   1      10.901  11.611 -48.101  0.00  0.00     0.049 H 
ATOM     50  H9  GLU d   1       9.852  12.322 -49.373  0.00  0.00     0.049 H 
BRANCH  48  51
ATOM     51  CD  GLU d   1       8.860  11.889 -47.529  0.00  0.00     0.172 C 
ATOM     52  OE1 GLU d   1       7.970  12.688 -47.132  0.00  0.00    -0.648 OA
ATOM     53  OE2 GLU d   1       8.746  10.663 -47.467  0.00  0.00    -0.648 OA
ENDBRANCH  48  51
ENDBRANCH  45  48
ENDBRANCH  35  45
ENDBRANCH  32  35
ENDBRANCH  29  31
BRANCH  29  54
ATOM     54  CB  ASP d   1      14.997  10.991 -46.970  0.00  0.00     0.043 C 
ATOM     55  H12 ASP d   1      15.738  11.792 -47.106  0.00  0.00     0.052 H 
ATOM     56  H13 ASP d   1      14.386  10.898 -47.880  0.00  0.00     0.052 H 
BRANCH  54  57
ATOM     57  CG  ASP d   1      15.747   9.658 -46.740  0.00  0.00     0.175 C 
ATOM     58  OD1 ASP d   1      15.026   8.630 -46.564  0.00  0.00    -0.648 OA
ATOM     59  OD2 ASP d   1      16.983   9.564 -46.768  0.00  0.00    -0.648 OA
ENDBRANCH  54  57
ENDBRANCH  29  54
ENDBRANCH  26  29
ENDBRANCH  23  25
BRANCH  23  60
ATOM     60  CB  ALA d   1      14.194  13.925 -41.540  0.00  0.00    -0.049 C 
ATOM     61  H16 ALA d   1      14.627  14.120 -40.548  0.00  0.00     0.030 H 
ATOM     62  H17 ALA d   1      13.104  13.810 -41.448  0.00  0.00     0.030 H 
ATOM     63  H18 ALA d   1      14.419  14.768 -42.210  0.00  0.00     0.030 H 
ENDBRANCH  23  60
ENDBRANCH  20  23
ENDBRANCH  17  19
BRANCH  17  64
ATOM     64  CB  PHE d   1      13.051   8.853 -41.542  0.00  0.00    -0.014 C 
ATOM     65  H21 PHE d   1      13.136   8.273 -42.473  0.00  0.00     0.043 H 
ATOM     66  H22 PHE d   1      12.641   9.849 -41.766  0.00  0.00     0.043 H 
BRANCH  64  67
ATOM     67  CG  PHE d   1      12.101   8.130 -40.596  0.00  0.00    -0.056 A 
ATOM     68  CD1 PHE d   1      12.313   6.772 -40.223  0.00  0.00    -0.077 A 
ATOM     69  CE1 PHE d   1      11.474   6.143 -39.254  0.00  0.00    -0.082 A 
ATOM     70  H23 PHE d   1      13.120   6.210 -40.679  0.00  0.00     0.084 H 
ATOM     71  CZ  PHE d   1      10.429   6.912 -38.719  0.00  0.00    -0.083 A 
ATOM     72  H25 PHE d   1      11.637   5.117 -38.945  0.00  0.00     0.083 H 
ATOM     73  CE2 PHE d   1      10.182   8.285 -39.077  0.00  0.00    -0.082 A 
ATOM     74  H27 PHE d   1       9.770   6.446 -37.995  0.00  0.00     0.083 H 
ATOM     75  CD2 PHE d   1      11.066   8.884 -40.026  0.00  0.00    -0.077 A 
ATOM     76  H26 PHE d   1       9.359   8.841 -38.644  0.00  0.00     0.083 H 
ATOM     77  H24 PHE d   1      10.936   9.923 -40.306  0.00  0.00     0.084 H 
ENDBRANCH  64  67
ENDBRANCH  17  64
ENDBRANCH  14  17
ENDBRANCH  11  13
BRANCH  11  78
ATOM     78  CB  ILE d   1      18.274   6.612 -40.308  0.00  0.00    -0.030 C 
ATOM     79  H30 ILE d   1      18.442   6.889 -39.257  0.00  0.00     0.043 H 
BRANCH  78  80
ATOM     80  CG1 ILE d   1      18.735   7.833 -41.187  0.00  0.00    -0.063 C 
ATOM     81  H31 ILE d   1      18.067   8.684 -40.987  0.00  0.00     0.033 H 
ATOM     82  H32 ILE d   1      18.662   7.551 -42.248  0.00  0.00     0.033 H 
BRANCH  80  83
ATOM     83  CD1 ILE d   1      20.162   8.255 -40.893  0.00  0.00    -0.076 C 
ATOM     84  H36 ILE d   1      20.431   9.109 -41.533  0.00  0.00     0.027 H 
ATOM     85  H37 ILE d   1      20.842   7.415 -41.097  0.00  0.00     0.027 H 
ATOM     86  H38 ILE d   1      20.247   8.547 -39.836  0.00  0.00     0.027 H 
ENDBRANCH  80  83
ENDBRANCH  78  80
BRANCH  78  87
ATOM     87  CG2 ILE d   1      19.191   5.428 -40.659  0.00  0.00    -0.071 C 
ATOM     88  H33 ILE d   1      18.901   4.550 -40.063  0.00  0.00     0.028 H 
ATOM     89  H34 ILE d   1      20.235   5.694 -40.435  0.00  0.00     0.028 H 
ATOM     90  H35 ILE d   1      19.093   5.193 -41.729  0.00  0.00     0.028 H 
ENDBRANCH  78  87
ENDBRANCH  11  78
ENDBRANCH   8  11
ENDBRANCH   5   7
BRANCH   5  91
ATOM     91  CB  VAL d   1      14.959   1.972 -39.345  0.00  0.00    -0.033 C 
ATOM     92  H41 VAL d   1      15.334   1.126 -39.939  0.00  0.00     0.042 H 
BRANCH  91  93
ATOM     93  CG1 VAL d   1      14.003   1.489 -38.195  0.00  0.00    -0.071 C 
ATOM     94  H42 VAL d   1      13.162   0.929 -38.629  0.00  0.00     0.028 H 
ATOM     95  H43 VAL d   1      13.619   2.362 -37.647  0.00  0.00     0.028 H 
ATOM     96  H44 VAL d   1      14.560   0.838 -37.505  0.00  0.00     0.028 H 
ENDBRANCH  91  93
BRANCH  91  97
ATOM     97  CG2 VAL d   1      14.084   2.843 -40.150  0.00  0.00    -0.071 C 
ATOM     98  H45 VAL d   1      14.652   3.248 -41.000  0.00  0.00     0.028 H 
ATOM     99  H46 VAL d   1      13.717   3.671 -39.526  0.00  0.00     0.028 H 
ATOM    100  H47 VAL d   1      13.230   2.260 -40.524  0.00  0.00     0.028 H 
ENDBRANCH  91  97
ENDBRANCH   5  91
ENDBRANCH   3   5
BRANCH   1 101
ATOM    101  CA  ILE d   1      18.964   1.106 -36.736  0.00  0.00     0.092 C 
ATOM    102  H49 ILE d   1      19.413   0.594 -37.599  0.00  0.00     0.088 H 
BRANCH 101 103
ATOM    103  C   ILE d   1      18.887   0.076 -35.611  0.00  0.00     0.241 C 
ATOM    104  O   ILE d   1      18.186   0.372 -34.635  0.00  0.00    -0.271 OA
ATOM    105  N   SEP d   1      19.552  -1.143 -35.727  0.00  0.00    -0.344 N 
ATOM    106  H59 SEP d   1      19.944  -1.387 -36.614  0.00  0.00     0.163 HD
BRANCH 105 107
ATOM    107  CA  SEP d   1      19.709  -2.104 -34.595  0.00  0.00     0.110 C 
ATOM    108  H60 SEP d   1      19.615  -1.546 -33.652  0.00  0.00     0.090 H 
BRANCH 107 109
ATOM    109  CB  SEP d   1      18.537  -3.118 -34.635  0.00  0.00     0.059 C 
ATOM    110  H61 SEP d   1      17.617  -2.576 -34.900  0.00  0.00     0.079 H 
ATOM    111  H62 SEP d   1      18.426  -3.561 -33.634  0.00  0.00     0.079 H 
BRANCH 109 112
ATOM    112  OG  SEP d   1      18.726  -4.170 -35.575  0.00  0.00    -0.280 OA
BRANCH 112 113
ATOM    113  P   SEP d   1      17.943  -5.508 -35.428  0.00  0.00     0.422 P 
ATOM    114  O1P SEP d   1      18.377  -6.331 -36.538  0.00  0.00    -0.617 OA
ATOM    115  O2P SEP d   1      18.259  -6.053 -34.111  0.00  0.00    -0.617 OA
ATOM    116  O3P SEP d   1      16.596  -5.012 -35.654  0.00  0.00    -0.617 OA
ENDBRANCH 112 113
ENDBRANCH 109 112
ENDBRANCH 107 109
BRANCH 107 117
ATOM    117  C   SEP d   1      21.134  -2.694 -34.623  0.00  0.00     0.243 C 
ATOM    118  O   SEP d   1      21.878  -2.310 -35.525  0.00  0.00    -0.271 OA
ATOM    119  N   ASP d   1      21.468  -3.455 -33.619  0.00  0.00    -0.345 N 
ATOM    120  H63 ASP d   1      20.766  -3.771 -32.980  0.00  0.00     0.163 HD
BRANCH 119 121
ATOM    121  CA  ASP d   1      22.919  -3.867 -33.411  0.00  0.00     0.098 C 
ATOM    122  H64 ASP d   1      23.395  -3.862 -34.403  0.00  0.00     0.088 H 
BRANCH 121 123
ATOM    123  C   ASP d   1      23.129  -5.278 -32.877  0.00  0.00     0.241 C 
ATOM    124  O   ASP d   1      23.866  -5.489 -31.926  0.00  0.00    -0.271 OA
ATOM    125  N   SEP d   1      22.574  -6.261 -33.584  0.00  0.00    -0.344 N 
ATOM    126  H67 SEP d   1      21.857  -6.022 -34.239  0.00  0.00     0.163 HD
BRANCH 125 127
ATOM    127  CA  SEP d   1      22.955  -7.689 -33.458  0.00  0.00     0.110 C 
ATOM    128  H68 SEP d   1      24.033  -7.720 -33.239  0.00  0.00     0.090 H 
BRANCH 127 129
ATOM    129  CB  SEP d   1      22.274  -8.477 -32.345  0.00  0.00     0.059 C 
ATOM    130  H69 SEP d   1      22.299  -7.901 -31.408  0.00  0.00     0.079 H 
ATOM    131  H70 SEP d   1      22.788  -9.439 -32.198  0.00  0.00     0.079 H 
BRANCH 129 132
ATOM    132  OG  SEP d   1      20.918  -8.704 -32.741  0.00  0.00    -0.280 OA
BRANCH 132 133
ATOM    133  P   SEP d   1      19.750  -9.097 -31.758  0.00  0.00     0.422 P 
ATOM    134  O1P SEP d   1      18.643  -9.296 -32.650  0.00  0.00    -0.617 OA
ATOM    135  O2P SEP d   1      20.139 -10.336 -31.062  0.00  0.00    -0.617 OA
ATOM    136  O3P SEP d   1      19.658  -7.937 -30.876  0.00  0.00    -0.617 OA
ENDBRANCH 132 133
ENDBRANCH 129 132
ENDBRANCH 127 129
BRANCH 127 137
ATOM    137  C   SEP d   1      22.737  -8.309 -34.794  0.00  0.00     0.243 C 
ATOM    138  O   SEP d   1      21.624  -8.220 -35.347  0.00  0.00    -0.271 OA
ATOM    139  N   ASP d   1      23.795  -8.976 -35.336  0.00  0.00    -0.345 N 
ATOM    140  H71 ASP d   1      24.593  -9.063 -34.740  0.00  0.00     0.163 HD
BRANCH 139 141
ATOM    141  CA  ASP d   1      23.933  -9.568 -36.624  0.00  0.00     0.098 C 
ATOM    142  H72 ASP d   1      22.924  -9.668 -37.051  0.00  0.00     0.088 H 
BRANCH 141 143
ATOM    143  C   ASP d   1      24.633 -10.970 -36.684  0.00  0.00     0.241 C 
ATOM    144  O   ASP d   1      25.537 -11.280 -35.950  0.00  0.00    -0.271 OA
ATOM    145  N   GLY d   1      24.172 -11.831 -37.623  0.00  0.00    -0.351 N 
ATOM    146  H75 GLY d   1      23.409 -11.585 -38.221  0.00  0.00     0.163 HD
BRANCH 145 147
ATOM    147  CA  GLY d   1      24.829 -13.133 -37.732  0.00  0.00     0.069 C 
ATOM    148  H76 GLY d   1      24.678 -13.675 -36.787  0.00  0.00     0.078 H 
ATOM    149  H77 GLY d   1      25.904 -12.964 -37.890  0.00  0.00     0.078 H 
BRANCH 147 150
ATOM    150  C   GLY d   1      24.319 -13.993 -38.854  0.00  0.00     0.236 C 
ATOM    151  O   GLY d   1      23.235 -13.850 -39.342  0.00  0.00    -0.272 OA
ATOM    152  N   GLU d   1      25.300 -14.785 -39.444  0.00  0.00    -0.346 N 
ATOM    153  H78 GLU d   1      26.218 -14.789 -39.047  0.00  0.00     0.163 HD
BRANCH 152 154
ATOM    154  CA  GLU d   1      25.037 -15.617 -40.631  0.00  0.00     0.089 C 
ATOM    155  H79 GLU d   1      24.544 -14.985 -41.384  0.00  0.00     0.087 H 
BRANCH 154 156
ATOM    156  C   GLU d   1      24.077 -16.829 -40.336  0.00  0.00     0.238 C 
ATOM    157  O   GLU d   1      23.410 -17.251 -41.270  0.00  0.00    -0.271 OA
ATOM    158  N   NH2 d   1      23.961 -17.304 -39.140  0.00  0.00    -0.368 N 
ATOM    159  H84 NH2 d   1      23.348 -18.074 -38.965  0.00  0.00     0.159 HD
ATOM    160  H85 NH2 d   1      24.485 -16.901 -38.389  0.00  0.00     0.159 HD
ENDBRANCH 154 156
BRANCH 154 161
ATOM    161  CB  GLU d   1      26.413 -16.098 -41.219  0.00  0.00    -0.029 C 
ATOM    162  H80 GLU d   1      26.907 -16.729 -40.466  0.00  0.00     0.037 H 
ATOM    163  H81 GLU d   1      27.032 -15.210 -41.416  0.00  0.00     0.037 H 
BRANCH 161 164
ATOM    164  CG  GLU d   1      26.301 -16.898 -42.512  0.00  0.00     0.018 C 
ATOM    165  H82 GLU d   1      25.461 -17.594 -42.370  0.00  0.00     0.049 H 
ATOM    166  H83 GLU d   1      27.238 -17.468 -42.602  0.00  0.00     0.049 H 
BRANCH 164 167
ATOM    167  CD  GLU d   1      26.077 -16.235 -43.866  0.00  0.00     0.172 C 
ATOM    168  OE1 GLU d   1      25.536 -15.111 -43.944  0.00  0.00    -0.648 OA
ATOM    169  OE2 GLU d   1      26.484 -16.831 -44.902  0.00  0.00    -0.648 OA
ENDBRANCH 164 167
ENDBRANCH 161 164
ENDBRANCH 154 161
ENDBRANCH 152 154
ENDBRANCH 147 150
ENDBRANCH 145 147
ENDBRANCH 141 143
BRANCH 141 170
ATOM    170  CB  ASP d   1      24.804  -8.637 -37.534  0.00  0.00     0.043 C 
ATOM    171  H73 ASP d   1      25.841  -8.612 -37.168  0.00  0.00     0.052 H 
ATOM    172  H74 ASP d   1      24.392  -7.617 -37.538  0.00  0.00     0.052 H 
BRANCH 170 173
ATOM    173  CG  ASP d   1      24.754  -9.252 -38.992  0.00  0.00     0.175 C 
ATOM    174  OD1 ASP d   1      23.648  -9.399 -39.576  0.00  0.00    -0.648 OA
ATOM    175  OD2 ASP d   1      25.801  -9.741 -39.475  0.00  0.00    -0.648 OA
ENDBRANCH 170 173
ENDBRANCH 141 170
ENDBRANCH 139 141
ENDBRANCH 127 137
ENDBRANCH 125 127
ENDBRANCH 121 123
BRANCH 121 176
ATOM    176  CB  ASP d   1      23.589  -2.749 -32.591  0.00  0.00     0.043 C 
ATOM    177  H65 ASP d   1      23.336  -2.889 -31.530  0.00  0.00     0.052 H 
ATOM    178  H66 ASP d   1      23.203  -1.778 -32.935  0.00  0.00     0.052 H 
BRANCH 176 179
ATOM    179  CG  ASP d   1      25.083  -2.754 -32.736  0.00  0.00     0.175 C 
ATOM    180  OD1 ASP d   1      25.580  -2.905 -33.838  0.00  0.00    -0.648 OA
ATOM    181  OD2 ASP d   1      25.753  -2.401 -31.744  0.00  0.00    -0.648 OA
ENDBRANCH 176 179
ENDBRANCH 121 176
ENDBRANCH 119 121
ENDBRANCH 107 117
ENDBRANCH 105 107
ENDBRANCH 101 103
BRANCH 101 182
ATOM    182  CB  ILE d   1      19.883   2.277 -36.349  0.00  0.00    -0.030 C 
ATOM    183  H50 ILE d   1      19.442   2.860 -35.527  0.00  0.00     0.043 H 
BRANCH 182 184
ATOM    184  CG1 ILE d   1      20.114   3.219 -37.629  0.00  0.00    -0.063 C 
ATOM    185  H51 ILE d   1      19.186   3.776 -37.824  0.00  0.00     0.033 H 
ATOM    186  H52 ILE d   1      20.347   2.581 -38.494  0.00  0.00     0.033 H 
BRANCH 184 187
ATOM    187  CD1 ILE d   1      21.295   4.261 -37.440  0.00  0.00    -0.076 C 
ATOM    188  H56 ILE d   1      21.396   4.870 -38.351  0.00  0.00     0.027 H 
ATOM    189  H57 ILE d   1      22.235   3.720 -37.254  0.00  0.00     0.027 H 
ATOM    190  H58 ILE d   1      21.073   4.915 -36.584  0.00  0.00     0.027 H 
ENDBRANCH 184 187
ENDBRANCH 182 184
BRANCH 182 191
ATOM    191  CG2 ILE d   1      21.218   1.663 -35.919  0.00  0.00    -0.071 C 
ATOM    192  H53 ILE d   1      21.059   1.018 -35.042  0.00  0.00     0.028 H 
ATOM    193  H54 ILE d   1      21.924   2.466 -35.661  0.00  0.00     0.028 H 
ATOM    194  H55 ILE d   1      21.629   1.064 -36.745  0.00  0.00     0.028 H 
ENDBRANCH 182 191
ENDBRANCH 101 182
ENDBRANCH   1 101
TORSDOF 59
