REMARK WARNING: 32 MAX_TORS EXCEEDED!!!
REMARK  80 active torsions:
REMARK  status: ('A' for Active; 'I' for Inactive)
REMARK    1  A    between atoms: N_1  and  CA_2 
REMARK    2  A    between atoms: CA_2  and  C_3 
REMARK    3  A    between atoms: CA_2  and  CB_5 
REMARK       I    between atoms: C_3  and  N_9 
REMARK    4  A    between atoms: CB_5  and  CG_6 
REMARK    5  A    between atoms: N_9  and  CA_10 
REMARK    6  A    between atoms: CA_10  and  C_11 
REMARK    7  A    between atoms: CA_10  and  CB_13 
REMARK       I    between atoms: C_11  and  N_21 
REMARK    8  A    between atoms: CB_13  and  CG_14 
REMARK    9  A    between atoms: CZ_19  and  OH_20 
REMARK   10  A    between atoms: N_21  and  CA_22 
REMARK   11  A    between atoms: CA_22  and  C_23 
REMARK   12  A    between atoms: CA_22  and  CB_25 
REMARK       I    between atoms: C_23  and  N_30 
REMARK   13  A    between atoms: CB_25  and  CG_26 
REMARK   14  A    between atoms: CG_26  and  CD_27 
REMARK   15  A    between atoms: N_30  and  CA_31 
REMARK   16  A    between atoms: CA_31  and  C_32 
REMARK   17  A    between atoms: CA_31  and  CB_34 
REMARK       I    between atoms: C_32  and  N_36 
REMARK   18  A    between atoms: CB_34  and  OG_35 
REMARK   19  A    between atoms: N_36  and  CA_37 
REMARK   20  A    between atoms: CA_37  and  C_38 
REMARK   21  A    between atoms: CA_37  and  CB_40 
REMARK       I    between atoms: C_38  and  N_44 
REMARK   22  A    between atoms: CB_40  and  CG_41 
REMARK   23  A    between atoms: N_44  and  CA_45 
REMARK   24  A    between atoms: CA_45  and  C_46 
REMARK   25  A    between atoms: CA_45  and  CB_48 
REMARK       I    between atoms: C_46  and  N_52 
REMARK   26  A    between atoms: CB_48  and  CG_49 
REMARK   27  A    between atoms: N_52  and  CA_53 
REMARK   28  A    between atoms: CA_53  and  C_54 
REMARK   29  A    between atoms: CA_53  and  CB_56 
REMARK       I    between atoms: C_54  and  N_60 
REMARK   30  A    between atoms: CB_56  and  CG_57 
REMARK   31  A    between atoms: N_60  and  CA_61 
REMARK   32  A    between atoms: CA_61  and  C_62 
REMARK   33  A    between atoms: CA_61  and  CB_64 
REMARK       I    between atoms: C_62  and  N_66 
REMARK   34  A    between atoms: CB_64  and  OG_65 
REMARK   35  A    between atoms: N_66  and  CA_67 
REMARK   36  A    between atoms: CA_67  and  C_68 
REMARK   37  A    between atoms: CA_67  and  CB_70 
REMARK       I    between atoms: C_68  and  N_78 
REMARK   38  A    between atoms: CB_70  and  CG_71 
REMARK   39  A    between atoms: CZ_76  and  OH_77 
REMARK   40  A    between atoms: N_78  and  CA_79 
REMARK   41  A    between atoms: CA_79  and  C_80 
REMARK   42  A    between atoms: CA_79  and  CB_82 
REMARK       I    between atoms: C_80  and  N_87 
REMARK   43  A    between atoms: CB_82  and  CG_83 
REMARK   44  A    between atoms: CG_83  and  CD_84 
REMARK   45  A    between atoms: N_87  and  CA_88 
REMARK   46  A    between atoms: CA_88  and  C_89 
REMARK   47  A    between atoms: CA_88  and  CB_91 
REMARK       I    between atoms: C_89  and  N_94 
REMARK   48  A    between atoms: CB_91  and  CG1_92 
REMARK   49  A    between atoms: CB_91  and  CG2_93 
REMARK   50  A    between atoms: N_94  and  CA_95 
REMARK   51  A    between atoms: CA_95  and  C_96 
REMARK   52  A    between atoms: CA_95  and  CB_98 
REMARK       I    between atoms: C_96  and  N_102 
REMARK   53  A    between atoms: CB_98  and  CG_99 
REMARK   54  A    between atoms: CG_99  and  CD1_100 
REMARK   55  A    between atoms: CG_99  and  CD2_101 
REMARK   56  A    between atoms: N_102  and  CA_103 
REMARK   57  A    between atoms: CA_103  and  C_104 
REMARK   58  A    between atoms: CA_103  and  CB_106 
REMARK       I    between atoms: C_104  and  N_110 
REMARK   59  A    between atoms: CB_106  and  CG_107 
REMARK   60  A    between atoms: N_110  and  CA_111 
REMARK   61  A    between atoms: CA_111  and  C_112 
REMARK   62  A    between atoms: CA_111  and  CB_114 
REMARK       I    between atoms: C_112  and  N_118 
REMARK   63  A    between atoms: CB_114  and  CG_115 
REMARK   64  A    between atoms: CG_115  and  CD1_116 
REMARK   65  A    between atoms: CG_115  and  CD2_117 
REMARK   66  A    between atoms: N_118  and  CA_119 
REMARK   67  A    between atoms: CA_119  and  C_120 
REMARK   68  A    between atoms: CA_119  and  CB_122 
REMARK       I    between atoms: C_120  and  N_125 
REMARK   69  A    between atoms: CB_122  and  OG1_123 
REMARK   70  A    between atoms: CB_122  and  CG2_124 
REMARK   71  A    between atoms: N_125  and  CA_126 
REMARK   72  A    between atoms: CA_126  and  C_127 
REMARK   73  A    between atoms: CA_126  and  CB_129 
REMARK       I    between atoms: C_127  and  N_134 
REMARK   74  A    between atoms: CB_129  and  CG_130 
REMARK   75  A    between atoms: CG_130  and  CD_131 
REMARK   76  A    between atoms: N_134  and  CA_135 
REMARK   77  A    between atoms: CA_135  and  C_136 
REMARK   78  A    between atoms: CA_135  and  CB_138 
REMARK   79  A    between atoms: CB_138  and  CG_139 
REMARK   80  A    between atoms: CZ_144  and  OH_145 
ROOT
ATOM      1  C   TYR d   1      -2.827  -3.159  15.208  0.00  0.00     0.241 C 
ATOM      2  O   TYR d   1      -2.172  -4.100  14.764  0.00  0.00    -0.271 OA
ATOM      3  N   GLU d   1      -3.923  -3.357  15.950  0.00  0.00    -0.346 N 
ATOM      4  H53 GLU d   1      -4.368  -2.559  16.356  0.00  0.00     0.163 HD
ENDROOT
BRANCH   3   5
ATOM      5  CA  GLU d   1      -4.510  -4.678  16.202  0.00  0.00     0.090 C 
ATOM      6  H54 GLU d   1      -3.751  -5.445  15.988  0.00  0.00     0.087 H 
BRANCH   5   7
ATOM      7  C   GLU d   1      -5.676  -4.879  15.219  0.00  0.00     0.241 C 
ATOM      8  O   GLU d   1      -6.840  -4.668  15.551  0.00  0.00    -0.271 OA
ATOM      9  N   VAL d   1      -5.365  -5.218  13.962  0.00  0.00    -0.346 N 
ATOM     10  H59 VAL d   1      -4.423  -5.479  13.752  0.00  0.00     0.163 HD
BRANCH   9  11
ATOM     11  CA  VAL d   1      -6.365  -5.221  12.872  0.00  0.00     0.092 C 
ATOM     12  H60 VAL d   1      -6.868  -4.246  12.951  0.00  0.00     0.088 H 
BRANCH  11  13
ATOM     13  C   VAL d   1      -7.487  -6.258  12.997  0.00  0.00     0.241 C 
ATOM     14  O   VAL d   1      -8.614  -5.978  12.605  0.00  0.00    -0.271 OA
ATOM     15  N   LEU d   1      -7.226  -7.429  13.588  0.00  0.00    -0.346 N 
ATOM     16  H68 LEU d   1      -6.280  -7.649  13.828  0.00  0.00     0.163 HD
BRANCH  15  17
ATOM     17  CA  LEU d   1      -8.287  -8.409  13.898  0.00  0.00     0.089 C 
ATOM     18  H69 LEU d   1      -8.956  -8.478  13.028  0.00  0.00     0.087 H 
BRANCH  17  19
ATOM     19  C   LEU d   1      -9.152  -7.964  15.107  0.00  0.00     0.241 C 
ATOM     20  O   LEU d   1     -10.174  -8.576  15.406  0.00  0.00    -0.271 OA
ATOM     21  N   ASP d   1      -8.736  -6.886  15.788  0.00  0.00    -0.346 N 
ATOM     22  H79 ASP d   1      -7.875  -6.479  15.482  0.00  0.00     0.163 HD
BRANCH  21  23
ATOM     23  CA  ASP d   1      -9.388  -6.233  16.924  0.00  0.00     0.098 C 
ATOM     24  H80 ASP d   1      -8.600  -5.623  17.391  0.00  0.00     0.088 H 
BRANCH  23  25
ATOM     25  C   ASP d   1      -9.826  -7.194  18.061  0.00  0.00     0.241 C 
ATOM     26  O   ASP d   1     -10.913  -7.081  18.631  0.00  0.00    -0.271 OA
ATOM     27  N   LEU d   1      -8.964  -8.178  18.361  0.00  0.00    -0.346 N 
ATOM     28  H83 LEU d   1      -8.130  -8.235  17.811  0.00  0.00     0.163 HD
BRANCH  27  29
ATOM     29  CA  LEU d   1      -9.133  -9.180  19.424  0.00  0.00     0.089 C 
ATOM     30  H84 LEU d   1      -9.727  -8.714  20.224  0.00  0.00     0.087 H 
BRANCH  29  31
ATOM     31  C   LEU d   1      -7.781  -9.574  20.043  0.00  0.00     0.241 C 
ATOM     32  O   LEU d   1      -6.747  -9.554  19.370  0.00  0.00    -0.271 OA
ATOM     33  N   THR d   1      -7.796  -9.948  21.323  0.00  0.00    -0.344 N 
ATOM     34  H94 THR d   1      -8.656  -9.855  21.825  0.00  0.00     0.163 HD
BRANCH  33  35
ATOM     35  CA  THR d   1      -6.632 -10.490  22.051  0.00  0.00     0.113 C 
ATOM     36  H95 THR d   1      -5.698 -10.068  21.652  0.00  0.00     0.091 H 
BRANCH  35  37
ATOM     37  C   THR d   1      -6.677 -12.012  21.850  0.00  0.00     0.243 C 
ATOM     38  O   THR d   1      -7.601 -12.694  22.302  0.00  0.00    -0.271 OA
ATOM     39  N   GLU d   1      -5.674 -12.551  21.159  0.00  0.00    -0.346 N 
ATOM     40 1H10 GLU d   1      -5.000 -11.931  20.758  0.00  0.00     0.163 HD
BRANCH  39  41
ATOM     41  CA  GLU d   1      -5.488 -13.989  20.944  0.00  0.00     0.090 C 
ATOM     42 2H10 GLU d   1      -6.460 -14.404  20.640  0.00  0.00     0.087 H 
BRANCH  41  43
ATOM     43  C   GLU d   1      -5.053 -14.741  22.222  0.00  0.00     0.241 C 
ATOM     44  O   GLU d   1      -4.503 -14.150  23.159  0.00  0.00    -0.271 OA
ATOM     45  N   TYR d   1      -5.269 -16.065  22.219  0.00  0.00    -0.344 N 
ATOM     46 7H10 TYR d   1      -5.718 -16.445  21.410  0.00  0.00     0.163 HD
BRANCH  45  47
ATOM     47  CA  TYR d   1      -4.912 -17.017  23.285  0.00  0.00     0.100 C 
ATOM     48 8H10 TYR d   1      -4.228 -16.453  23.936  0.00  0.00     0.090 H 
BRANCH  47  49
ATOM     49  C   TYR d   1      -4.087 -18.247  22.863  0.00  0.00     0.197 C 
ATOM     50  O   TYR d   1      -3.233 -18.703  23.658  0.00  0.00    -0.646 OA
ATOM     51  OXT TYR d   1      -4.286 -18.736  21.727  0.00  0.00    -0.646 OA
ENDBRANCH  47  49
BRANCH  47  52
ATOM     52  CB  TYR d   1      -6.120 -17.345  24.176  0.00  0.00    -0.013 C 
ATOM     53 9H10 TYR d   1      -5.888 -18.257  24.745  0.00  0.00     0.043 H 
ATOM     54 0H11 TYR d   1      -6.987 -17.530  23.524  0.00  0.00     0.043 H 
BRANCH  52  55
ATOM     55  CG  TYR d   1      -6.494 -16.253  25.163  0.00  0.00    -0.056 A 
ATOM     56  CD1 TYR d   1      -7.533 -15.351  24.860  0.00  0.00    -0.074 A 
ATOM     57  CE1 TYR d   1      -7.878 -14.338  25.775  0.00  0.00    -0.051 A 
ATOM     58 1H11 TYR d   1      -8.068 -15.437  23.921  0.00  0.00     0.084 H 
ATOM     59  CZ  TYR d   1      -7.185 -14.223  26.998  0.00  0.00     0.065 A 
ATOM     60 3H11 TYR d   1      -8.678 -13.645  25.539  0.00  0.00     0.087 H 
ATOM     61  CE2 TYR d   1      -6.145 -15.129  27.307  0.00  0.00    -0.051 A 
ATOM     62  CD2 TYR d   1      -5.801 -16.141  26.388  0.00  0.00    -0.074 A 
ATOM     63 4H11 TYR d   1      -5.613 -15.046  28.248  0.00  0.00     0.087 H 
ATOM     64 2H11 TYR d   1      -5.002 -16.835  26.622  0.00  0.00     0.084 H 
BRANCH  59  65
ATOM     65  OH  TYR d   1      -7.531 -13.242  27.880  0.00  0.00    -0.361 OA
ATOM     66 5H11 TYR d   1      -8.242 -12.727  27.517  0.00  0.00     0.217 HD
ENDBRANCH  59  65
ENDBRANCH  52  55
ENDBRANCH  47  52
ENDBRANCH  45  47
ENDBRANCH  41  43
BRANCH  41  67
ATOM     67  CB  GLU d   1      -4.495 -14.222  19.787  0.00  0.00    -0.029 C 
ATOM     68 3H10 GLU d   1      -4.816 -13.598  18.940  0.00  0.00     0.037 H 
ATOM     69 4H10 GLU d   1      -4.555 -15.283  19.504  0.00  0.00     0.037 H 
BRANCH  67  70
ATOM     70  CG  GLU d   1      -3.016 -13.897  20.074  0.00  0.00     0.018 C 
ATOM     71 5H10 GLU d   1      -2.412 -14.319  19.257  0.00  0.00     0.049 H 
ATOM     72 6H10 GLU d   1      -2.740 -14.382  21.022  0.00  0.00     0.049 H 
BRANCH  70  73
ATOM     73  CD  GLU d   1      -2.674 -12.394  20.192  0.00  0.00     0.172 C 
ATOM     74  OE1 GLU d   1      -3.479 -11.536  19.750  0.00  0.00    -0.648 OA
ATOM     75  OE2 GLU d   1      -1.568 -12.068  20.684  0.00  0.00    -0.648 OA
ENDBRANCH  70  73
ENDBRANCH  67  70
ENDBRANCH  41  67
ENDBRANCH  39  41
ENDBRANCH  35  37
BRANCH  35  76
ATOM     76  CB  THR d   1      -6.742 -10.193  23.562  0.00  0.00     0.060 C 
ATOM     77  H96 THR d   1      -6.151 -10.942  24.110  0.00  0.00     0.086 H 
BRANCH  76  78
ATOM     78  OG1 THR d   1      -8.079 -10.218  24.034  0.00  0.00    -0.393 OA
ATOM     79  H97 THR d   1      -8.452 -11.078  23.880  0.00  0.00     0.210 HD
ENDBRANCH  76  78
BRANCH  76  80
ATOM     80  CG2 THR d   1      -6.205  -8.792  23.857  0.00  0.00    -0.050 C 
ATOM     81  H98 THR d   1      -6.287  -8.588  24.935  0.00  0.00     0.031 H 
ATOM     82  H99 THR d   1      -6.792  -8.049  23.297  0.00  0.00     0.031 H 
ATOM     83 0H10 THR d   1      -5.150  -8.732  23.551  0.00  0.00     0.031 H 
ENDBRANCH  76  80
ENDBRANCH  35  76
ENDBRANCH  33  35
ENDBRANCH  29  31
BRANCH  29  84
ATOM     84  CB  LEU d   1      -9.942 -10.393  18.906  0.00  0.00    -0.035 C 
ATOM     85  H85 LEU d   1     -10.856  -9.999  18.438  0.00  0.00     0.037 H 
ATOM     86  H86 LEU d   1     -10.211 -11.003  19.781  0.00  0.00     0.037 H 
BRANCH  84  87
ATOM     87  CG  LEU d   1      -9.270 -11.338  17.877  0.00  0.00    -0.059 C 
ATOM     88  H87 LEU d   1      -8.657 -10.731  17.194  0.00  0.00     0.038 H 
BRANCH  87  89
ATOM     89  CD1 LEU d   1      -8.394 -12.433  18.500  0.00  0.00    -0.073 C 
ATOM     90  H88 LEU d   1      -7.960 -13.053  17.702  0.00  0.00     0.028 H 
ATOM     91  H89 LEU d   1      -9.008 -13.063  19.160  0.00  0.00     0.028 H 
ATOM     92  H90 LEU d   1      -7.586 -11.968  19.084  0.00  0.00     0.028 H 
ENDBRANCH  87  89
BRANCH  87  93
ATOM     93  CD2 LEU d   1     -10.359 -12.078  17.095  0.00  0.00    -0.073 C 
ATOM     94  H91 LEU d   1     -11.029 -11.347  16.618  0.00  0.00     0.028 H 
ATOM     95  H92 LEU d   1     -10.938 -12.712  17.783  0.00  0.00     0.028 H 
ATOM     96  H93 LEU d   1      -9.893 -12.707  16.322  0.00  0.00     0.028 H 
ENDBRANCH  87  93
ENDBRANCH  84  87
ENDBRANCH  29  84
ENDBRANCH  27  29
ENDBRANCH  23  25
BRANCH  23  97
ATOM     97  CB  ASP d   1     -10.423  -5.207  16.429  0.00  0.00     0.043 C 
ATOM     98  H81 ASP d   1     -11.200  -5.741  15.862  0.00  0.00     0.052 H 
ATOM     99  H82 ASP d   1      -9.914  -4.490  15.768  0.00  0.00     0.052 H 
BRANCH  97 100
ATOM    100  CG  ASP d   1     -11.100  -4.426  17.564  0.00  0.00     0.175 C 
ATOM    101  OD1 ASP d   1     -10.373  -3.897  18.438  0.00  0.00    -0.648 OA
ATOM    102  OD2 ASP d   1     -12.345  -4.280  17.524  0.00  0.00    -0.648 OA
ENDBRANCH  97 100
ENDBRANCH  23  97
ENDBRANCH  21  23
ENDBRANCH  17  19
BRANCH  17 103
ATOM    103  CB  LEU d   1      -7.623  -9.790  14.097  0.00  0.00    -0.035 C 
ATOM    104  H70 LEU d   1      -7.191  -9.814  15.108  0.00  0.00     0.037 H 
ATOM    105  H71 LEU d   1      -6.820  -9.889  13.352  0.00  0.00     0.037 H 
BRANCH 103 106
ATOM    106  CG  LEU d   1      -8.556 -11.011  13.952  0.00  0.00    -0.059 C 
ATOM    107  H72 LEU d   1      -9.435 -10.867  14.598  0.00  0.00     0.038 H 
BRANCH 106 108
ATOM    108  CD1 LEU d   1      -9.017 -11.225  12.506  0.00  0.00    -0.073 C 
ATOM    109  H73 LEU d   1      -9.677 -12.104  12.458  0.00  0.00     0.028 H 
ATOM    110  H74 LEU d   1      -8.140 -11.389  11.862  0.00  0.00     0.028 H 
ATOM    111  H75 LEU d   1      -9.565 -10.336  12.160  0.00  0.00     0.028 H 
ENDBRANCH 106 108
BRANCH 106 112
ATOM    112  CD2 LEU d   1      -7.803 -12.276  14.368  0.00  0.00    -0.073 C 
ATOM    113  H76 LEU d   1      -7.451 -12.169  15.405  0.00  0.00     0.028 H 
ATOM    114  H77 LEU d   1      -6.941 -12.425  13.701  0.00  0.00     0.028 H 
ATOM    115  H78 LEU d   1      -8.476 -13.143  14.297  0.00  0.00     0.028 H 
ENDBRANCH 106 112
ENDBRANCH 103 106
ENDBRANCH  17 103
ENDBRANCH  15  17
ENDBRANCH  11  13
BRANCH  11 116
ATOM    116  CB  VAL d   1      -5.731  -5.246  11.471  0.00  0.00    -0.033 C 
ATOM    117  H61 VAL d   1      -5.379  -6.269  11.271  0.00  0.00     0.042 H 
BRANCH 116 118
ATOM    118  CG1 VAL d   1      -6.747  -4.843  10.403  0.00  0.00    -0.071 C 
ATOM    119  H62 VAL d   1      -6.268  -4.869   9.413  0.00  0.00     0.028 H 
ATOM    120  H63 VAL d   1      -7.110  -3.825  10.608  0.00  0.00     0.028 H 
ATOM    121  H64 VAL d   1      -7.594  -5.545  10.419  0.00  0.00     0.028 H 
ENDBRANCH 116 118
BRANCH 116 122
ATOM    122  CG2 VAL d   1      -4.553  -4.279  11.347  0.00  0.00    -0.071 C 
ATOM    123  H65 VAL d   1      -3.791  -4.531  12.100  0.00  0.00     0.028 H 
ATOM    124  H66 VAL d   1      -4.905  -3.250  11.511  0.00  0.00     0.028 H 
ATOM    125  H67 VAL d   1      -4.115  -4.361  10.341  0.00  0.00     0.028 H 
ENDBRANCH 116 122
ENDBRANCH  11 116
ENDBRANCH   9  11
ENDBRANCH   5   7
BRANCH   5 126
ATOM    126  CB  GLU d   1      -4.906  -4.824  17.683  0.00  0.00    -0.029 C 
ATOM    127  H55 GLU d   1      -5.661  -4.059  17.918  0.00  0.00     0.037 H 
ATOM    128  H56 GLU d   1      -4.011  -4.657  18.300  0.00  0.00     0.037 H 
BRANCH 126 129
ATOM    129  CG  GLU d   1      -5.487  -6.204  18.033  0.00  0.00     0.018 C 
ATOM    130  H57 GLU d   1      -6.527  -6.251  17.677  0.00  0.00     0.049 H 
ATOM    131  H58 GLU d   1      -5.467  -6.329  19.126  0.00  0.00     0.049 H 
BRANCH 129 132
ATOM    132  CD  GLU d   1      -4.693  -7.351  17.390  0.00  0.00     0.172 C 
ATOM    133  OE1 GLU d   1      -5.232  -8.033  16.489  0.00  0.00    -0.648 OA
ATOM    134  OE2 GLU d   1      -3.505  -7.537  17.739  0.00  0.00    -0.648 OA
ENDBRANCH 129 132
ENDBRANCH 126 129
ENDBRANCH   5 126
ENDBRANCH   3   5
BRANCH   1 135
ATOM    135  CA  TYR d   1      -2.502  -1.705  14.832  0.00  0.00     0.093 C 
ATOM    136  H45 TYR d   1      -2.973  -1.105  15.625  0.00  0.00     0.088 H 
BRANCH 135 137
ATOM    137  N   TYR d   1      -1.119  -1.239  14.807  0.00  0.00    -0.346 N 
ATOM    138  C   SER d   1      -0.237  -1.357  15.803  0.00  0.00     0.243 C 
ATOM    139  O   SER d   1      -0.493  -2.028  16.807  0.00  0.00    -0.271 OA
ATOM    140  H44 TYR d   1      -0.804  -0.792  13.970  0.00  0.00     0.163 HD
BRANCH 138 141
ATOM    141  CA  SER d   1       1.102  -0.596  15.653  0.00  0.00     0.109 C 
ATOM    142  H40 SER d   1       1.894  -1.350  15.531  0.00  0.00     0.090 H 
BRANCH 141 143
ATOM    143  N   SER d   1       1.129   0.287  14.471  0.00  0.00    -0.344 N 
ATOM    144  C   ASP d   1       1.462  -0.101  13.234  0.00  0.00     0.241 C 
ATOM    145  O   ASP d   1       1.667  -1.288  12.961  0.00  0.00    -0.271 OA
ATOM    146  H39 SER d   1       0.880   1.246  14.604  0.00  0.00     0.163 HD
BRANCH 144 147
ATOM    147  CA  ASP d   1       1.595   0.988  12.144  0.00  0.00     0.098 C 
ATOM    148  H36 ASP d   1       2.307   0.523  11.446  0.00  0.00     0.088 H 
BRANCH 147 149
ATOM    149  N   ASP d   1       0.439   1.294  11.283  0.00  0.00    -0.345 N 
ATOM    150  C   ASP d   1      -0.824   1.546  11.659  0.00  0.00     0.241 C 
ATOM    151  O   ASP d   1      -1.216   1.395  12.817  0.00  0.00    -0.271 OA
ATOM    152  H35 ASP d   1       0.618   1.317  10.299  0.00  0.00     0.163 HD
BRANCH 150 153
ATOM    153  CA  ASP d   1      -1.741   2.096  10.536  0.00  0.00     0.098 C 
ATOM    154  H32 ASP d   1      -1.431   1.546   9.635  0.00  0.00     0.088 H 
BRANCH 153 155
ATOM    155  N   ASP d   1      -3.203   1.903  10.600  0.00  0.00    -0.345 N 
ATOM    156  C   ASP d   1      -3.973   1.795   9.512  0.00  0.00     0.241 C 
ATOM    157  O   ASP d   1      -3.469   1.651   8.396  0.00  0.00    -0.271 OA
ATOM    158  H31 ASP d   1      -3.638   1.851  11.499  0.00  0.00     0.163 HD
BRANCH 156 159
ATOM    159  CA  ASP d   1      -5.511   1.835   9.646  0.00  0.00     0.098 C 
ATOM    160  H28 ASP d   1      -5.851   2.067   8.626  0.00  0.00     0.088 H 
BRANCH 159 161
ATOM    161  N   ASP d   1      -6.187   0.555   9.947  0.00  0.00    -0.345 N 
ATOM    162  C   SER d   1      -7.475   0.222   9.770  0.00  0.00     0.243 C 
ATOM    163  O   SER d   1      -8.345   1.031   9.440  0.00  0.00    -0.271 OA
ATOM    164  H27 ASP d   1      -5.605  -0.160  10.335  0.00  0.00     0.163 HD
BRANCH 162 165
ATOM    165  CA  SER d   1      -7.813  -1.270   9.945  0.00  0.00     0.109 C 
ATOM    166  H23 SER d   1      -6.851  -1.782  10.093  0.00  0.00     0.090 H 
BRANCH 165 167
ATOM    167  N   SER d   1      -8.641  -1.608  11.126  0.00  0.00    -0.344 N 
ATOM    168  C   GLU d   1      -8.114  -1.825  12.345  0.00  0.00     0.241 C 
ATOM    169  O   GLU d   1      -6.909  -1.653  12.534  0.00  0.00    -0.271 OA
ATOM    170  H22 SER d   1      -9.632  -1.678  11.013  0.00  0.00     0.163 HD
BRANCH 168 171
ATOM    171  CA  GLU d   1      -8.983  -2.389  13.509  0.00  0.00     0.090 C 
ATOM    172  H17 GLU d   1      -8.710  -3.452  13.587  0.00  0.00     0.087 H 
BRANCH 171 173
ATOM    173  N   GLU d   1      -8.628  -1.758  14.798  0.00  0.00    -0.346 N 
ATOM    174  C   TYR d   1      -8.595  -0.432  15.022  0.00  0.00     0.241 C 
ATOM    175  O   TYR d   1      -8.995   0.380  14.191  0.00  0.00    -0.271 OA
ATOM    176  H16 GLU d   1      -8.395  -2.362  15.560  0.00  0.00     0.163 HD
BRANCH 174 177
ATOM    177  CA  TYR d   1      -8.076   0.064  16.389  0.00  0.00     0.093 C 
ATOM    178  H8  TYR d   1      -8.197   1.155  16.469  0.00  0.00     0.088 H 
BRANCH 177 179
ATOM    179  N   TYR d   1      -8.872  -0.620  17.432  0.00  0.00    -0.346 N 
ATOM    180  C   ASP d   1      -9.060  -0.117  18.663  0.00  0.00     0.249 C 
ATOM    181  O   ASP d   1      -8.482   0.901  19.047  0.00  0.00    -0.271 OA
ATOM    182  H7  TYR d   1      -9.291  -1.500  17.209  0.00  0.00     0.163 HD
BRANCH 180 183
ATOM    183  CA  ASP d   1     -10.027  -0.853  19.604  0.00  0.00     0.185 C 
ATOM    184  H4  ASP d   1      -9.799  -1.922  19.483  0.00  0.00     0.100 H 
BRANCH 183 185
ATOM    185  N   ASP d   1      -9.796  -0.566  21.049  0.00  0.00    -0.066 N 
ATOM    186  H1  ASP d   1     -10.462  -1.079  21.604  0.00  0.00     0.275 HD
ATOM    187  H2  ASP d   1      -9.908   0.421  21.218  0.00  0.00     0.275 HD
ATOM    188  H3  ASP d   1      -8.861  -0.846  21.302  0.00  0.00     0.275 HD
ENDBRANCH 183 185
BRANCH 183 189
ATOM    189  CB  ASP d   1     -11.505  -0.691  19.158  0.00  0.00     0.050 C 
ATOM    190  H5  ASP d   1     -12.072  -1.544  19.558  0.00  0.00     0.052 H 
ATOM    191  H6  ASP d   1     -11.529  -0.719  18.059  0.00  0.00     0.052 H 
BRANCH 189 192
ATOM    192  CG  ASP d   1     -12.218   0.604  19.613  0.00  0.00     0.175 C 
ATOM    193  OD1 ASP d   1     -11.616   1.426  20.345  0.00  0.00    -0.648 OA
ATOM    194  OD2 ASP d   1     -13.399   0.794  19.238  0.00  0.00    -0.648 OA
ENDBRANCH 189 192
ENDBRANCH 183 189
ENDBRANCH 180 183
ENDBRANCH 177 179
BRANCH 177 195
ATOM    195  CB  TYR d   1      -6.586  -0.312  16.556  0.00  0.00    -0.014 C 
ATOM    196  H9  TYR d   1      -6.399  -1.237  15.992  0.00  0.00     0.043 H 
ATOM    197  H10 TYR d   1      -6.393  -0.489  17.624  0.00  0.00     0.043 H 
BRANCH 195 198
ATOM    198  CG  TYR d   1      -5.615   0.751  16.065  0.00  0.00    -0.056 A 
ATOM    199  CD1 TYR d   1      -4.828   1.451  17.003  0.00  0.00    -0.074 A 
ATOM    200  CE1 TYR d   1      -3.937   2.453  16.578  0.00  0.00    -0.051 A 
ATOM    201  H11 TYR d   1      -4.910   1.215  18.058  0.00  0.00     0.084 H 
ATOM    202  CZ  TYR d   1      -3.826   2.771  15.207  0.00  0.00     0.065 A 
ATOM    203  H13 TYR d   1      -3.333   2.983  17.306  0.00  0.00     0.087 H 
ATOM    204  CE2 TYR d   1      -4.616   2.074  14.266  0.00  0.00    -0.051 A 
ATOM    205  CD2 TYR d   1      -5.500   1.058  14.693  0.00  0.00    -0.074 A 
ATOM    206  H14 TYR d   1      -4.544   2.320  13.213  0.00  0.00     0.087 H 
ATOM    207  H12 TYR d   1      -6.091   0.514  13.965  0.00  0.00     0.084 H 
BRANCH 202 208
ATOM    208  OH  TYR d   1      -2.971   3.752  14.814  0.00  0.00    -0.361 OA
ATOM    209  H15 TYR d   1      -2.331   3.390  14.212  0.00  0.00     0.217 HD
ENDBRANCH 202 208
ENDBRANCH 195 198
ENDBRANCH 177 195
ENDBRANCH 174 177
ENDBRANCH 171 173
BRANCH 171 210
ATOM    210  CB  GLU d   1     -10.519  -2.364  13.330  0.00  0.00    -0.029 C 
ATOM    211  H18 GLU d   1     -10.795  -1.481  12.734  0.00  0.00     0.037 H 
ATOM    212  H19 GLU d   1     -10.993  -2.301  14.320  0.00  0.00     0.037 H 
BRANCH 210 213
ATOM    213  CG  GLU d   1     -11.024  -3.626  12.615  0.00  0.00     0.018 C 
ATOM    214  H20 GLU d   1     -10.767  -4.506  13.223  0.00  0.00     0.049 H 
ATOM    215  H21 GLU d   1     -10.531  -3.701  11.634  0.00  0.00     0.049 H 
BRANCH 213 216
ATOM    216  CD  GLU d   1     -12.545  -3.594  12.405  0.00  0.00     0.172 C 
ATOM    217  OE1 GLU d   1     -13.041  -2.659  11.737  0.00  0.00    -0.648 OA
ATOM    218  OE2 GLU d   1     -13.263  -4.512  12.869  0.00  0.00    -0.648 OA
ENDBRANCH 213 216
ENDBRANCH 210 213
ENDBRANCH 171 210
ENDBRANCH 168 171
ENDBRANCH 165 167
BRANCH 165 219
ATOM    219  CB  SER d   1      -8.430  -1.842   8.666  0.00  0.00     0.044 C 
ATOM    220  H24 SER d   1      -9.433  -1.415   8.516  0.00  0.00     0.077 H 
ATOM    221  H25 SER d   1      -8.506  -2.936   8.749  0.00  0.00     0.077 H 
BRANCH 219 222
ATOM    222  OG  SER d   1      -7.602  -1.505   7.571  0.00  0.00    -0.398 OA
ATOM    223  H26 SER d   1      -7.977  -1.856   6.772  0.00  0.00     0.209 HD
ENDBRANCH 219 222
ENDBRANCH 165 219
ENDBRANCH 162 165
ENDBRANCH 159 161
BRANCH 159 224
ATOM    224  CB  ASP d   1      -6.018   3.024  10.486  0.00  0.00     0.043 C 
ATOM    225  H29 ASP d   1      -5.206   3.760  10.580  0.00  0.00     0.052 H 
ATOM    226  H30 ASP d   1      -6.296   2.656  11.485  0.00  0.00     0.052 H 
BRANCH 224 227
ATOM    227  CG  ASP d   1      -7.240   3.717   9.859  0.00  0.00     0.175 C 
ATOM    228  OD1 ASP d   1      -8.222   4.019  10.582  0.00  0.00    -0.648 OA
ATOM    229  OD2 ASP d   1      -7.224   3.993   8.634  0.00  0.00    -0.648 OA
ENDBRANCH 224 227
ENDBRANCH 159 224
ENDBRANCH 156 159
ENDBRANCH 153 155
BRANCH 153 230
ATOM    230  CB  ASP d   1      -1.420   3.585  10.275  0.00  0.00     0.043 C 
ATOM    231  H33 ASP d   1      -1.664   3.803   9.225  0.00  0.00     0.052 H 
ATOM    232  H34 ASP d   1      -0.342   3.731  10.439  0.00  0.00     0.052 H 
BRANCH 230 233
ATOM    233  CG  ASP d   1      -2.175   4.605  11.157  0.00  0.00     0.175 C 
ATOM    234  OD1 ASP d   1      -2.209   5.795  10.759  0.00  0.00    -0.648 OA
ATOM    235  OD2 ASP d   1      -2.704   4.262  12.243  0.00  0.00    -0.648 OA
ENDBRANCH 230 233
ENDBRANCH 153 230
ENDBRANCH 150 153
ENDBRANCH 147 149
BRANCH 147 236
ATOM    236  CB  ASP d   1       2.300   2.295  12.566  0.00  0.00     0.043 C 
ATOM    237  H37 ASP d   1       1.536   2.984  12.956  0.00  0.00     0.052 H 
ATOM    238  H38 ASP d   1       2.768   2.734  11.673  0.00  0.00     0.052 H 
BRANCH 236 239
ATOM    239  CG  ASP d   1       3.386   2.129  13.641  0.00  0.00     0.175 C 
ATOM    240  OD1 ASP d   1       4.215   1.194  13.537  0.00  0.00    -0.648 OA
ATOM    241  OD2 ASP d   1       3.433   2.961  14.577  0.00  0.00    -0.648 OA
ENDBRANCH 236 239
ENDBRANCH 147 236
ENDBRANCH 144 147
ENDBRANCH 141 143
BRANCH 141 242
ATOM    242  CB  SER d   1       1.432   0.246  16.897  0.00  0.00     0.044 C 
ATOM    243  H41 SER d   1       0.546   0.838  17.170  0.00  0.00     0.077 H 
ATOM    244  H42 SER d   1       2.266   0.922  16.657  0.00  0.00     0.077 H 
BRANCH 242 245
ATOM    245  OG  SER d   1       1.802  -0.563  18.005  0.00  0.00    -0.398 OA
ATOM    246  H43 SER d   1       1.085  -1.147  18.223  0.00  0.00     0.209 HD
ENDBRANCH 242 245
ENDBRANCH 141 242
ENDBRANCH 138 141
ENDBRANCH 135 137
BRANCH 135 247
ATOM    247  CB  TYR d   1      -3.230  -1.347  13.531  0.00  0.00    -0.014 C 
ATOM    248  H46 TYR d   1      -3.398  -0.260  13.551  0.00  0.00     0.043 H 
ATOM    249  H47 TYR d   1      -4.198  -1.868  13.556  0.00  0.00     0.043 H 
BRANCH 247 250
ATOM    250  CG  TYR d   1      -2.594  -1.668  12.181  0.00  0.00    -0.056 A 
ATOM    251  CD1 TYR d   1      -1.459  -2.493  12.009  0.00  0.00    -0.074 A 
ATOM    252  CE1 TYR d   1      -0.996  -2.809  10.714  0.00  0.00    -0.051 A 
ATOM    253  H48 TYR d   1      -0.941  -2.885  12.877  0.00  0.00     0.084 H 
ATOM    254  CZ  TYR d   1      -1.681  -2.327   9.580  0.00  0.00     0.065 A 
ATOM    255  H50 TYR d   1      -0.112  -3.424  10.591  0.00  0.00     0.087 H 
ATOM    256  CE2 TYR d   1      -2.817  -1.510   9.747  0.00  0.00    -0.051 A 
ATOM    257  CD2 TYR d   1      -3.261  -1.186  11.045  0.00  0.00    -0.074 A 
ATOM    258  H51 TYR d   1      -3.347  -1.132   8.880  0.00  0.00     0.087 H 
ATOM    259  H49 TYR d   1      -4.133  -0.553  11.167  0.00  0.00     0.084 H 
BRANCH 254 260
ATOM    260  OH  TYR d   1      -1.283  -2.684   8.327  0.00  0.00    -0.361 OA
ATOM    261  H52 TYR d   1      -1.083  -1.903   7.825  0.00  0.00     0.217 HD
ENDBRANCH 254 260
ENDBRANCH 247 250
ENDBRANCH 135 247
ENDBRANCH   1 135
TORSDOF 80
