REMARK WARNING: 32 MAX_TORS EXCEEDED!!!
REMARK  69 active torsions:
REMARK  status: ('A' for Active; 'I' for Inactive)
REMARK    1  A    between atoms: N_1  and  CA_2 
REMARK    2  A    between atoms: CA_2  and  C_3 
REMARK    3  A    between atoms: CA_2  and  CB_5 
REMARK       I    between atoms: C_3  and  N_10 
REMARK    4  A    between atoms: CB_5  and  CG_6 
REMARK    5  A    between atoms: CG_6  and  CD_7 
REMARK    6  A    between atoms: N_10  and  CA_11 
REMARK    7  A    between atoms: CA_11  and  C_12 
REMARK    8  A    between atoms: CA_11  and  CB_14 
REMARK       I    between atoms: C_12  and  N_18 
REMARK    9  A    between atoms: CB_14  and  CG1_15 
REMARK   10  A    between atoms: CB_14  and  CG2_16 
REMARK   11  A    between atoms: CG1_15  and  CD1_17 
REMARK   12  A    between atoms: N_18  and  CA_19 
REMARK   13  A    between atoms: CA_19  and  C_20 
REMARK   14  A    between atoms: CA_19  and  CB_22 
REMARK       I    between atoms: C_20  and  N_27 
REMARK   15  A    between atoms: CB_22  and  CG_23 
REMARK   16  A    between atoms: CG_23  and  CD_24 
REMARK   17  A    between atoms: CD_24  and  CE_25 
REMARK   18  A    between atoms: CE_25  and  NZ_26 
REMARK   19  A    between atoms: N_27  and  CA_28 
REMARK   20  A    between atoms: CA_28  and  C_29 
REMARK   21  A    between atoms: CA_28  and  CB_31 
REMARK       I    between atoms: C_29  and  N_35 
REMARK   22  A    between atoms: CB_31  and  CG_32 
REMARK   23  A    between atoms: CG_32  and  CD1_33 
REMARK   24  A    between atoms: CG_32  and  CD2_34 
REMARK   25  A    between atoms: N_35  and  CA_36 
REMARK   26  A    between atoms: CA_36  and  C_37 
REMARK   27  A    between atoms: CA_36  and  CB_39 
REMARK       I    between atoms: C_37  and  N_44 
REMARK   28  A    between atoms: CB_39  and  CG_40 
REMARK   29  A    between atoms: CG_40  and  CD_41 
REMARK   30  A    between atoms: CD_41  and  CE_42 
REMARK   31  A    between atoms: CE_42  and  NZ_43 
REMARK   32  A    between atoms: N_44  and  CA_45 
REMARK   33  A    between atoms: CA_45  and  C_46 
REMARK   34  A    between atoms: CA_45  and  CB_48 
REMARK       I    between atoms: C_46  and  N_52 
REMARK   35  A    between atoms: CB_48  and  CG1_49 
REMARK   36  A    between atoms: CB_48  and  CG2_50 
REMARK   37  A    between atoms: CG1_49  and  CD1_51 
REMARK   38  A    between atoms: N_52  and  CA_53 
REMARK   39  A    between atoms: CA_53  and  C_54 
REMARK   40  A    between atoms: CA_53  and  CB_56 
REMARK       I    between atoms: C_54  and  N_59 
REMARK   41  A    between atoms: CB_56  and  OG1_57 
REMARK   42  A    between atoms: CB_56  and  CG2_58 
REMARK   43  A    between atoms: N_59  and  CA_60 
REMARK   44  A    between atoms: CA_60  and  C_61 
REMARK   45  A    between atoms: CA_60  and  CB_63 
REMARK       I    between atoms: C_61  and  N_68 
REMARK   46  A    between atoms: CB_63  and  CG_64 
REMARK   47  A    between atoms: CG_64  and  CD_65 
REMARK   48  A    between atoms: CD_65  and  CE_66 
REMARK   49  A    between atoms: CE_66  and  NZ_67 
REMARK   50  A    between atoms: N_68  and  CA_69 
REMARK   51  A    between atoms: CA_69  and  C_70 
REMARK   52  A    between atoms: CA_69  and  CB_72 
REMARK       I    between atoms: C_70  and  N_75 
REMARK   53  A    between atoms: CB_72  and  OG1_73 
REMARK   54  A    between atoms: CB_72  and  CG2_74 
REMARK   55  A    between atoms: N_75  and  CA_76 
REMARK   56  A    between atoms: CA_76  and  C_77 
REMARK   57  A    between atoms: CA_76  and  CB_79 
REMARK       I    between atoms: C_77  and  N_83 
REMARK   58  A    between atoms: CB_79  and  CG1_80 
REMARK   59  A    between atoms: CB_79  and  CG2_81 
REMARK   60  A    between atoms: CG1_80  and  CD1_82 
REMARK   61  A    between atoms: N_83  and  CA_84 
REMARK   62  A    between atoms: CA_84  and  C_85 
REMARK   63  A    between atoms: CA_84  and  CB_87 
REMARK       I    between atoms: C_85  and  N_92 
REMARK   64  A    between atoms: CB_87  and  CG_88 
REMARK   65  A    between atoms: CG_88  and  CD_89 
REMARK       I    between atoms: CD_89  and  NE2_91 
REMARK   66  A    between atoms: N_92  and  CA_93 
REMARK   67  A    between atoms: CA_93  and  C_94 
REMARK   68  A    between atoms: CA_93  and  CB_96 
REMARK   69  A    between atoms: CB_96  and  CG_97 
REMARK       I    between atoms: CG_97  and  ND2_99 
ROOT
ATOM      1  CA  ILE d   1       6.807   4.530   3.277  0.00  0.00     0.092 C 
ATOM      2  H58 ILE d   1       7.003   3.843   4.113  0.00  0.00     0.088 H 
ENDROOT
BRANCH   1   3
ATOM      3  N   ILE d   1       5.921   5.573   3.756  0.00  0.00    -0.346 N 
ATOM      4  C   LYS d   1       6.187   6.181   4.904  0.00  0.00     0.241 C 
ATOM      5  O   LYS d   1       7.111   5.830   5.639  0.00  0.00    -0.271 OA
ATOM      6  H57 ILE d   1       5.115   5.832   3.224  0.00  0.00     0.163 HD
BRANCH   4   7
ATOM      7  CA  LYS d   1       5.270   7.318   5.316  0.00  0.00     0.089 C 
ATOM      8  H45 LYS d   1       4.969   7.883   4.421  0.00  0.00     0.087 H 
BRANCH   7   9
ATOM      9  N   LYS d   1       4.084   6.781   5.951  0.00  0.00    -0.346 N 
ATOM     10  C   LEU d   1       3.071   6.327   5.239  0.00  0.00     0.241 C 
ATOM     11  O   LEU d   1       2.995   6.465   4.016  0.00  0.00    -0.271 OA
ATOM     12  H44 LYS d   1       4.032   6.754   6.949  0.00  0.00     0.163 HD
BRANCH  10  13
ATOM     13  CA  LEU d   1       1.966   5.630   6.017  0.00  0.00     0.089 C 
ATOM     14  H34 LEU d   1       2.372   5.280   6.978  0.00  0.00     0.087 H 
BRANCH  13  15
ATOM     15  N   LEU d   1       0.886   6.566   6.288  0.00  0.00    -0.346 N 
ATOM     16  C   LYS d   1       0.624   6.967   7.524  0.00  0.00     0.241 C 
ATOM     17  O   LYS d   1       1.232   6.538   8.505  0.00  0.00    -0.271 OA
ATOM     18  H33 LEU d   1       0.333   6.912   5.530  0.00  0.00     0.163 HD
BRANCH  16  19
ATOM     19  CA  LYS d   1      -0.483   7.998   7.688  0.00  0.00     0.089 C 
ATOM     20  H21 LYS d   1      -1.037   8.075   6.741  0.00  0.00     0.087 H 
BRANCH  19  21
ATOM     21  N   LYS d   1      -1.411   7.594   8.735  0.00  0.00    -0.346 N 
ATOM     22  C   ILE d   1      -2.699   7.389   8.493  0.00  0.00     0.241 C 
ATOM     23  O   ILE d   1      -3.212   7.543   7.381  0.00  0.00    -0.271 OA
ATOM     24  H20 LYS d   1      -1.067   7.467   9.665  0.00  0.00     0.163 HD
BRANCH  22  25
ATOM     25  CA  ILE d   1      -3.544   6.960   9.689  0.00  0.00     0.092 C 
ATOM     26  H10 ILE d   1      -2.889   6.868  10.568  0.00  0.00     0.088 H 
BRANCH  25  27
ATOM     27  N   ILE d   1      -4.558   7.966   9.984  0.00  0.00    -0.346 N 
ATOM     28  C   GLU d   1      -4.830   8.341  11.230  0.00  0.00     0.249 C 
ATOM     29  O   GLU d   1      -4.267   7.850  12.209  0.00  0.00    -0.271 OA
ATOM     30  H9  ILE d   1      -5.062   8.385   9.229  0.00  0.00     0.163 HD
BRANCH  28  31
ATOM     31  CA  GLU d   1      -5.898   9.421  11.400  0.00  0.00     0.176 C 
ATOM     32  H4  GLU d   1      -5.790  10.155  10.588  0.00  0.00     0.099 H 
BRANCH  31  33
ATOM     33  N   GLU d   1      -7.255   8.833  11.327  0.00  0.00    -0.066 N 
ATOM     34  H1  GLU d   1      -7.943   9.561  11.441  0.00  0.00     0.275 HD
ATOM     35  H2  GLU d   1      -7.365   8.149  12.059  0.00  0.00     0.275 HD
ATOM     36  H3  GLU d   1      -7.381   8.389  10.431  0.00  0.00     0.275 HD
ENDBRANCH  31  33
BRANCH  31  37
ATOM     37  CB  GLU d   1      -5.703  10.135  12.739  0.00  0.00    -0.021 C 
ATOM     38  H5  GLU d   1      -4.677  10.529  12.775  0.00  0.00     0.037 H 
ATOM     39  H6  GLU d   1      -5.843   9.401  13.547  0.00  0.00     0.037 H 
BRANCH  37  40
ATOM     40  CG  GLU d   1      -6.667  11.288  12.967  0.00  0.00     0.018 C 
ATOM     41  H7  GLU d   1      -6.438  11.753  13.937  0.00  0.00     0.049 H 
ATOM     42  H8  GLU d   1      -7.693  10.892  12.984  0.00  0.00     0.049 H 
BRANCH  40  43
ATOM     43  CD  GLU d   1      -6.573  12.344  11.889  0.00  0.00     0.172 C 
ATOM     44  OE1 GLU d   1      -5.699  13.226  11.989  0.00  0.00    -0.648 OA
ATOM     45  OE2 GLU d   1      -7.368  12.290  10.930  0.00  0.00    -0.648 OA
ENDBRANCH  40  43
ENDBRANCH  37  40
ENDBRANCH  31  37
ENDBRANCH  28  31
ENDBRANCH  25  27
BRANCH  25  46
ATOM     46  CB  ILE d   1      -4.165   5.572   9.398  0.00  0.00    -0.030 C 
ATOM     47  H11 ILE d   1      -4.837   5.667   8.532  0.00  0.00     0.043 H 
BRANCH  46  48
ATOM     48  CG1 ILE d   1      -4.989   5.090  10.598  0.00  0.00    -0.063 C 
ATOM     49  H12 ILE d   1      -5.856   5.757  10.713  0.00  0.00     0.033 H 
ATOM     50  H13 ILE d   1      -4.359   5.150  11.498  0.00  0.00     0.033 H 
BRANCH  48  51
ATOM     51  CD1 ILE d   1      -5.494   3.671  10.464  0.00  0.00    -0.076 C 
ATOM     52  H17 ILE d   1      -6.072   3.402  11.360  0.00  0.00     0.027 H 
ATOM     53  H18 ILE d   1      -4.640   2.986  10.360  0.00  0.00     0.027 H 
ATOM     54  H19 ILE d   1      -6.137   3.593   9.575  0.00  0.00     0.027 H 
ENDBRANCH  48  51
ENDBRANCH  46  48
BRANCH  46  55
ATOM     55  CG2 ILE d   1      -3.076   4.561   9.053  0.00  0.00    -0.071 C 
ATOM     56  H14 ILE d   1      -2.498   4.925   8.191  0.00  0.00     0.028 H 
ATOM     57  H15 ILE d   1      -3.539   3.595   8.802  0.00  0.00     0.028 H 
ATOM     58  H16 ILE d   1      -2.407   4.434   9.917  0.00  0.00     0.028 H 
ENDBRANCH  46  55
ENDBRANCH  25  46
ENDBRANCH  22  25
ENDBRANCH  19  21
BRANCH  19  59
ATOM     59  CB  LYS d   1       0.131   9.362   8.012  0.00  0.00    -0.038 C 
ATOM     60  H22 LYS d   1       0.913   9.577   7.269  0.00  0.00     0.036 H 
ATOM     61  H23 LYS d   1       0.581   9.312   9.014  0.00  0.00     0.036 H 
BRANCH  59  62
ATOM     62  CG  LYS d   1      -0.874  10.497   7.993  0.00  0.00    -0.061 C 
ATOM     63  H24 LYS d   1      -1.608  10.334   8.796  0.00  0.00     0.033 H 
ATOM     64  H25 LYS d   1      -1.388  10.499   7.021  0.00  0.00     0.033 H 
BRANCH  62  65
ATOM     65  CD  LYS d   1      -0.215  11.844   8.200  0.00  0.00    -0.043 C 
ATOM     66  H26 LYS d   1       0.654  11.927   7.531  0.00  0.00     0.035 H 
ATOM     67  H27 LYS d   1       0.118  11.926   9.245  0.00  0.00     0.035 H 
BRANCH  65  68
ATOM     68  CE  LYS d   1      -1.187  12.970   7.897  0.00  0.00     0.080 C 
ATOM     69  H28 LYS d   1      -0.649  13.928   7.943  0.00  0.00     0.075 H 
ATOM     70  H29 LYS d   1      -1.988  12.963   8.651  0.00  0.00     0.075 H 
BRANCH  68  71
ATOM     71  NZ  LYS d   1      -1.795  12.822   6.546  0.00  0.00    -0.079 N 
ATOM     72  H30 LYS d   1      -2.433  13.585   6.379  0.00  0.00     0.274 HD
ATOM     73  H31 LYS d   1      -2.295  11.948   6.497  0.00  0.00     0.274 HD
ATOM     74  H32 LYS d   1      -1.068  12.833   5.848  0.00  0.00     0.274 HD
ENDBRANCH  68  71
ENDBRANCH  65  68
ENDBRANCH  62  65
ENDBRANCH  59  62
ENDBRANCH  19  59
ENDBRANCH  16  19
ENDBRANCH  13  15
BRANCH  13  75
ATOM     75  CB  LEU d   1       1.477   4.412   5.220  0.00  0.00    -0.035 C 
ATOM     76  H35 LEU d   1       1.674   4.604   4.155  0.00  0.00     0.037 H 
ATOM     77  H36 LEU d   1       0.393   4.316   5.381  0.00  0.00     0.037 H 
BRANCH  75  78
ATOM     78  CG  LEU d   1       2.131   3.063   5.587  0.00  0.00    -0.059 C 
ATOM     79  H37 LEU d   1       1.716   2.740   6.553  0.00  0.00     0.038 H 
BRANCH  78  80
ATOM     80  CD1 LEU d   1       1.799   2.005   4.548  0.00  0.00    -0.073 C 
ATOM     81  H38 LEU d   1       2.274   1.054   4.829  0.00  0.00     0.028 H 
ATOM     82  H39 LEU d   1       2.174   2.326   3.565  0.00  0.00     0.028 H 
ATOM     83  H40 LEU d   1       0.709   1.869   4.498  0.00  0.00     0.028 H 
ENDBRANCH  78  80
BRANCH  78  84
ATOM     84  CD2 LEU d   1       3.643   3.182   5.740  0.00  0.00    -0.073 C 
ATOM     85  H41 LEU d   1       3.876   3.949   6.493  0.00  0.00     0.028 H 
ATOM     86  H42 LEU d   1       4.088   3.468   4.776  0.00  0.00     0.028 H 
ATOM     87  H43 LEU d   1       4.056   2.215   6.062  0.00  0.00     0.028 H 
ENDBRANCH  78  84
ENDBRANCH  75  78
ENDBRANCH  13  75
ENDBRANCH  10  13
ENDBRANCH   7   9
BRANCH   7  88
ATOM     88  CB  LYS d   1       6.024   8.253   6.262  0.00  0.00    -0.038 C 
ATOM     89  H46 LYS d   1       7.036   8.405   5.860  0.00  0.00     0.036 H 
ATOM     90  H47 LYS d   1       6.090   7.766   7.246  0.00  0.00     0.036 H 
BRANCH  88  91
ATOM     91  CG  LYS d   1       5.381   9.613   6.450  0.00  0.00    -0.061 C 
ATOM     92  H48 LYS d   1       5.968  10.189   7.180  0.00  0.00     0.033 H 
ATOM     93  H49 LYS d   1       4.357   9.476   6.829  0.00  0.00     0.033 H 
BRANCH  91  94
ATOM     94  CD  LYS d   1       5.326  10.382   5.144  0.00  0.00    -0.043 C 
ATOM     95  H50 LYS d   1       4.507   9.983   4.528  0.00  0.00     0.035 H 
ATOM     96  H51 LYS d   1       6.280  10.254   4.612  0.00  0.00     0.035 H 
BRANCH  94  97
ATOM     97  CE  LYS d   1       5.089  11.860   5.383  0.00  0.00     0.080 C 
ATOM     98  H52 LYS d   1       4.901  12.350   4.416  0.00  0.00     0.075 H 
ATOM     99  H53 LYS d   1       5.988  12.293   5.846  0.00  0.00     0.075 H 
BRANCH  97 100
ATOM    100  NZ  LYS d   1       3.923  12.101   6.279  0.00  0.00    -0.079 N 
ATOM    101  H54 LYS d   1       3.800  13.093   6.412  0.00  0.00     0.274 HD
ATOM    102  H55 LYS d   1       4.088  11.661   7.171  0.00  0.00     0.274 HD
ATOM    103  H56 LYS d   1       3.092  11.713   5.861  0.00  0.00     0.274 HD
ENDBRANCH  97 100
ENDBRANCH  94  97
ENDBRANCH  91  94
ENDBRANCH  88  91
ENDBRANCH   7  88
ENDBRANCH   4   7
ENDBRANCH   1   3
BRANCH   1 104
ATOM    104  C   ILE d   1       8.116   5.162   2.826  0.00  0.00     0.241 C 
ATOM    105  O   ILE d   1       8.154   5.862   1.813  0.00  0.00    -0.271 OA
ATOM    106  N   THR d   1       9.173   4.925   3.573  0.00  0.00    -0.344 N 
ATOM    107  H68 THR d   1       9.081   4.336   4.376  0.00  0.00     0.163 HD
BRANCH 106 108
ATOM    108  CA  THR d   1      10.469   5.498   3.259  0.00  0.00     0.113 C 
ATOM    109  H69 THR d   1      10.318   6.420   2.678  0.00  0.00     0.091 H 
BRANCH 108 110
ATOM    110  C   THR d   1      11.299   4.519   2.430  0.00  0.00     0.243 C 
ATOM    111  O   THR d   1      11.843   3.551   2.967  0.00  0.00    -0.271 OA
ATOM    112  N   LYS d   1      11.389   4.763   1.123  0.00  0.00    -0.346 N 
ATOM    113  H75 LYS d   1      10.934   5.568   0.742  0.00  0.00     0.163 HD
BRANCH 112 114
ATOM    114  CA  LYS d   1      12.139   3.877   0.235  0.00  0.00     0.089 C 
ATOM    115  H76 LYS d   1      13.118   3.691   0.701  0.00  0.00     0.087 H 
BRANCH 114 116
ATOM    116  C   LYS d   1      12.389   4.536  -1.121  0.00  0.00     0.241 C 
ATOM    117  O   LYS d   1      12.139   5.726  -1.282  0.00  0.00    -0.271 OA
ATOM    118  N   THR d   1      12.890   3.744  -2.074  0.00  0.00    -0.344 N 
ATOM    119  H88 THR d   1      13.023   2.777  -1.855  0.00  0.00     0.163 HD
BRANCH 118 120
ATOM    120  CA  THR d   1      13.259   4.199  -3.426  0.00  0.00     0.113 C 
ATOM    121  H89 THR d   1      13.696   3.331  -3.942  0.00  0.00     0.091 H 
BRANCH 120 122
ATOM    122  C   THR d   1      14.325   5.294  -3.387  0.00  0.00     0.243 C 
ATOM    123  O   THR d   1      14.548   5.994  -4.375  0.00  0.00    -0.271 OA
ATOM    124  N   ILE d   1      14.998   5.415  -2.249  0.00  0.00    -0.346 N 
ATOM    125  H95 ILE d   1      14.782   4.802  -1.490  0.00  0.00     0.163 HD
BRANCH 124 126
ATOM    126  CA  ILE d   1      16.040   6.413  -2.075  0.00  0.00     0.092 C 
ATOM    127  H96 ILE d   1      15.643   7.386  -2.401  0.00  0.00     0.088 H 
BRANCH 126 128
ATOM    128  C   ILE d   1      17.249   6.070  -2.944  0.00  0.00     0.241 C 
ATOM    129  O   ILE d   1      17.723   4.930  -2.954  0.00  0.00    -0.271 OA
ATOM    130  N   GLN d   1      17.718   7.055  -3.697  0.00  0.00    -0.346 N 
ATOM    131 6H10 GLN d   1      17.288   7.956  -3.639  0.00  0.00     0.163 HD
BRANCH 130 132
ATOM    132  CA  GLN d   1      18.839   6.866  -4.606  0.00  0.00     0.090 C 
ATOM    133 7H10 GLN d   1      18.602   6.026  -5.276  0.00  0.00     0.087 H 
BRANCH 132 134
ATOM    134  C   GLN d   1      20.112   6.525  -3.844  0.00  0.00     0.241 C 
ATOM    135  O   GLN d   1      20.372   7.066  -2.768  0.00  0.00    -0.271 OA
ATOM    136  N   ASN d   1      20.893   5.619  -4.403  0.00  0.00    -0.344 N 
ATOM    137 4H11 ASN d   1      20.618   5.209  -5.273  0.00  0.00     0.163 HD
BRANCH 136 138
ATOM    138  CA  ASN d   1      22.139   5.202  -3.790  0.00  0.00     0.104 C 
ATOM    139 5H11 ASN d   1      22.330   5.851  -2.922  0.00  0.00     0.090 H 
BRANCH 138 140
ATOM    140  C   ASN d   1      23.286   5.376  -4.774  0.00  0.00     0.197 C 
ATOM    141  O   ASN d   1      24.239   6.106  -4.441  0.00  0.00    -0.646 OA
ATOM    142  OXT ASN d   1      23.205   4.832  -5.895  0.00  0.00    -0.646 OA
ENDBRANCH 138 140
BRANCH 138 143
ATOM    143  CB  ASN d   1      22.050   3.753  -3.287  0.00  0.00     0.037 C 
ATOM    144 6H11 ASN d   1      21.264   3.699  -2.519  0.00  0.00     0.051 H 
ATOM    145 7H11 ASN d   1      23.018   3.480  -2.841  0.00  0.00     0.051 H 
BRANCH 143 146
ATOM    146  CG  ASN d   1      21.724   2.749  -4.378  0.00  0.00     0.217 C 
ATOM    147  OD1 ASN d   1      20.555   2.508  -4.686  0.00  0.00    -0.274 OA
ATOM    148  ND2 ASN d   1      22.749   2.137  -4.950  0.00  0.00    -0.370 N 
ATOM    149 8H11 ASN d   1      22.590   1.466  -5.674  0.00  0.00     0.159 HD
ATOM    150 9H11 ASN d   1      23.682   2.345  -4.658  0.00  0.00     0.159 HD
ENDBRANCH 143 146
ENDBRANCH 138 143
ENDBRANCH 136 138
ENDBRANCH 132 134
BRANCH 132 151
ATOM    151  CB  GLN d   1      19.051   8.120  -5.458  0.00  0.00    -0.030 C 
ATOM    152 8H10 GLN d   1      18.153   8.276  -6.074  0.00  0.00     0.037 H 
ATOM    153 9H10 GLN d   1      19.919   7.951  -6.112  0.00  0.00     0.037 H 
BRANCH 151 154
ATOM    154  CG  GLN d   1      19.300   9.383  -4.648  0.00  0.00     0.011 C 
ATOM    155 0H11 GLN d   1      20.208   9.240  -4.044  0.00  0.00     0.047 H 
ATOM    156 1H11 GLN d   1      18.440   9.550  -3.983  0.00  0.00     0.047 H 
BRANCH 154 157
ATOM    157  CD  GLN d   1      19.485  10.610  -5.518  0.00  0.00     0.215 C 
ATOM    158  OE1 GLN d   1      20.198  11.543  -5.149  0.00  0.00    -0.274 OA
ATOM    159  NE2 GLN d   1      18.848  10.622  -6.679  0.00  0.00    -0.370 N 
ATOM    160 2H11 GLN d   1      18.937  11.409  -7.290  0.00  0.00     0.159 HD
ATOM    161 3H11 GLN d   1      18.278   9.845  -6.945  0.00  0.00     0.159 HD
ENDBRANCH 154 157
ENDBRANCH 151 154
ENDBRANCH 132 151
ENDBRANCH 130 132
ENDBRANCH 126 128
BRANCH 126 162
ATOM    162  CB  ILE d   1      16.457   6.534  -0.586  0.00  0.00    -0.030 C 
ATOM    163  H97 ILE d   1      15.580   6.873  -0.015  0.00  0.00     0.043 H 
BRANCH 162 164
ATOM    164  CG1 ILE d   1      17.569   7.574  -0.410  0.00  0.00    -0.063 C 
ATOM    165  H98 ILE d   1      18.407   7.301  -1.069  0.00  0.00     0.033 H 
ATOM    166  H99 ILE d   1      17.904   7.550   0.638  0.00  0.00     0.033 H 
BRANCH 164 167
ATOM    167  CD1 ILE d   1      17.142   8.988  -0.742  0.00  0.00    -0.076 C 
ATOM    168 3H10 ILE d   1      17.990   9.672  -0.592  0.00  0.00     0.027 H 
ATOM    169 4H10 ILE d   1      16.311   9.284  -0.085  0.00  0.00     0.027 H 
ATOM    170 5H10 ILE d   1      16.814   9.035  -1.791  0.00  0.00     0.027 H 
ENDBRANCH 164 167
ENDBRANCH 162 164
BRANCH 162 171
ATOM    171  CG2 ILE d   1      16.893   5.186  -0.025  0.00  0.00    -0.071 C 
ATOM    172 0H10 ILE d   1      16.084   4.454  -0.160  0.00  0.00     0.028 H 
ATOM    173 1H10 ILE d   1      17.118   5.290   1.047  0.00  0.00     0.028 H 
ATOM    174 2H10 ILE d   1      17.792   4.841  -0.557  0.00  0.00     0.028 H 
ENDBRANCH 162 171
ENDBRANCH 126 162
ENDBRANCH 124 126
ENDBRANCH 120 122
BRANCH 120 175
ATOM    175  CB  THR d   1      12.049   4.677  -4.282  0.00  0.00     0.060 C 
ATOM    176  H90 THR d   1      12.421   4.925  -5.287  0.00  0.00     0.086 H 
BRANCH 175 177
ATOM    177  OG1 THR d   1      11.439   5.847  -3.722  0.00  0.00    -0.393 OA
ATOM    178  H91 THR d   1      11.130   5.652  -2.845  0.00  0.00     0.210 HD
ENDBRANCH 175 177
BRANCH 175 179
ATOM    179  CG2 THR d   1      10.998   3.586  -4.412  0.00  0.00    -0.050 C 
ATOM    180  H92 THR d   1      10.159   3.955  -5.021  0.00  0.00     0.031 H 
ATOM    181  H93 THR d   1      10.631   3.309  -3.413  0.00  0.00     0.031 H 
ATOM    182  H94 THR d   1      11.443   2.704  -4.897  0.00  0.00     0.031 H 
ENDBRANCH 175 179
ENDBRANCH 120 175
ENDBRANCH 118 120
ENDBRANCH 114 116
BRANCH 114 183
ATOM    183  CB  LYS d   1      11.434   2.511   0.071  0.00  0.00    -0.038 C 
ATOM    184  H77 LYS d   1      11.078   2.197   1.063  0.00  0.00     0.036 H 
ATOM    185  H78 LYS d   1      12.181   1.791  -0.296  0.00  0.00     0.036 H 
BRANCH 183 186
ATOM    186  CG  LYS d   1      10.239   2.470  -0.886  0.00  0.00    -0.061 C 
ATOM    187  H79 LYS d   1       9.858   1.439  -0.926  0.00  0.00     0.033 H 
ATOM    188  H80 LYS d   1      10.581   2.774  -1.886  0.00  0.00     0.033 H 
BRANCH 186 189
ATOM    189  CD  LYS d   1       9.109   3.386  -0.463  0.00  0.00    -0.043 C 
ATOM    190  H81 LYS d   1       9.212   3.617   0.608  0.00  0.00     0.035 H 
ATOM    191  H82 LYS d   1       8.148   2.880  -0.638  0.00  0.00     0.035 H 
BRANCH 189 192
ATOM    192  CE  LYS d   1       9.144   4.674  -1.255  0.00  0.00     0.080 C 
ATOM    193  H83 LYS d   1       8.937   4.445  -2.311  0.00  0.00     0.075 H 
ATOM    194  H84 LYS d   1      10.147   5.117  -1.165  0.00  0.00     0.075 H 
BRANCH 192 195
ATOM    195  NZ  LYS d   1       8.148   5.654  -0.778  0.00  0.00    -0.079 N 
ATOM    196  H85 LYS d   1       8.209   6.493  -1.334  0.00  0.00     0.274 HD
ATOM    197  H86 LYS d   1       8.332   5.877   0.188  0.00  0.00     0.274 HD
ATOM    198  H87 LYS d   1       7.223   5.261  -0.862  0.00  0.00     0.274 HD
ENDBRANCH 192 195
ENDBRANCH 189 192
ENDBRANCH 186 189
ENDBRANCH 183 186
ENDBRANCH 114 183
ENDBRANCH 112 114
ENDBRANCH 108 110
BRANCH 108 199
ATOM    199  CB  THR d   1      11.223   5.840   4.555  0.00  0.00     0.060 C 
ATOM    200  H70 THR d   1      11.703   4.928   4.938  0.00  0.00     0.086 H 
BRANCH 199 201
ATOM    201  OG1 THR d   1      10.295   6.333   5.526  0.00  0.00    -0.393 OA
ATOM    202  H71 THR d   1       9.870   7.113   5.189  0.00  0.00     0.210 HD
ENDBRANCH 199 201
BRANCH 199 203
ATOM    203  CG2 THR d   1      12.285   6.894   4.319  0.00  0.00    -0.050 C 
ATOM    204  H72 THR d   1      12.802   7.112   5.265  0.00  0.00     0.031 H 
ATOM    205  H73 THR d   1      11.813   7.812   3.939  0.00  0.00     0.031 H 
ATOM    206  H74 THR d   1      13.012   6.523   3.581  0.00  0.00     0.031 H 
ENDBRANCH 199 203
ENDBRANCH 108 199
ENDBRANCH 106 108
ENDBRANCH   1 104
BRANCH   1 207
ATOM    207  CB  ILE d   1       6.256   3.703   2.094  0.00  0.00    -0.030 C 
ATOM    208  H59 ILE d   1       6.501   4.224   1.157  0.00  0.00     0.043 H 
BRANCH 207 209
ATOM    209  CG1 ILE d   1       4.752   3.478   2.149  0.00  0.00    -0.063 C 
ATOM    210  H60 ILE d   1       4.255   4.453   2.261  0.00  0.00     0.033 H 
ATOM    211  H61 ILE d   1       4.523   2.847   3.020  0.00  0.00     0.033 H 
BRANCH 209 212
ATOM    212  CD1 ILE d   1       4.212   2.800   0.905  0.00  0.00    -0.076 C 
ATOM    213  H65 ILE d   1       3.125   2.665   1.004  0.00  0.00     0.027 H 
ATOM    214  H66 ILE d   1       4.694   1.819   0.784  0.00  0.00     0.027 H 
ATOM    215  H67 ILE d   1       4.426   3.424   0.025  0.00  0.00     0.027 H 
ENDBRANCH 209 212
ENDBRANCH 207 209
BRANCH 207 216
ATOM    216  CG2 ILE d   1       6.922   2.353   2.118  0.00  0.00    -0.071 C 
ATOM    217  H62 ILE d   1       8.014   2.482   2.079  0.00  0.00     0.028 H 
ATOM    218  H63 ILE d   1       6.591   1.765   1.249  0.00  0.00     0.028 H 
ATOM    219  H64 ILE d   1       6.648   1.825   3.043  0.00  0.00     0.028 H 
ENDBRANCH 207 216
ENDBRANCH   1 207
TORSDOF 69
