REMARK WARNING: 32 MAX_TORS EXCEEDED!!!
REMARK  86 active torsions:
REMARK  status: ('A' for Active; 'I' for Inactive)
REMARK    1  A    between atoms: N_1  and  CA_2 
REMARK    2  A    between atoms: CA_2  and  C_3 
REMARK    3  A    between atoms: CA_2  and  CB_5 
REMARK       I    between atoms: C_3  and  N_9 
REMARK    4  A    between atoms: CB_5  and  CG_6 
REMARK       I    between atoms: CG_6  and  ND2_8 
REMARK    5  A    between atoms: N_9  and  CA_10 
REMARK    6  A    between atoms: CA_10  and  C_11 
REMARK    7  A    between atoms: CA_10  and  CB_13 
REMARK       I    between atoms: C_11  and  N_17 
REMARK    8  A    between atoms: CB_13  and  CG_14 
REMARK    9  A    between atoms: CG_14  and  CD1_15 
REMARK   10  A    between atoms: CG_14  and  CD2_16 
REMARK   11  A    between atoms: N_17  and  CA_18 
REMARK   12  A    between atoms: CA_18  and  C_19 
REMARK   13  A    between atoms: CA_18  and  CB_21 
REMARK       I    between atoms: C_19  and  N_26 
REMARK   14  A    between atoms: CB_21  and  CG_22 
REMARK   15  A    between atoms: CG_22  and  CD_23 
REMARK       I    between atoms: CD_23  and  NE2_25 
REMARK   16  A    between atoms: N_26  and  CA_27 
REMARK   17  A    between atoms: CA_27  and  C_28 
REMARK   18  A    between atoms: CA_27  and  CB_30 
REMARK       I    between atoms: C_28  and  N_32 
REMARK   19  A    between atoms: CB_30  and  OG_31 
REMARK   20  A    between atoms: N_32  and  CA_33 
REMARK   21  A    between atoms: CA_33  and  C_34 
REMARK   22  A    between atoms: CA_33  and  CB_36 
REMARK       I    between atoms: C_34  and  N_38 
REMARK   23  A    between atoms: CB_36  and  OG_37 
REMARK   24  A    between atoms: N_38  and  CA_39 
REMARK   25  A    between atoms: CA_39  and  C_40 
REMARK   26  A    between atoms: CA_39  and  CB_42 
REMARK       I    between atoms: C_40  and  N_46 
REMARK   27  A    between atoms: CB_42  and  CG1_43 
REMARK   28  A    between atoms: CB_42  and  CG2_44 
REMARK   29  A    between atoms: CG1_43  and  CD1_45 
REMARK   30  A    between atoms: N_46  and  CA_47 
REMARK   31  A    between atoms: CA_47  and  C_48 
REMARK   32  A    between atoms: CA_47  and  CB_50 
REMARK       I    between atoms: C_48  and  N_53 
REMARK   33  A    between atoms: CB_50  and  CG1_51 
REMARK   34  A    between atoms: CB_50  and  CG2_52 
REMARK   35  A    between atoms: N_53  and  CA_54 
REMARK   36  A    between atoms: CA_54  and  C_55 
REMARK   37  A    between atoms: CA_54  and  CB_57 
REMARK       I    between atoms: C_55  and  N_62 
REMARK   38  A    between atoms: CB_57  and  CG_58 
REMARK   39  A    between atoms: CG_58  and  CD_59 
REMARK   40  A    between atoms: CD_59  and  CE_60 
REMARK   41  A    between atoms: CE_60  and  NZ_61 
REMARK   42  A    between atoms: N_62  and  CA_63 
REMARK   43  A    between atoms: CA_63  and  C_64 
REMARK   44  A    between atoms: CA_63  and  CB_66 
REMARK       I    between atoms: C_64  and  N_73 
REMARK   45  A    between atoms: CB_66  and  CG_67 
REMARK   46  A    between atoms: N_73  and  CA_74 
REMARK   47  A    between atoms: CA_74  and  C_75 
REMARK   48  A    between atoms: CA_74  and  CB_77 
REMARK       I    between atoms: C_75  and  N_82 
REMARK   49  A    between atoms: CB_77  and  CG_78 
REMARK   50  A    between atoms: CG_78  and  CD_79 
REMARK   51  A    between atoms: CD_79  and  CE_80 
REMARK   52  A    between atoms: CE_80  and  NZ_81 
REMARK   53  A    between atoms: N_82  and  CA_83 
REMARK   54  A    between atoms: CA_83  and  C_84 
REMARK   55  A    between atoms: CA_83  and  CB_86 
REMARK       I    between atoms: C_84  and  N_91 
REMARK   56  A    between atoms: CB_86  and  CG_87 
REMARK   57  A    between atoms: CG_87  and  CD_88 
REMARK   58  A    between atoms: CD_88  and  CE_89 
REMARK   59  A    between atoms: CE_89  and  NZ_90 
REMARK   60  A    between atoms: CA_92  and  C_93 
REMARK       I    between atoms: C_93  and  N_98 
REMARK   61  A    between atoms: N_98  and  CA_99 
REMARK   62  A    between atoms: CA_99  and  C_100 
REMARK   63  A    between atoms: CA_99  and  CB_102 
REMARK       I    between atoms: C_100  and  N_106 
REMARK   64  A    between atoms: CB_102  and  CG_103 
REMARK   65  A    between atoms: CG_103  and  CD1_104 
REMARK   66  A    between atoms: CG_103  and  CD2_105 
REMARK   67  A    between atoms: CA_107  and  C_108 
REMARK       I    between atoms: C_108  and  N_113 
REMARK   68  A    between atoms: N_113  and  CA_114 
REMARK   69  A    between atoms: CA_114  and  C_115 
REMARK   70  A    between atoms: CA_114  and  CB_117 
REMARK       I    between atoms: C_115  and  N_121 
REMARK   71  A    between atoms: CB_117  and  CG_118 
REMARK   72  A    between atoms: CG_118  and  CD1_119 
REMARK   73  A    between atoms: CG_118  and  CD2_120 
REMARK   74  A    between atoms: N_121  and  CA_122 
REMARK   75  A    between atoms: CA_122  and  C_123 
REMARK   76  A    between atoms: CA_122  and  CB_125 
REMARK       I    between atoms: C_123  and  N_128 
REMARK   77  A    between atoms: CB_125  and  OG1_126 
REMARK   78  A    between atoms: CB_125  and  CG2_127 
REMARK   79  A    between atoms: N_128  and  CA_129 
REMARK   80  A    between atoms: CA_129  and  C_130 
REMARK   81  A    between atoms: CA_129  and  CB_132 
REMARK       I    between atoms: C_130  and  N_137 
REMARK   82  A    between atoms: CB_132  and  CG_133 
REMARK   83  A    between atoms: CG_133  and  CD_134 
REMARK       I    between atoms: CD_134  and  NE2_136 
REMARK   84  A    between atoms: CA_138  and  C_139 
REMARK       I    between atoms: C_139  and  N_144 
REMARK   85  A    between atoms: N_144  and  CA_145 
REMARK   86  A    between atoms: CA_145  and  C_146 
ROOT
ATOM      1  CA  LYS d   1      11.845   0.816   4.928  0.00  0.00     0.089 C 
ATOM      2  H81 LYS d   1      11.849   1.888   4.682  0.00  0.00     0.087 H 
ENDROOT
BRANCH   1   3
ATOM      3  N   LYS d   1      10.610   0.499   5.621  0.00  0.00    -0.346 N 
ATOM      4  C   PHE d   1       9.533   1.261   5.515  0.00  0.00     0.241 C 
ATOM      5  O   PHE d   1       9.522   2.337   4.914  0.00  0.00    -0.271 OA
ATOM      6  H80 LYS d   1      10.572  -0.319   6.195  0.00  0.00     0.163 HD
BRANCH   4   7
ATOM      7  CA  PHE d   1       8.291   0.739   6.218  0.00  0.00     0.093 C 
ATOM      8  H72 PHE d   1       8.616   0.212   7.127  0.00  0.00     0.088 H 
BRANCH   7   9
ATOM      9  N   PHE d   1       7.422   1.831   6.628  0.00  0.00    -0.346 N 
ATOM     10  C   LYS d   1       6.800   1.784   7.793  0.00  0.00     0.241 C 
ATOM     11  O   LYS d   1       6.892   0.817   8.553  0.00  0.00    -0.271 OA
ATOM     12  H71 PHE d   1       7.295   2.620   6.027  0.00  0.00     0.163 HD
BRANCH  10  13
ATOM     13  CA  LYS d   1       5.918   2.965   8.169  0.00  0.00     0.089 C 
ATOM     14  H59 LYS d   1       5.816   3.637   7.304  0.00  0.00     0.087 H 
BRANCH  13  15
ATOM     15  N   LYS d   1       4.612   2.458   8.540  0.00  0.00    -0.346 N 
ATOM     16  C   VAL d   1       3.494   2.999   8.097  0.00  0.00     0.241 C 
ATOM     17  O   VAL d   1       3.456   4.045   7.458  0.00  0.00    -0.271 OA
ATOM     18  H58 LYS d   1       4.557   1.670   9.153  0.00  0.00     0.163 HD
BRANCH  16  19
ATOM     19  CA  VAL d   1       2.219   2.247   8.439  0.00  0.00     0.092 C 
ATOM     20  H50 VAL d   1       2.359   1.732   9.400  0.00  0.00     0.088 H 
BRANCH  19  21
ATOM     21  N   VAL d   1       1.093   3.157   8.570  0.00  0.00    -0.346 N 
ATOM     22  C   ILE d   1       0.654   3.541   9.754  0.00  0.00     0.241 C 
ATOM     23  O   ILE d   1       1.225   3.252  10.809  0.00  0.00    -0.271 OA
ATOM     24  H49 VAL d   1       0.642   3.499   7.746  0.00  0.00     0.163 HD
BRANCH  22  25
ATOM     25  CA  ILE d   1      -0.631   4.351   9.762  0.00  0.00     0.092 C 
ATOM     26  H39 ILE d   1      -0.997   4.453   8.730  0.00  0.00     0.088 H 
BRANCH  25  27
ATOM     27  N   ILE d   1      -1.630   3.642  10.540  0.00  0.00    -0.346 N 
ATOM     28  C   SER d   1      -2.275   2.592  10.051  0.00  0.00     0.243 C 
ATOM     29  O   SER d   1      -2.166   2.224   8.881  0.00  0.00    -0.271 OA
ATOM     30  H38 ILE d   1      -1.837   3.953  11.468  0.00  0.00     0.163 HD
BRANCH  28  31
ATOM     31  CA  SER d   1      -3.200   1.864  11.026  0.00  0.00     0.109 C 
ATOM     32  H34 SER d   1      -2.670   1.754  11.984  0.00  0.00     0.090 H 
BRANCH  31  33
ATOM     33  N   SER d   1      -4.423   2.612  11.262  0.00  0.00    -0.344 N 
ATOM     34  C   SER d   1      -4.448   3.716  11.999  0.00  0.00     0.243 C 
ATOM     35  O   SER d   1      -3.443   4.213  12.513  0.00  0.00    -0.271 OA
ATOM     36  H33 SER d   1      -5.276   2.284  10.855  0.00  0.00     0.163 HD
BRANCH  34  37
ATOM     37  CA  SER d   1      -5.816   4.356  12.192  0.00  0.00     0.109 C 
ATOM     38  H29 SER d   1      -6.540   3.567  12.443  0.00  0.00     0.090 H 
BRANCH  37  39
ATOM     39  N   SER d   1      -5.781   5.318  13.280  0.00  0.00    -0.344 N 
ATOM     40  C   GLN d   1      -6.229   5.017  14.488  0.00  0.00     0.241 C 
ATOM     41  O   GLN d   1      -6.665   3.905  14.781  0.00  0.00    -0.271 OA
ATOM     42  H28 SER d   1      -5.409   6.231  13.112  0.00  0.00     0.163 HD
BRANCH  40  43
ATOM     43  CA  GLN d   1      -6.197   6.139  15.520  0.00  0.00     0.090 C 
ATOM     44  H21 GLN d   1      -5.486   6.909  15.186  0.00  0.00     0.087 H 
BRANCH  43  45
ATOM     45  N   GLN d   1      -7.517   6.743  15.645  0.00  0.00    -0.346 N 
ATOM     46  C   LEU d   1      -8.092   7.387  14.639  0.00  0.00     0.241 C 
ATOM     47  O   LEU d   1      -7.549   7.558  13.545  0.00  0.00    -0.271 OA
ATOM     48  H20 GLN d   1      -8.004   6.670  16.515  0.00  0.00     0.163 HD
BRANCH  46  49
ATOM     49  CA  LEU d   1      -9.483   7.936  14.904  0.00  0.00     0.089 C 
ATOM     50  H10 LEU d   1      -9.756   7.719  15.947  0.00  0.00     0.087 H 
BRANCH  49  51
ATOM     51  N   LEU d   1      -9.503   9.377  14.711  0.00  0.00    -0.346 N 
ATOM     52  C   ASN d   1      -8.981  10.204  15.606  0.00  0.00     0.249 C 
ATOM     53  O   ASN d   1      -8.483   9.814  16.660  0.00  0.00    -0.271 OA
ATOM     54  H9  LEU d   1      -9.920   9.753  13.884  0.00  0.00     0.163 HD
BRANCH  52  55
ATOM     55  CA  ASN d   1      -9.028  11.687  15.271  0.00  0.00     0.183 C 
ATOM     56  H4  ASN d   1      -8.597  12.248  16.113  0.00  0.00     0.099 H 
BRANCH  55  57
ATOM     57  N   ASN d   1      -8.229  11.980  14.058  0.00  0.00    -0.066 N 
ATOM     58  H1  ASN d   1      -8.275  12.966  13.856  0.00  0.00     0.275 HD
ATOM     59  H2  ASN d   1      -8.599  11.460  13.278  0.00  0.00     0.275 HD
ATOM     60  H3  ASN d   1      -7.270  11.713  14.215  0.00  0.00     0.275 HD
ENDBRANCH  55  57
BRANCH  55  61
ATOM     61  CB  ASN d   1     -10.478  12.134  15.082  0.00  0.00     0.044 C 
ATOM     62  H5  ASN d   1     -11.072  11.778  15.937  0.00  0.00     0.051 H 
ATOM     63  H6  ASN d   1     -10.867  11.689  14.155  0.00  0.00     0.051 H 
BRANCH  61  64
ATOM     64  CG  ASN d   1     -10.610  13.641  14.991  0.00  0.00     0.217 C 
ATOM     65  OD1 ASN d   1      -9.797  14.382  15.544  0.00  0.00    -0.274 OA
ATOM     66  ND2 ASN d   1     -11.637  14.107  14.301  0.00  0.00    -0.370 N 
ATOM     67  H7  ASN d   1     -11.771  15.094  14.209  0.00  0.00     0.159 HD
ATOM     68  H8  ASN d   1     -12.280  13.473  13.871  0.00  0.00     0.159 HD
ENDBRANCH  61  64
ENDBRANCH  55  61
ENDBRANCH  52  55
ENDBRANCH  49  51
BRANCH  49  69
ATOM     69  CB  LEU d   1     -10.494   7.252  13.980  0.00  0.00    -0.035 C 
ATOM     70  H11 LEU d   1     -10.385   6.164  14.104  0.00  0.00     0.037 H 
ATOM     71  H12 LEU d   1     -10.249   7.530  12.944  0.00  0.00     0.037 H 
BRANCH  69  72
ATOM     72  CG  LEU d   1     -11.959   7.610  14.230  0.00  0.00    -0.059 C 
ATOM     73  H13 LEU d   1     -12.081   8.695  14.095  0.00  0.00     0.038 H 
BRANCH  72  74
ATOM     74  CD1 LEU d   1     -12.854   6.897  13.229  0.00  0.00    -0.073 C 
ATOM     75  H14 LEU d   1     -13.904   7.164  13.421  0.00  0.00     0.028 H 
ATOM     76  H15 LEU d   1     -12.727   5.809  13.333  0.00  0.00     0.028 H 
ATOM     77  H16 LEU d   1     -12.579   7.202  12.209  0.00  0.00     0.028 H 
ENDBRANCH  72  74
BRANCH  72  78
ATOM     78  CD2 LEU d   1     -12.361   7.254  15.655  0.00  0.00    -0.073 C 
ATOM     79  H17 LEU d   1     -11.703   7.779  16.363  0.00  0.00     0.028 H 
ATOM     80  H18 LEU d   1     -12.267   6.168  15.802  0.00  0.00     0.028 H 
ATOM     81  H19 LEU d   1     -13.404   7.558  15.829  0.00  0.00     0.028 H 
ENDBRANCH  72  78
ENDBRANCH  69  72
ENDBRANCH  49  69
ENDBRANCH  46  49
ENDBRANCH  43  45
BRANCH  43  82
ATOM     82  CB  GLN d   1      -5.733   5.593  16.874  0.00  0.00    -0.030 C 
ATOM     83  H22 GLN d   1      -4.720   5.181  16.754  0.00  0.00     0.037 H 
ATOM     84  H23 GLN d   1      -6.421   4.791  17.180  0.00  0.00     0.037 H 
BRANCH  82  85
ATOM     85  CG  GLN d   1      -5.697   6.640  17.975  0.00  0.00     0.011 C 
ATOM     86  H24 GLN d   1      -6.712   7.040  18.115  0.00  0.00     0.047 H 
ATOM     87  H25 GLN d   1      -5.022   7.452  17.667  0.00  0.00     0.047 H 
BRANCH  85  88
ATOM     88  CD  GLN d   1      -5.210   6.078  19.294  0.00  0.00     0.215 C 
ATOM     89  OE1 GLN d   1      -5.998   5.601  20.112  0.00  0.00    -0.274 OA
ATOM     90  NE2 GLN d   1      -3.909   6.130  19.512  0.00  0.00    -0.370 N 
ATOM     91  H26 GLN d   1      -3.530   5.774  20.366  0.00  0.00     0.159 HD
ATOM     92  H27 GLN d   1      -3.302   6.526  18.823  0.00  0.00     0.159 HD
ENDBRANCH  85  88
ENDBRANCH  82  85
ENDBRANCH  43  82
ENDBRANCH  40  43
ENDBRANCH  37  39
BRANCH  37  93
ATOM     93  CB  SER d   1      -6.267   5.045  10.906  0.00  0.00     0.044 C 
ATOM     94  H30 SER d   1      -6.362   4.294  10.108  0.00  0.00     0.077 H 
ATOM     95  H31 SER d   1      -5.516   5.795  10.616  0.00  0.00     0.077 H 
BRANCH  93  96
ATOM     96  OG  SER d   1      -7.519   5.687  11.094  0.00  0.00    -0.398 OA
ATOM     97  H32 SER d   1      -7.439   6.339  11.781  0.00  0.00     0.209 HD
ENDBRANCH  93  96
ENDBRANCH  37  93
ENDBRANCH  34  37
ENDBRANCH  31  33
BRANCH  31  98
ATOM     98  CB  SER d   1      -3.549   0.471  10.499  0.00  0.00     0.044 C 
ATOM     99  H35 SER d   1      -3.920  -0.146  11.330  0.00  0.00     0.077 H 
ATOM    100  H36 SER d   1      -2.645   0.009  10.075  0.00  0.00     0.077 H 
BRANCH  98 101
ATOM    101  OG  SER d   1      -4.548   0.546   9.494  0.00  0.00    -0.398 OA
ATOM    102  H37 SER d   1      -4.230   1.076   8.772  0.00  0.00     0.209 HD
ENDBRANCH  98 101
ENDBRANCH  31  98
ENDBRANCH  28  31
ENDBRANCH  25  27
BRANCH  25 103
ATOM    103  CB  ILE d   1      -0.358   5.764  10.326  0.00  0.00    -0.030 C 
ATOM    104  H40 ILE d   1       0.056   5.656  11.339  0.00  0.00     0.043 H 
BRANCH 103 105
ATOM    105  CG1 ILE d   1      -1.661   6.571  10.422  0.00  0.00    -0.063 C 
ATOM    106  H41 ILE d   1      -1.422   7.566  10.826  0.00  0.00     0.033 H 
ATOM    107  H42 ILE d   1      -2.341   6.049  11.111  0.00  0.00     0.033 H 
BRANCH 105 108
ATOM    108  CD1 ILE d   1      -2.375   6.754   9.097  0.00  0.00    -0.076 C 
ATOM    109  H46 ILE d   1      -3.293   7.339   9.253  0.00  0.00     0.027 H 
ATOM    110  H47 ILE d   1      -2.634   5.769   8.681  0.00  0.00     0.027 H 
ATOM    111  H48 ILE d   1      -1.716   7.286   8.396  0.00  0.00     0.027 H 
ENDBRANCH 105 108
ENDBRANCH 103 105
BRANCH 103 112
ATOM    112  CG2 ILE d   1       0.665   6.499   9.468  0.00  0.00    -0.071 C 
ATOM    113  H43 ILE d   1       1.590   5.906   9.411  0.00  0.00     0.028 H 
ATOM    114  H44 ILE d   1       0.884   7.479   9.918  0.00  0.00     0.028 H 
ATOM    115  H45 ILE d   1       0.259   6.643   8.456  0.00  0.00     0.028 H 
ENDBRANCH 103 112
ENDBRANCH  25 103
ENDBRANCH  22  25
ENDBRANCH  19  21
BRANCH  19 116
ATOM    116  CB  VAL d   1       1.960   1.191   7.343  0.00  0.00    -0.033 C 
ATOM    117  H51 VAL d   1       2.111   1.673   6.366  0.00  0.00     0.042 H 
BRANCH 116 118
ATOM    118  CG1 VAL d   1       2.938   0.029   7.448  0.00  0.00    -0.071 C 
ATOM    119  H52 VAL d   1       2.725  -0.702   6.654  0.00  0.00     0.028 H 
ATOM    120  H53 VAL d   1       2.829  -0.454   8.430  0.00  0.00     0.028 H 
ATOM    121  H54 VAL d   1       3.966   0.404   7.335  0.00  0.00     0.028 H 
ENDBRANCH 116 118
BRANCH 116 122
ATOM    122  CG2 VAL d   1       0.529   0.695   7.406  0.00  0.00    -0.071 C 
ATOM    123  H55 VAL d   1      -0.159   1.550   7.329  0.00  0.00     0.028 H 
ATOM    124  H56 VAL d   1       0.363   0.176   8.361  0.00  0.00     0.028 H 
ATOM    125  H57 VAL d   1       0.345  -0.000   6.574  0.00  0.00     0.028 H 
ENDBRANCH 116 122
ENDBRANCH  19 116
ENDBRANCH  16  19
ENDBRANCH  13  15
BRANCH  13 126
ATOM    126  CB  LYS d   1       6.545   3.739   9.332  0.00  0.00    -0.038 C 
ATOM    127  H60 LYS d   1       6.642   3.058  10.190  0.00  0.00     0.036 H 
ATOM    128  H61 LYS d   1       5.875   4.570   9.597  0.00  0.00     0.036 H 
BRANCH 126 129
ATOM    129  CG  LYS d   1       7.919   4.312   9.016  0.00  0.00    -0.061 C 
ATOM    130  H62 LYS d   1       7.797   5.215   8.400  0.00  0.00     0.033 H 
ATOM    131  H63 LYS d   1       8.499   3.563   8.457  0.00  0.00     0.033 H 
BRANCH 129 132
ATOM    132  CD  LYS d   1       8.676   4.677  10.284  0.00  0.00    -0.043 C 
ATOM    133  H64 LYS d   1       9.715   4.923  10.019  0.00  0.00     0.035 H 
ATOM    134  H65 LYS d   1       8.666   3.813  10.965  0.00  0.00     0.035 H 
BRANCH 132 135
ATOM    135  CE  LYS d   1       8.055   5.869  10.994  0.00  0.00     0.080 C 
ATOM    136  H66 LYS d   1       8.544   5.996  11.971  0.00  0.00     0.075 H 
ATOM    137  H67 LYS d   1       6.982   5.676  11.143  0.00  0.00     0.075 H 
BRANCH 135 138
ATOM    138  NZ  LYS d   1       8.213   7.120  10.211  0.00  0.00    -0.079 N 
ATOM    139  H68 LYS d   1       7.790   7.886  10.712  0.00  0.00     0.274 HD
ATOM    140  H69 LYS d   1       7.762   7.015   9.315  0.00  0.00     0.274 HD
ATOM    141  H70 LYS d   1       9.194   7.309  10.074  0.00  0.00     0.274 HD
ENDBRANCH 135 138
ENDBRANCH 132 135
ENDBRANCH 129 132
ENDBRANCH 126 129
ENDBRANCH  13 126
ENDBRANCH  10  13
ENDBRANCH   7   9
BRANCH   7 142
ATOM    142  CB  PHE d   1       7.540  -0.276   5.330  0.00  0.00    -0.014 C 
ATOM    143  H73 PHE d   1       6.597  -0.532   5.836  0.00  0.00     0.043 H 
ATOM    144  H74 PHE d   1       8.166  -1.176   5.245  0.00  0.00     0.043 H 
BRANCH 142 145
ATOM    145  CG  PHE d   1       7.203   0.184   3.932  0.00  0.00    -0.056 A 
ATOM    146  CD1 PHE d   1       8.162   0.172   2.929  0.00  0.00    -0.077 A 
ATOM    147  CE1 PHE d   1       7.847   0.568   1.644  0.00  0.00    -0.082 A 
ATOM    148  H75 PHE d   1       9.171  -0.152   3.157  0.00  0.00     0.084 H 
ATOM    149  CZ  PHE d   1       6.565   0.975   1.343  0.00  0.00    -0.083 A 
ATOM    150  H77 PHE d   1       8.608   0.559   0.872  0.00  0.00     0.083 H 
ATOM    151  CE2 PHE d   1       5.600   0.988   2.327  0.00  0.00    -0.082 A 
ATOM    152  H79 PHE d   1       6.316   1.284   0.334  0.00  0.00     0.083 H 
ATOM    153  CD2 PHE d   1       5.919   0.596   3.614  0.00  0.00    -0.077 A 
ATOM    154  H78 PHE d   1       4.591   1.306   2.092  0.00  0.00     0.083 H 
ATOM    155  H76 PHE d   1       5.155   0.611   4.383  0.00  0.00     0.084 H 
ENDBRANCH 142 145
ENDBRANCH   7 142
ENDBRANCH   4   7
ENDBRANCH   1   3
BRANCH   1 156
ATOM    156  C   LYS d   1      11.921   0.010   3.646  0.00  0.00     0.241 C 
ATOM    157  O   LYS d   1      11.689  -1.200   3.657  0.00  0.00    -0.271 OA
ATOM    158  N   LYS d   1      12.232   0.663   2.544  0.00  0.00    -0.346 N 
ATOM    159  H93 LYS d   1      12.411   1.646   2.583  0.00  0.00     0.163 HD
BRANCH 158 160
ATOM    160  CA  LYS d   1      12.316  -0.034   1.277  0.00  0.00     0.089 C 
ATOM    161  H94 LYS d   1      11.991  -1.073   1.434  0.00  0.00     0.087 H 
BRANCH 160 162
ATOM    162  C   LYS d   1      13.744  -0.044   0.763  0.00  0.00     0.243 C 
ATOM    163  O   LYS d   1      14.335   1.013   0.530  0.00  0.00    -0.271 OA
ATOM    164  N   PRO d   1      14.320  -1.242   0.591  0.00  0.00    -0.337 N 
ATOM    165  CA  PRO d   1      15.639  -1.402  -0.022  0.00  0.00     0.091 C 
ATOM    166  CD  PRO d   1      13.744  -2.535   1.003  0.00  0.00    -0.001 C 
ATOM    167  CB  PRO d   1      15.837  -2.920  -0.073  0.00  0.00    -0.036 C 
ATOM    168 6H10 PRO d   1      16.414  -0.925   0.596  0.00  0.00     0.087 H 
ATOM    169  CG  PRO d   1      14.925  -3.462   0.971  0.00  0.00    -0.048 C 
ATOM    170 7H10 PRO d   1      16.881  -3.182   0.152  0.00  0.00     0.036 H 
ATOM    171 8H10 PRO d   1      15.566  -3.312  -1.064  0.00  0.00     0.036 H 
ATOM    172 9H10 PRO d   1      15.428  -3.476   1.949  0.00  0.00     0.035 H 
ATOM    173 0H11 PRO d   1      14.605  -4.481   0.709  0.00  0.00     0.035 H 
ATOM    174 1H11 PRO d   1      12.966  -2.863   0.298  0.00  0.00     0.064 H 
ATOM    175 2H11 PRO d   1      13.319  -2.473   2.015  0.00  0.00     0.064 H 
BRANCH 165 176
ATOM    176  C   PRO d   1      15.680  -0.814  -1.430  0.00  0.00     0.241 C 
ATOM    177  O   PRO d   1      14.672  -0.836  -2.144  0.00  0.00    -0.271 OA
ATOM    178  N   LEU d   1      16.844  -0.286  -1.805  0.00  0.00    -0.346 N 
ATOM    179 3H11 LEU d   1      17.604  -0.296  -1.155  0.00  0.00     0.163 HD
BRANCH 178 180
ATOM    180  CA  LEU d   1      17.064   0.309  -3.125  0.00  0.00     0.090 C 
ATOM    181 4H11 LEU d   1      18.127   0.581  -3.199  0.00  0.00     0.087 H 
BRANCH 180 182
ATOM    182  C   LEU d   1      16.235   1.583  -3.309  0.00  0.00     0.243 C 
ATOM    183  O   LEU d   1      15.057   1.530  -3.676  0.00  0.00    -0.271 OA
ATOM    184  N   PRO d   1      16.841   2.752  -3.049  0.00  0.00    -0.337 N 
ATOM    185  CA  PRO d   1      16.168   4.038  -3.215  0.00  0.00     0.091 C 
ATOM    186  CD  PRO d   1      18.227   2.906  -2.571  0.00  0.00    -0.001 C 
ATOM    187  CB  PRO d   1      17.078   5.019  -2.474  0.00  0.00    -0.036 C 
ATOM    188 4H12 PRO d   1      15.170   4.011  -2.754  0.00  0.00     0.087 H 
ATOM    189  CG  PRO d   1      18.433   4.397  -2.507  0.00  0.00    -0.048 C 
ATOM    190 5H12 PRO d   1      16.739   5.151  -1.436  0.00  0.00     0.036 H 
ATOM    191 6H12 PRO d   1      17.089   5.994  -2.982  0.00  0.00     0.036 H 
ATOM    192 7H12 PRO d   1      18.994   4.663  -1.599  0.00  0.00     0.035 H 
ATOM    193 8H12 PRO d   1      18.986   4.741  -3.393  0.00  0.00     0.035 H 
ATOM    194 9H12 PRO d   1      18.936   2.444  -3.274  0.00  0.00     0.064 H 
ATOM    195 0H13 PRO d   1      18.349   2.452  -1.576  0.00  0.00     0.064 H 
BRANCH 185 196
ATOM    196  C   PRO d   1      16.026   4.428  -4.685  0.00  0.00     0.241 C 
ATOM    197  O   PRO d   1      16.812   5.215  -5.217  0.00  0.00    -0.271 OA
ATOM    198  N   LEU d   1      15.023   3.855  -5.337  0.00  0.00    -0.346 N 
ATOM    199 1H13 LEU d   1      14.438   3.205  -4.852  0.00  0.00     0.163 HD
BRANCH 198 200
ATOM    200  CA  LEU d   1      14.747   4.143  -6.736  0.00  0.00     0.089 C 
ATOM    201 2H13 LEU d   1      15.689   4.091  -7.301  0.00  0.00     0.087 H 
BRANCH 200 202
ATOM    202  C   LEU d   1      14.167   5.546  -6.879  0.00  0.00     0.241 C 
ATOM    203  O   LEU d   1      14.473   6.266  -7.827  0.00  0.00    -0.271 OA
ATOM    204  N   THR d   1      13.337   5.930  -5.922  0.00  0.00    -0.344 N 
ATOM    205 2H14 THR d   1      13.122   5.295  -5.180  0.00  0.00     0.163 HD
BRANCH 204 206
ATOM    206  CA  THR d   1      12.732   7.248  -5.922  0.00  0.00     0.113 C 
ATOM    207 3H14 THR d   1      12.754   7.634  -6.952  0.00  0.00     0.091 H 
BRANCH 206 208
ATOM    208  C   THR d   1      13.512   8.207  -5.031  0.00  0.00     0.243 C 
ATOM    209  O   THR d   1      13.092   8.525  -3.916  0.00  0.00    -0.271 OA
ATOM    210  N   GLN d   1      14.659   8.647  -5.519  0.00  0.00    -0.346 N 
ATOM    211 9H14 GLN d   1      14.976   8.305  -6.404  0.00  0.00     0.163 HD
BRANCH 210 212
ATOM    212  CA  GLN d   1      15.472   9.616  -4.801  0.00  0.00     0.090 C 
ATOM    213 0H15 GLN d   1      15.068   9.737  -3.785  0.00  0.00     0.087 H 
BRANCH 212 214
ATOM    214  C   GLN d   1      15.412  10.959  -5.520  0.00  0.00     0.243 C 
ATOM    215  O   GLN d   1      15.970  11.108  -6.606  0.00  0.00    -0.271 OA
ATOM    216  N   PRO d   1      14.714  11.945  -4.936  0.00  0.00    -0.337 N 
ATOM    217  CA  PRO d   1      14.528  13.259  -5.562  0.00  0.00     0.091 C 
ATOM    218  CD  PRO d   1      14.054  11.862  -3.619  0.00  0.00    -0.001 C 
ATOM    219  CB  PRO d   1      13.550  13.972  -4.623  0.00  0.00    -0.036 C 
ATOM    220 7H15 PRO d   1      14.091  13.145  -6.565  0.00  0.00     0.087 H 
ATOM    221  CG  PRO d   1      13.712  13.291  -3.309  0.00  0.00    -0.048 C 
ATOM    222 8H15 PRO d   1      12.518  13.867  -4.988  0.00  0.00     0.036 H 
ATOM    223 9H15 PRO d   1      13.803  15.039  -4.539  0.00  0.00     0.036 H 
ATOM    224 0H16 PRO d   1      12.776  13.343  -2.734  0.00  0.00     0.035 H 
ATOM    225 1H16 PRO d   1      14.523  13.761  -2.733  0.00  0.00     0.035 H 
ATOM    226 2H16 PRO d   1      14.736  11.448  -2.862  0.00  0.00     0.064 H 
ATOM    227 3H16 PRO d   1      13.146  11.243  -3.672  0.00  0.00     0.064 H 
BRANCH 217 228
ATOM    228  C   PRO d   1      15.832  14.044  -5.677  0.00  0.00     0.241 C 
ATOM    229  O   PRO d   1      16.758  13.861  -4.881  0.00  0.00    -0.271 OA
ATOM    230  N   GLY d   1      15.905  14.910  -6.677  0.00  0.00    -0.349 N 
ATOM    231 4H16 GLY d   1      15.131  15.009  -7.303  0.00  0.00     0.163 HD
BRANCH 230 232
ATOM    232  CA  GLY d   1      17.091  15.713  -6.874  0.00  0.00     0.075 C 
ATOM    233 5H16 GLY d   1      17.463  15.553  -7.897  0.00  0.00     0.080 H 
ATOM    234 6H16 GLY d   1      17.858  15.398  -6.151  0.00  0.00     0.080 H 
BRANCH 232 235
ATOM    235  C   GLY d   1      16.812  17.186  -6.680  0.00  0.00     0.191 C 
ATOM    236  O   GLY d   1      15.679  17.620  -6.975  0.00  0.00    -0.647 OA
ATOM    237  OXT GLY d   1      17.714  17.913  -6.222  0.00  0.00    -0.647 OA
ENDBRANCH 232 235
ENDBRANCH 230 232
ENDBRANCH 217 228
ENDBRANCH 212 214
BRANCH 212 238
ATOM    238  CB  GLN d   1      16.921   9.129  -4.699  0.00  0.00    -0.030 C 
ATOM    239 1H15 GLN d   1      17.344   9.083  -5.713  0.00  0.00     0.037 H 
ATOM    240 2H15 GLN d   1      16.919   8.122  -4.256  0.00  0.00     0.037 H 
BRANCH 238 241
ATOM    241  CG  GLN d   1      17.807  10.026  -3.849  0.00  0.00     0.011 C 
ATOM    242 3H15 GLN d   1      17.408  10.047  -2.824  0.00  0.00     0.047 H 
ATOM    243 4H15 GLN d   1      17.788  11.042  -4.271  0.00  0.00     0.047 H 
BRANCH 241 244
ATOM    244  CD  GLN d   1      19.245   9.548  -3.800  0.00  0.00     0.215 C 
ATOM    245  OE1 GLN d   1      20.068   9.934  -4.628  0.00  0.00    -0.274 OA
ATOM    246  NE2 GLN d   1      19.560   8.709  -2.827  0.00  0.00    -0.370 N 
ATOM    247 5H15 GLN d   1      20.495   8.363  -2.748  0.00  0.00     0.159 HD
ATOM    248 6H15 GLN d   1      18.863   8.421  -2.170  0.00  0.00     0.159 HD
ENDBRANCH 241 244
ENDBRANCH 238 241
ENDBRANCH 212 238
ENDBRANCH 210 212
ENDBRANCH 206 208
BRANCH 206 249
ATOM    249  CB  THR d   1      11.265   7.188  -5.457  0.00  0.00     0.060 C 
ATOM    250 4H14 THR d   1      10.904   8.215  -5.299  0.00  0.00     0.086 H 
BRANCH 249 251
ATOM    251  OG1 THR d   1      11.169   6.466  -4.219  0.00  0.00    -0.393 OA
ATOM    252 5H14 THR d   1      11.689   6.905  -3.556  0.00  0.00     0.210 HD
ENDBRANCH 249 251
BRANCH 249 253
ATOM    253  CG2 THR d   1      10.394   6.521  -6.507  0.00  0.00    -0.050 C 
ATOM    254 6H14 THR d   1       9.353   6.490  -6.154  0.00  0.00     0.031 H 
ATOM    255 7H14 THR d   1      10.752   5.496  -6.684  0.00  0.00     0.031 H 
ATOM    256 8H14 THR d   1      10.446   7.094  -7.444  0.00  0.00     0.031 H 
ENDBRANCH 249 253
ENDBRANCH 206 249
ENDBRANCH 204 206
ENDBRANCH 200 202
BRANCH 200 257
ATOM    257  CB  LEU d   1      13.773   3.104  -7.304  0.00  0.00    -0.035 C 
ATOM    258 3H13 LEU d   1      12.808   3.229  -6.790  0.00  0.00     0.037 H 
ATOM    259 4H13 LEU d   1      14.179   2.105  -7.085  0.00  0.00     0.037 H 
BRANCH 257 260
ATOM    260  CG  LEU d   1      13.518   3.188  -8.810  0.00  0.00    -0.059 C 
ATOM    261 5H13 LEU d   1      13.256   4.227  -9.059  0.00  0.00     0.038 H 
BRANCH 260 262
ATOM    262  CD1 LEU d   1      14.769   2.810  -9.589  0.00  0.00    -0.073 C 
ATOM    263 6H13 LEU d   1      14.563   2.877 -10.668  0.00  0.00     0.028 H 
ATOM    264 7H13 LEU d   1      15.062   1.781  -9.335  0.00  0.00     0.028 H 
ATOM    265 8H13 LEU d   1      15.586   3.499  -9.328  0.00  0.00     0.028 H 
ENDBRANCH 260 262
BRANCH 260 266
ATOM    266  CD2 LEU d   1      12.353   2.293  -9.203  0.00  0.00    -0.073 C 
ATOM    267 9H13 LEU d   1      11.460   2.582  -8.630  0.00  0.00     0.028 H 
ATOM    268 0H14 LEU d   1      12.606   1.245  -8.985  0.00  0.00     0.028 H 
ATOM    269 1H14 LEU d   1      12.151   2.405 -10.278  0.00  0.00     0.028 H 
ENDBRANCH 260 266
ENDBRANCH 257 260
ENDBRANCH 200 257
ENDBRANCH 198 200
ENDBRANCH 185 196
ENDBRANCH 180 182
BRANCH 180 270
ATOM    270  CB  LEU d   1      16.750  -0.693  -4.244  0.00  0.00    -0.035 C 
ATOM    271 5H11 LEU d   1      16.976  -0.210  -5.206  0.00  0.00     0.037 H 
ATOM    272 6H11 LEU d   1      15.677  -0.931  -4.196  0.00  0.00     0.037 H 
BRANCH 270 273
ATOM    273  CG  LEU d   1      17.530  -2.011  -4.182  0.00  0.00    -0.059 C 
ATOM    274 7H11 LEU d   1      17.277  -2.520  -3.240  0.00  0.00     0.038 H 
BRANCH 273 275
ATOM    275  CD1 LEU d   1      17.137  -2.914  -5.337  0.00  0.00    -0.073 C 
ATOM    276 8H11 LEU d   1      17.705  -3.854  -5.277  0.00  0.00     0.028 H 
ATOM    277 9H11 LEU d   1      17.361  -2.410  -6.289  0.00  0.00     0.028 H 
ATOM    278 0H12 LEU d   1      16.060  -3.132  -5.282  0.00  0.00     0.028 H 
ENDBRANCH 273 275
BRANCH 273 279
ATOM    279  CD2 LEU d   1      19.029  -1.753  -4.200  0.00  0.00    -0.073 C 
ATOM    280 1H12 LEU d   1      19.298  -1.098  -3.358  0.00  0.00     0.028 H 
ATOM    281 2H12 LEU d   1      19.306  -1.266  -5.147  0.00  0.00     0.028 H 
ATOM    282 3H12 LEU d   1      19.567  -2.708  -4.108  0.00  0.00     0.028 H 
ENDBRANCH 273 279
ENDBRANCH 270 273
ENDBRANCH 180 270
ENDBRANCH 178 180
ENDBRANCH 165 176
ENDBRANCH 160 162
BRANCH 160 283
ATOM    283  CB  LYS d   1      11.412   0.604   0.229  0.00  0.00    -0.038 C 
ATOM    284  H95 LYS d   1      11.910   1.501  -0.168  0.00  0.00     0.036 H 
ATOM    285  H96 LYS d   1      10.464   0.892   0.708  0.00  0.00     0.036 H 
BRANCH 283 286
ATOM    286  CG  LYS d   1      11.109  -0.337  -0.926  0.00  0.00    -0.061 C 
ATOM    287  H97 LYS d   1      10.416  -1.116  -0.576  0.00  0.00     0.033 H 
ATOM    288  H98 LYS d   1      12.048  -0.804  -1.259  0.00  0.00     0.033 H 
BRANCH 286 289
ATOM    289  CD  LYS d   1      10.479   0.386  -2.101  0.00  0.00    -0.043 C 
ATOM    290  H99 LYS d   1       9.691   1.056  -1.727  0.00  0.00     0.035 H 
ATOM    291 0H10 LYS d   1      10.036  -0.356  -2.781  0.00  0.00     0.035 H 
BRANCH 289 292
ATOM    292  CE  LYS d   1      11.503   1.208  -2.868  0.00  0.00     0.080 C 
ATOM    293 1H10 LYS d   1      11.964   1.932  -2.180  0.00  0.00     0.075 H 
ATOM    294 2H10 LYS d   1      10.990   1.747  -3.678  0.00  0.00     0.075 H 
BRANCH 292 295
ATOM    295  NZ  LYS d   1      12.573   0.359  -3.459  0.00  0.00    -0.079 N 
ATOM    296 3H10 LYS d   1      13.228   0.942  -3.957  0.00  0.00     0.274 HD
ATOM    297 4H10 LYS d   1      12.162  -0.304  -4.097  0.00  0.00     0.274 HD
ATOM    298 5H10 LYS d   1      13.054  -0.135  -2.724  0.00  0.00     0.274 HD
ENDBRANCH 292 295
ENDBRANCH 289 292
ENDBRANCH 286 289
ENDBRANCH 283 286
ENDBRANCH 160 283
ENDBRANCH 158 160
ENDBRANCH   1 156
BRANCH   1 299
ATOM    299  CB  LYS d   1      13.070   0.504   5.799  0.00  0.00    -0.038 C 
ATOM    300  H82 LYS d   1      13.946   0.427   5.138  0.00  0.00     0.036 H 
ATOM    301  H83 LYS d   1      12.898  -0.463   6.294  0.00  0.00     0.036 H 
BRANCH 299 302
ATOM    302  CG  LYS d   1      13.384   1.535   6.878  0.00  0.00    -0.061 C 
ATOM    303  H84 LYS d   1      13.540   2.512   6.397  0.00  0.00     0.033 H 
ATOM    304  H85 LYS d   1      14.304   1.231   7.398  0.00  0.00     0.033 H 
BRANCH 302 305
ATOM    305  CD  LYS d   1      12.268   1.670   7.902  0.00  0.00    -0.043 C 
ATOM    306  H86 LYS d   1      11.898   0.668   8.163  0.00  0.00     0.035 H 
ATOM    307  H87 LYS d   1      11.450   2.260   7.464  0.00  0.00     0.035 H 
BRANCH 305 308
ATOM    308  CE  LYS d   1      12.758   2.362   9.165  0.00  0.00     0.080 C 
ATOM    309  H88 LYS d   1      13.507   1.720   9.652  0.00  0.00     0.075 H 
ATOM    310  H89 LYS d   1      11.904   2.508   9.842  0.00  0.00     0.075 H 
BRANCH 308 311
ATOM    311  NZ  LYS d   1      13.374   3.684   8.882  0.00  0.00    -0.079 N 
ATOM    312  H90 LYS d   1      13.682   4.103   9.745  0.00  0.00     0.274 HD
ATOM    313  H91 LYS d   1      12.694   4.284   8.441  0.00  0.00     0.274 HD
ATOM    314  H92 LYS d   1      14.163   3.562   8.267  0.00  0.00     0.274 HD
ENDBRANCH 308 311
ENDBRANCH 305 308
ENDBRANCH 302 305
ENDBRANCH 299 302
ENDBRANCH   1 299
TORSDOF 86
