REMARK WARNING: 32 MAX_TORS EXCEEDED!!!
REMARK  58 active torsions:
REMARK  status: ('A' for Active; 'I' for Inactive)
REMARK    1  A    between atoms: CA_2  and  N_1 
REMARK    2  A    between atoms: C_3  and  CA_2 
REMARK       I    between atoms: N_5  and  C_3 
REMARK    3  A    between atoms: CA_6  and  N_5 
REMARK    4  A    between atoms: C_7  and  CA_6 
REMARK       I    between atoms: N_9  and  C_7 
REMARK    5  A    between atoms: CA_10  and  N_9 
REMARK    6  A    between atoms: C_11  and  CA_10 
REMARK    7  A    between atoms: CA_10  and  CB_13 
REMARK       I    between atoms: N_18  and  C_11 
REMARK    8  A    between atoms: CB_13  and  CG_14 
REMARK    9  A    between atoms: CG_14  and  CD_15 
REMARK   10  A    between atoms: CD_15  and  CE_16 
REMARK   11  A    between atoms: CE_16  and  NZ_17 
REMARK   12  A    between atoms: CA_19  and  N_18 
REMARK   13  A    between atoms: C_20  and  CA_19 
REMARK   14  A    between atoms: CA_19  and  CB_22 
REMARK       I    between atoms: N_23  and  C_20 
REMARK   15  A    between atoms: C_25  and  CA_24 
REMARK       I    between atoms: N_30  and  C_25 
REMARK   16  A    between atoms: CA_31  and  N_30 
REMARK   17  A    between atoms: C_32  and  CA_31 
REMARK   18  A    between atoms: CA_31  and  CB_34 
REMARK       I    between atoms: N_50  and  C_32 
REMARK   19  A    between atoms: CB_34  and  CG_35 
REMARK   20  A    between atoms: CG_35  and  CD_36 
REMARK   21  A    between atoms: CD_36  and  NE_37 
REMARK       I    between atoms: NE_37  and  CZ_38 
REMARK       I    between atoms: CZ_38  and  NH1_39 
REMARK   22  A    between atoms: CH_42  and  CH3_43 
REMARK       I    between atoms: NZ_44  and  CH_42 
REMARK   23  A    between atoms: CE_45  and  NZ_44 
REMARK   24  A    between atoms: CD_46  and  CE_45 
REMARK   25  A    between atoms: CG_47  and  CD_46 
REMARK   26  A    between atoms: CB_48  and  CG_47 
REMARK   27  A    between atoms: CA_49  and  CB_48 
REMARK   28  A    between atoms: CA_49  and  N_50 
REMARK   29  A    between atoms: CA_49  and  C_51 
REMARK       I    between atoms: C_51  and  N_53 
REMARK   30  A    between atoms: N_53  and  CA_54 
REMARK   31  A    between atoms: CA_54  and  C_55 
REMARK   32  A    between atoms: CA_54  and  CB_57 
REMARK       I    between atoms: C_55  and  N_62 
REMARK   33  A    between atoms: CB_57  and  CG_58 
REMARK   34  A    between atoms: CG_58  and  CD_59 
REMARK       I    between atoms: CD_59  and  NE2_61 
REMARK   35  A    between atoms: N_62  and  CA_63 
REMARK   36  A    between atoms: CA_63  and  C_64 
REMARK   37  A    between atoms: CA_63  and  CB_66 
REMARK       I    between atoms: C_64  and  N_70 
REMARK   38  A    between atoms: CB_66  and  CG_67 
REMARK   39  A    between atoms: CG_67  and  CD1_68 
REMARK   40  A    between atoms: CG_67  and  CD2_69 
REMARK   41  A    between atoms: N_70  and  CA_71 
REMARK   42  A    between atoms: CA_71  and  C_72 
REMARK   43  A    between atoms: CA_71  and  CB_74 
REMARK       I    between atoms: C_72  and  N_75 
REMARK   44  A    between atoms: N_75  and  CA_76 
REMARK   45  A    between atoms: CA_76  and  C_77 
REMARK   46  A    between atoms: CA_76  and  CB_79 
REMARK       I    between atoms: C_77  and  N_82 
REMARK   47  A    between atoms: CB_79  and  OG1_80 
REMARK   48  A    between atoms: CB_79  and  CG2_81 
REMARK   49  A    between atoms: N_82  and  CA_83 
REMARK   50  A    between atoms: CA_83  and  C_84 
REMARK   51  A    between atoms: CA_83  and  CB_86 
REMARK       I    between atoms: C_84  and  N_91 
REMARK   52  A    between atoms: CB_86  and  CG_87 
REMARK   53  A    between atoms: CG_87  and  CD_88 
REMARK   54  A    between atoms: CD_88  and  CE_89 
REMARK   55  A    between atoms: CE_89  and  NZ_90 
REMARK   56  A    between atoms: N_91  and  CA_92 
REMARK   57  A    between atoms: CA_92  and  C_93 
REMARK   58  A    between atoms: CA_92  and  CB_95 
ROOT
ATOM      1  CA  ALY d   1     -16.342   8.094   5.899  0.00  0.00     0.089 C 
ATOM      2  H59 ALY d   1     -17.015   8.881   6.269  0.00  0.00     0.087 H 
ENDROOT
BRANCH   1   3
ATOM      3  CB  ALY d   1     -16.842   6.750   6.442  0.00  0.00    -0.038 C 
ATOM      4  H57 ALY d   1     -16.367   6.572   7.418  0.00  0.00     0.036 H 
ATOM      5  H58 ALY d   1     -17.933   6.812   6.571  0.00  0.00     0.036 H 
BRANCH   3   6
ATOM      6  CG  ALY d   1     -16.533   5.576   5.539  0.00  0.00    -0.061 C 
ATOM      7  H55 ALY d   1     -16.972   5.764   4.548  0.00  0.00     0.033 H 
ATOM      8  H56 ALY d   1     -15.442   5.478   5.444  0.00  0.00     0.033 H 
BRANCH   6   9
ATOM      9  CD  ALY d   1     -17.097   4.278   6.089  0.00  0.00    -0.050 C 
ATOM     10  H53 ALY d   1     -16.455   3.925   6.909  0.00  0.00     0.035 H 
ATOM     11  H54 ALY d   1     -18.113   4.459   6.470  0.00  0.00     0.035 H 
BRANCH   9  12
ATOM     12  CE  ALY d   1     -17.153   3.214   5.006  0.00  0.00    -0.005 C 
ATOM     13  H51 ALY d   1     -17.996   3.438   4.335  0.00  0.00     0.064 H 
ATOM     14  H52 ALY d   1     -16.213   3.242   4.436  0.00  0.00     0.064 H 
BRANCH  12  15
ATOM     15  NZ  ALY d   1     -17.331   1.872   5.549  0.00  0.00    -0.361 N 
ATOM     16  CH  ALY d   1     -17.306   0.774   4.806  0.00  0.00     0.213 C 
ATOM     17  OH  ALY d   1     -17.123   0.818   3.587  0.00  0.00    -0.274 OA
ATOM     18  H50 ALY d   1     -17.480   1.775   6.533  0.00  0.00     0.162 HD
BRANCH  16  19
ATOM     19  CH3 ALY d   1     -17.506  -0.588   5.479  0.00  0.00    -0.003 C 
ATOM     20  H47 ALY d   1     -17.655  -0.445   6.559  0.00  0.00     0.040 H 
ATOM     21  H48 ALY d   1     -16.617  -1.214   5.311  0.00  0.00     0.040 H 
ATOM     22  H49 ALY d   1     -18.390  -1.083   5.050  0.00  0.00     0.040 H 
ENDBRANCH  16  19
ENDBRANCH  12  15
ENDBRANCH   9  12
ENDBRANCH   6   9
ENDBRANCH   3   6
ENDBRANCH   1   3
BRANCH   1  23
ATOM     23  N   ALY d   1     -16.365   8.120   4.444  0.00  0.00    -0.346 N 
ATOM     24  C   ARG d   1     -17.078   9.010   3.773  0.00  0.00     0.241 C 
ATOM     25  O   ARG d   1     -17.860   9.791   4.317  0.00  0.00    -0.271 OA
ATOM     26  H60 ALY d   1     -15.827   7.446   3.937  0.00  0.00     0.163 HD
BRANCH  24  27
ATOM     27  CA  ARG d   1     -16.892   9.019   2.260  0.00  0.00     0.089 C 
ATOM     28  H35 ARG d   1     -16.285   8.148   1.972  0.00  0.00     0.087 H 
BRANCH  27  29
ATOM     29  N   ARG d   1     -18.172   8.951   1.582  0.00  0.00    -0.346 N 
ATOM     30  C   PRO d   1     -18.327   8.267   0.465  0.00  0.00     0.241 C 
ATOM     31  O   PRO d   1     -17.439   7.546  -0.004  0.00  0.00    -0.271 OA
ATOM     32  H34 ARG d   1     -18.956   9.434   1.971  0.00  0.00     0.163 HD
BRANCH  30  33
ATOM     33  CA  PRO d   1     -19.685   8.407  -0.224  0.00  0.00     0.091 C 
ATOM     34  N   PRO d   1     -19.669   7.905  -1.601  0.00  0.00    -0.337 N 
ATOM     35  C   ALA d   1     -18.774   8.326  -2.516  0.00  0.00     0.243 C 
ATOM     36  CD  PRO d   1     -20.745   6.928  -1.826  0.00  0.00    -0.001 C 
ATOM     37  O   ALA d   1     -17.938   9.197  -2.256  0.00  0.00    -0.271 OA
ATOM     38  CG  PRO d   1     -21.012   6.408  -0.445  0.00  0.00    -0.048 C 
ATOM     39  H32 PRO d   1     -20.414   6.121  -2.497  0.00  0.00     0.064 H 
ATOM     40  H33 PRO d   1     -21.639   7.412  -2.247  0.00  0.00     0.064 H 
ATOM     41  CB  PRO d   1     -20.745   7.547   0.481  0.00  0.00    -0.036 C 
ATOM     42  H30 PRO d   1     -22.058   6.080  -0.356  0.00  0.00     0.035 H 
ATOM     43  H31 PRO d   1     -20.343   5.565  -0.218  0.00  0.00     0.035 H 
ATOM     44  H28 PRO d   1     -21.663   8.129   0.649  0.00  0.00     0.036 H 
ATOM     45  H29 PRO d   1     -20.363   7.178   1.444  0.00  0.00     0.036 H 
ATOM     46  H27 PRO d   1     -19.981   9.466  -0.212  0.00  0.00     0.087 H 
BRANCH  35  47
ATOM     47  CA  ALA d   1     -18.833   7.716  -3.915  0.00  0.00     0.086 C 
ATOM     48  H23 ALA d   1     -19.890   7.632  -4.208  0.00  0.00     0.086 H 
BRANCH  47  49
ATOM     49  N   ALA d   1     -18.153   8.565  -4.888  0.00  0.00    -0.346 N 
ATOM     50  C   LYS d   1     -18.532   9.820  -5.110  0.00  0.00     0.241 C 
ATOM     51  O   LYS d   1     -19.489  10.346  -4.536  0.00  0.00    -0.271 OA
ATOM     52  H22 ALA d   1     -17.380   8.192  -5.402  0.00  0.00     0.163 HD
BRANCH  50  53
ATOM     53  CA  LYS d   1     -17.720  10.614  -6.128  0.00  0.00     0.089 C 
ATOM     54  H10 LYS d   1     -17.953  10.239  -7.136  0.00  0.00     0.087 H 
BRANCH  53  55
ATOM     55  N   LYS d   1     -18.085  12.021  -6.056  0.00  0.00    -0.346 N 
ATOM     56  C   GLY d   1     -18.028  12.815  -7.114  0.00  0.00     0.236 C 
ATOM     57  O   GLY d   1     -17.620  12.440  -8.215  0.00  0.00    -0.272 OA
ATOM     58  H9  LYS d   1     -18.388  12.399  -5.181  0.00  0.00     0.163 HD
BRANCH  56  59
ATOM     59  CA  GLY d   1     -18.475  14.246  -6.900  0.00  0.00     0.069 C 
ATOM     60  H7  GLY d   1     -18.743  14.683  -7.873  0.00  0.00     0.078 H 
ATOM     61  H8  GLY d   1     -19.357  14.248  -6.242  0.00  0.00     0.078 H 
BRANCH  59  62
ATOM     62  N   GLY d   1     -17.440  15.054  -6.295  0.00  0.00    -0.351 N 
ATOM     63  C   GLY d   1     -17.743  16.074  -5.507  0.00  0.00     0.243 C 
ATOM     64  O   GLY d   1     -18.901  16.391  -5.230  0.00  0.00    -0.272 OA
ATOM     65  H6  GLY d   1     -16.480  14.839  -6.474  0.00  0.00     0.163 HD
BRANCH  63  66
ATOM     66  CA  GLY d   1     -16.578  16.851  -4.936  0.00  0.00     0.152 C 
ATOM     67  H4  GLY d   1     -15.645  16.319  -5.174  0.00  0.00     0.090 H 
ATOM     68  H5  GLY d   1     -16.558  17.850  -5.396  0.00  0.00     0.090 H 
BRANCH  66  69
ATOM     69  N   GLY d   1     -16.680  17.004  -3.465  0.00  0.00    -0.071 N 
ATOM     70  H1  GLY d   1     -15.887  17.526  -3.126  0.00  0.00     0.274 HD
ATOM     71  H2  GLY d   1     -16.693  16.094  -3.033  0.00  0.00     0.274 HD
ATOM     72  H3  GLY d   1     -17.529  17.497  -3.236  0.00  0.00     0.274 HD
ENDBRANCH  66  69
ENDBRANCH  63  66
ENDBRANCH  59  62
ENDBRANCH  56  59
ENDBRANCH  53  55
BRANCH  53  73
ATOM     73  CB  LYS d   1     -16.217  10.436  -5.876  0.00  0.00    -0.038 C 
ATOM     74  H11 LYS d   1     -15.668  11.060  -6.597  0.00  0.00     0.036 H 
ATOM     75  H12 LYS d   1     -15.961   9.379  -6.038  0.00  0.00     0.036 H 
BRANCH  73  76
ATOM     76  CG  LYS d   1     -15.778  10.826  -4.472  0.00  0.00    -0.061 C 
ATOM     77  H13 LYS d   1     -16.241  10.138  -3.750  0.00  0.00     0.033 H 
ATOM     78  H14 LYS d   1     -16.114  11.853  -4.267  0.00  0.00     0.033 H 
BRANCH  76  79
ATOM     79  CD  LYS d   1     -14.265  10.761  -4.313  0.00  0.00    -0.043 C 
ATOM     80  H15 LYS d   1     -13.908   9.788  -4.681  0.00  0.00     0.035 H 
ATOM     81  H16 LYS d   1     -14.012  10.865  -3.248  0.00  0.00     0.035 H 
BRANCH  79  82
ATOM     82  CE  LYS d   1     -13.576  11.868  -5.095  0.00  0.00     0.080 C 
ATOM     83  H17 LYS d   1     -13.937  12.840  -4.727  0.00  0.00     0.075 H 
ATOM     84  H18 LYS d   1     -13.831  11.761  -6.160  0.00  0.00     0.075 H 
BRANCH  82  85
ATOM     85  NZ  LYS d   1     -12.097  11.821  -4.950  0.00  0.00    -0.079 N 
ATOM     86  H19 LYS d   1     -11.683  12.570  -5.483  0.00  0.00     0.274 HD
ATOM     87  H20 LYS d   1     -11.754  10.937  -5.291  0.00  0.00     0.274 HD
ATOM     88  H21 LYS d   1     -11.851  11.925  -3.978  0.00  0.00     0.274 HD
ENDBRANCH  82  85
ENDBRANCH  79  82
ENDBRANCH  76  79
ENDBRANCH  73  76
ENDBRANCH  53  73
ENDBRANCH  50  53
ENDBRANCH  47  49
BRANCH  47  89
ATOM     89  CB  ALA d   1     -18.220   6.323  -3.924  0.00  0.00    -0.049 C 
ATOM     90  H24 ALA d   1     -18.738   5.690  -3.188  0.00  0.00     0.030 H 
ATOM     91  H25 ALA d   1     -17.153   6.390  -3.664  0.00  0.00     0.030 H 
ATOM     92  H26 ALA d   1     -18.326   5.882  -4.926  0.00  0.00     0.030 H 
ENDBRANCH  47  89
ENDBRANCH  35  47
ENDBRANCH  30  33
ENDBRANCH  27  29
BRANCH  27  93
ATOM     93  CB  ARG d   1     -16.174  10.303   1.822  0.00  0.00    -0.036 C 
ATOM     94  H36 ARG d   1     -16.881  11.139   1.922  0.00  0.00     0.036 H 
ATOM     95  H37 ARG d   1     -15.888  10.189   0.766  0.00  0.00     0.036 H 
BRANCH  93  96
ATOM     96  CG  ARG d   1     -14.922  10.649   2.614  0.00  0.00    -0.048 C 
ATOM     97  H38 ARG d   1     -15.013  10.222   3.623  0.00  0.00     0.035 H 
ATOM     98  H39 ARG d   1     -14.840  11.744   2.685  0.00  0.00     0.035 H 
BRANCH  96  99
ATOM     99  CD  ARG d   1     -13.662  10.107   1.967  0.00  0.00     0.009 C 
ATOM    100  H40 ARG d   1     -13.694  10.317   0.888  0.00  0.00     0.064 H 
ATOM    101  H41 ARG d   1     -13.615   9.020   2.128  0.00  0.00     0.064 H 
BRANCH  99 102
ATOM    102  NE  ARG d   1     -12.467  10.725   2.538  0.00  0.00    -0.227 N 
ATOM    103  CZ  ARG d   1     -11.271  10.715   1.958  0.00  0.00     0.665 C 
ATOM    104  NH1 ARG d   1     -11.079  10.044   0.833  0.00  0.00    -0.235 N 
ATOM    105  NH2 ARG d   1     -10.263  11.376   2.509  0.00  0.00    -0.235 N 
ATOM    106  H43 ARG d   1     -10.150  10.040   0.388  0.00  0.00     0.174 HD
ATOM    107  H44 ARG d   1     -11.858   9.526   0.403  0.00  0.00     0.174 HD
ATOM    108  H45 ARG d   1     -10.408  11.899   3.384  0.00  0.00     0.174 HD
ATOM    109  H46 ARG d   1      -9.335  11.366   2.062  0.00  0.00     0.174 HD
ATOM    110  H42 ARG d   1     -12.557  11.199   3.448  0.00  0.00     0.177 HD
ENDBRANCH  99 102
ENDBRANCH  96  99
ENDBRANCH  93  96
ENDBRANCH  27  93
ENDBRANCH  24  27
ENDBRANCH   1  23
BRANCH   1 111
ATOM    111  C   ALY d   1     -14.932   8.397   6.395  0.00  0.00     0.241 C 
ATOM    112  O   ALY d   1     -14.089   7.503   6.513  0.00  0.00    -0.271 OA
ATOM    113  N   GLN d   1     -14.687   9.675   6.648  0.00  0.00    -0.346 N 
ATOM    114  H61 GLN d   1     -15.433  10.334   6.551  0.00  0.00     0.163 HD
BRANCH 113 115
ATOM    115  CA  GLN d   1     -13.376  10.162   7.062  0.00  0.00     0.090 C 
ATOM    116  H62 GLN d   1     -12.639   9.864   6.302  0.00  0.00     0.087 H 
BRANCH 115 117
ATOM    117  C   GLN d   1     -12.952   9.560   8.400  0.00  0.00     0.241 C 
ATOM    118  O   GLN d   1     -13.787   9.184   9.226  0.00  0.00    -0.271 OA
ATOM    119  N   LEU d   1     -11.640   9.473   8.593  0.00  0.00    -0.346 N 
ATOM    120  H69 LEU d   1     -11.025   9.837   7.893  0.00  0.00     0.163 HD
BRANCH 119 121
ATOM    121  CA  LEU d   1     -11.065   8.867   9.787  0.00  0.00     0.089 C 
ATOM    122  H70 LEU d   1     -11.632   7.954  10.023  0.00  0.00     0.087 H 
BRANCH 121 123
ATOM    123  C   LEU d   1     -11.162   9.824  10.967  0.00  0.00     0.241 C 
ATOM    124  O   LEU d   1     -11.239   9.400  12.119  0.00  0.00    -0.271 OA
ATOM    125  N   ALA d   1     -11.146  11.113  10.671  0.00  0.00    -0.346 N 
ATOM    126  H80 ALA d   1     -11.050  11.390   9.715  0.00  0.00     0.163 HD
BRANCH 125 127
ATOM    127  CA  ALA d   1     -11.264  12.138  11.693  0.00  0.00     0.086 C 
ATOM    128  H81 ALA d   1     -11.720  11.690  12.588  0.00  0.00     0.086 H 
BRANCH 127 129
ATOM    129  C   ALA d   1     -12.165  13.259  11.201  0.00  0.00     0.240 C 
ATOM    130  O   ALA d   1     -11.843  13.938  10.225  0.00  0.00    -0.271 OA
ATOM    131  N   THR d   1     -13.292  13.441  11.874  0.00  0.00    -0.344 N 
ATOM    132  H85 THR d   1     -13.461  12.894  12.694  0.00  0.00     0.163 HD
BRANCH 131 133
ATOM    133  CA  THR d   1     -14.290  14.411  11.456  0.00  0.00     0.113 C 
ATOM    134  H86 THR d   1     -14.460  14.282  10.377  0.00  0.00     0.091 H 
BRANCH 133 135
ATOM    135  C   THR d   1     -13.814  15.842  11.699  0.00  0.00     0.243 C 
ATOM    136  O   THR d   1     -13.749  16.300  12.841  0.00  0.00    -0.271 OA
ATOM    137  N   LYS d   1     -13.461  16.523  10.608  0.00  0.00    -0.346 N 
ATOM    138  H92 LYS d   1     -13.471  16.053   9.726  0.00  0.00     0.163 HD
BRANCH 137 139
ATOM    139  CA  LYS d   1     -13.060  17.930  10.648  0.00  0.00     0.089 C 
ATOM    140  H93 LYS d   1     -12.774  18.231   9.629  0.00  0.00     0.087 H 
BRANCH 139 141
ATOM    141  C   LYS d   1     -11.853  18.148  11.562  0.00  0.00     0.241 C 
ATOM    142  O   LYS d   1     -11.809  19.105  12.340  0.00  0.00    -0.271 OA
ATOM    143  N   ALA d   1     -10.874  17.262  11.463  0.00  0.00    -0.345 N 
ATOM    144 5H10 ALA d   1     -10.976  16.490  10.836  0.00  0.00     0.163 HD
BRANCH 143 145
ATOM    145  CA  ALA d   1      -9.653  17.385  12.244  0.00  0.00     0.093 C 
ATOM    146 6H10 ALA d   1      -9.688  18.333  12.801  0.00  0.00     0.089 H 
BRANCH 145 147
ATOM    147  C   ALA d   1      -8.439  17.412  11.323  0.00  0.00     0.196 C 
ATOM    148  O   ALA d   1      -7.620  16.471  11.374  0.00  0.00    -0.646 OA
ATOM    149  OXT ALA d   1      -8.329  18.363  10.519  0.00  0.00    -0.646 OA
ENDBRANCH 145 147
BRANCH 145 150
ATOM    150  CB  ALA d   1      -9.549  16.243  13.244  0.00  0.00    -0.048 C 
ATOM    151 7H10 ALA d   1      -8.622  16.349  13.827  0.00  0.00     0.030 H 
ATOM    152 8H10 ALA d   1      -9.536  15.284  12.705  0.00  0.00     0.030 H 
ATOM    153 9H10 ALA d   1     -10.414  16.270  13.923  0.00  0.00     0.030 H 
ENDBRANCH 145 150
ENDBRANCH 143 145
ENDBRANCH 139 141
BRANCH 139 154
ATOM    154  CB  LYS d   1     -14.236  18.809  11.097  0.00  0.00    -0.038 C 
ATOM    155  H94 LYS d   1     -13.890  19.852  11.147  0.00  0.00     0.036 H 
ATOM    156  H95 LYS d   1     -14.554  18.479  12.097  0.00  0.00     0.036 H 
BRANCH 154 157
ATOM    157  CG  LYS d   1     -15.440  18.746  10.165  0.00  0.00    -0.061 C 
ATOM    158  H96 LYS d   1     -16.279  19.282  10.633  0.00  0.00     0.033 H 
ATOM    159  H97 LYS d   1     -15.717  17.692  10.014  0.00  0.00     0.033 H 
BRANCH 157 160
ATOM    160  CD  LYS d   1     -15.149  19.377   8.809  0.00  0.00    -0.043 C 
ATOM    161  H98 LYS d   1     -15.977  19.146   8.123  0.00  0.00     0.035 H 
ATOM    162  H99 LYS d   1     -14.214  18.954   8.412  0.00  0.00     0.035 H 
BRANCH 160 163
ATOM    163  CE  LYS d   1     -15.002  20.888   8.914  0.00  0.00     0.080 C 
ATOM    164 0H10 LYS d   1     -14.168  21.117   9.593  0.00  0.00     0.075 H 
ATOM    165 1H10 LYS d   1     -15.933  21.308   9.322  0.00  0.00     0.075 H 
BRANCH 163 166
ATOM    166  NZ  LYS d   1     -14.732  21.515   7.595  0.00  0.00    -0.079 N 
ATOM    167 2H10 LYS d   1     -14.642  22.512   7.709  0.00  0.00     0.274 HD
ATOM    168 3H10 LYS d   1     -15.494  21.316   6.966  0.00  0.00     0.274 HD
ATOM    169 4H10 LYS d   1     -13.877  21.142   7.214  0.00  0.00     0.274 HD
ENDBRANCH 163 166
ENDBRANCH 160 163
ENDBRANCH 157 160
ENDBRANCH 154 157
ENDBRANCH 139 154
ENDBRANCH 137 139
ENDBRANCH 133 135
BRANCH 133 170
ATOM    170  CB  THR d   1     -15.625  14.176  12.191  0.00  0.00     0.060 C 
ATOM    171  H87 THR d   1     -15.489  14.414  13.256  0.00  0.00     0.086 H 
BRANCH 170 172
ATOM    172  OG1 THR d   1     -16.014  12.799  12.064  0.00  0.00    -0.393 OA
ATOM    173  H88 THR d   1     -16.837  12.660  12.518  0.00  0.00     0.210 HD
ENDBRANCH 170 172
BRANCH 170 174
ATOM    174  CG2 THR d   1     -16.725  15.066  11.625  0.00  0.00    -0.050 C 
ATOM    175  H89 THR d   1     -17.664  14.878  12.167  0.00  0.00     0.031 H 
ATOM    176  H90 THR d   1     -16.866  14.841  10.558  0.00  0.00     0.031 H 
ATOM    177  H91 THR d   1     -16.439  16.122  11.742  0.00  0.00     0.031 H 
ENDBRANCH 170 174
ENDBRANCH 133 170
ENDBRANCH 131 133
ENDBRANCH 127 129
BRANCH 127 178
ATOM    178  CB  ALA d   1      -9.893  12.674  12.071  0.00  0.00    -0.049 C 
ATOM    179  H82 ALA d   1     -10.002  13.448  12.845  0.00  0.00     0.030 H 
ATOM    180  H83 ALA d   1      -9.412  13.109  11.183  0.00  0.00     0.030 H 
ATOM    181  H84 ALA d   1      -9.272  11.853  12.459  0.00  0.00     0.030 H 
ENDBRANCH 127 178
ENDBRANCH 125 127
ENDBRANCH 121 123
BRANCH 121 182
ATOM    182  CB  LEU d   1      -9.591   8.487   9.557  0.00  0.00    -0.035 C 
ATOM    183  H71 LEU d   1      -9.176   8.160  10.522  0.00  0.00     0.037 H 
ATOM    184  H72 LEU d   1      -9.062   9.390   9.218  0.00  0.00     0.037 H 
BRANCH 182 185
ATOM    185  CG  LEU d   1      -9.318   7.374   8.530  0.00  0.00    -0.059 C 
ATOM    186  H73 LEU d   1      -8.253   7.108   8.598  0.00  0.00     0.038 H 
BRANCH 185 187
ATOM    187  CD1 LEU d   1     -10.131   6.131   8.847  0.00  0.00    -0.073 C 
ATOM    188  H74 LEU d   1      -9.918   5.353   8.099  0.00  0.00     0.028 H 
ATOM    189  H75 LEU d   1     -11.203   6.378   8.823  0.00  0.00     0.028 H 
ATOM    190  H76 LEU d   1      -9.862   5.762   9.848  0.00  0.00     0.028 H 
ENDBRANCH 185 187
BRANCH 185 191
ATOM    191  CD2 LEU d   1      -9.591   7.848   7.108  0.00  0.00    -0.073 C 
ATOM    192  H77 LEU d   1      -8.993   8.748   6.900  0.00  0.00     0.028 H 
ATOM    193  H78 LEU d   1     -10.660   8.085   6.999  0.00  0.00     0.028 H 
ATOM    194  H79 LEU d   1      -9.317   7.054   6.398  0.00  0.00     0.028 H 
ENDBRANCH 185 191
ENDBRANCH 182 185
ENDBRANCH 121 182
ENDBRANCH 119 121
ENDBRANCH 115 117
BRANCH 115 195
ATOM    195  CB  GLN d   1     -13.403  11.693   7.143  0.00  0.00    -0.030 C 
ATOM    196  H63 GLN d   1     -13.669  12.086   6.151  0.00  0.00     0.037 H 
ATOM    197  H64 GLN d   1     -12.397  12.042   7.418  0.00  0.00     0.037 H 
BRANCH 195 198
ATOM    198  CG  GLN d   1     -14.394  12.246   8.157  0.00  0.00     0.011 C 
ATOM    199  H65 GLN d   1     -13.971  12.124   9.165  0.00  0.00     0.047 H 
ATOM    200  H66 GLN d   1     -15.331  11.675   8.081  0.00  0.00     0.047 H 
BRANCH 198 201
ATOM    201  CD  GLN d   1     -14.701  13.715   7.933  0.00  0.00     0.215 C 
ATOM    202  OE1 GLN d   1     -14.006  14.595   8.441  0.00  0.00    -0.274 OA
ATOM    203  NE2 GLN d   1     -15.754  13.989   7.185  0.00  0.00    -0.370 N 
ATOM    204  H67 GLN d   1     -16.005  14.940   7.003  0.00  0.00     0.159 HD
ATOM    205  H68 GLN d   1     -16.301  13.246   6.800  0.00  0.00     0.159 HD
ENDBRANCH 198 201
ENDBRANCH 195 198
ENDBRANCH 115 195
ENDBRANCH 113 115
ENDBRANCH   1 111
TORSDOF 58
