REMARK WARNING: 32 MAX_TORS EXCEEDED!!!
REMARK  59 active torsions:
REMARK  status: ('A' for Active; 'I' for Inactive)
REMARK    1  A    between atoms: N_1  and  CA_2 
REMARK    2  A    between atoms: CA_2  and  C_3 
REMARK       I    between atoms: C_3  and  N_5 
REMARK    3  A    between atoms: N_5  and  CA_6 
REMARK    4  A    between atoms: CA_6  and  C_7 
REMARK       I    between atoms: C_7  and  N_9 
REMARK    5  A    between atoms: N_9  and  CA_10 
REMARK    6  A    between atoms: CA_10  and  C_11 
REMARK    7  A    between atoms: CA_10  and  CB_13 
REMARK       I    between atoms: C_11  and  N_18 
REMARK    8  A    between atoms: CB_13  and  CG_14 
REMARK    9  A    between atoms: CG_14  and  CD_15 
REMARK   10  A    between atoms: CD_15  and  CE_16 
REMARK   11  A    between atoms: CE_16  and  NZ_17 
REMARK   12  A    between atoms: N_18  and  CA_19 
REMARK   13  A    between atoms: CA_19  and  C_20 
REMARK   14  A    between atoms: CA_19  and  CB_22 
REMARK       I    between atoms: C_20  and  N_23 
REMARK   15  A    between atoms: CA_24  and  C_25 
REMARK       I    between atoms: C_25  and  N_30 
REMARK   16  A    between atoms: N_30  and  CA_31 
REMARK   17  A    between atoms: CA_31  and  C_32 
REMARK   18  A    between atoms: CA_31  and  CB_34 
REMARK       I    between atoms: C_32  and  N_41 
REMARK   19  A    between atoms: CB_34  and  CG_35 
REMARK   20  A    between atoms: CG_35  and  CD_36 
REMARK   21  A    between atoms: CD_36  and  NE_37 
REMARK       I    between atoms: NE_37  and  CZ_38 
REMARK       I    between atoms: CZ_38  and  NH1_39 
REMARK   22  A    between atoms: N_41  and  CA_42 
REMARK   23  A    between atoms: CA_42  and  CB_43 
REMARK   24  A    between atoms: CA_42  and  C_53 
REMARK   25  A    between atoms: CB_43  and  CG_44 
REMARK   26  A    between atoms: CG_44  and  CD_45 
REMARK   27  A    between atoms: CD_45  and  CE_46 
REMARK   28  A    between atoms: CE_46  and  NZ_47 
REMARK       I    between atoms: NZ_47  and  CH_48 
REMARK   29  A    between atoms: CH_48  and  CX_50 
REMARK   30  A    between atoms: CY_51  and  CH3_52 
REMARK       I    between atoms: C_53  and  N_55 
REMARK   31  A    between atoms: N_55  and  CA_56 
REMARK   32  A    between atoms: CA_56  and  C_57 
REMARK   33  A    between atoms: CA_56  and  CB_59 
REMARK       I    between atoms: C_57  and  N_64 
REMARK   34  A    between atoms: CB_59  and  CG_60 
REMARK   35  A    between atoms: CG_60  and  CD_61 
REMARK       I    between atoms: CD_61  and  NE2_63 
REMARK   36  A    between atoms: N_64  and  CA_65 
REMARK   37  A    between atoms: CA_65  and  C_66 
REMARK   38  A    between atoms: CA_65  and  CB_68 
REMARK       I    between atoms: C_66  and  N_72 
REMARK   39  A    between atoms: CB_68  and  CG_69 
REMARK   40  A    between atoms: CG_69  and  CD1_70 
REMARK   41  A    between atoms: CG_69  and  CD2_71 
REMARK   42  A    between atoms: N_72  and  CA_73 
REMARK   43  A    between atoms: CA_73  and  C_74 
REMARK   44  A    between atoms: CA_73  and  CB_76 
REMARK       I    between atoms: C_74  and  N_77 
REMARK   45  A    between atoms: N_77  and  CA_78 
REMARK   46  A    between atoms: CA_78  and  C_79 
REMARK   47  A    between atoms: CA_78  and  CB_81 
REMARK       I    between atoms: C_79  and  N_84 
REMARK   48  A    between atoms: CB_81  and  OG1_82 
REMARK   49  A    between atoms: CB_81  and  CG2_83 
REMARK   50  A    between atoms: N_84  and  CA_85 
REMARK   51  A    between atoms: CA_85  and  C_86 
REMARK   52  A    between atoms: CA_85  and  CB_88 
REMARK       I    between atoms: C_86  and  N_93 
REMARK   53  A    between atoms: CB_88  and  CG_89 
REMARK   54  A    between atoms: CG_89  and  CD_90 
REMARK   55  A    between atoms: CD_90  and  CE_91 
REMARK   56  A    between atoms: CE_91  and  NZ_92 
REMARK   57  A    between atoms: N_93  and  CA_94 
REMARK   58  A    between atoms: CA_94  and  C_95 
REMARK   59  A    between atoms: CA_94  and  CB_97 
ROOT
ATOM      1  CA  KCR d   1     -16.644  -7.311   7.083  0.00  0.00     0.089 C 
ATOM      2  H48 KCR d   1     -17.690  -7.547   7.330  0.00  0.00     0.087 H 
ENDROOT
BRANCH   1   3
ATOM      3  N   KCR d   1     -16.434  -5.887   7.294  0.00  0.00    -0.346 N 
ATOM      4  C   ARG d   1     -17.014  -5.235   8.294  0.00  0.00     0.241 C 
ATOM      5  O   ARG d   1     -17.738  -5.783   9.130  0.00  0.00    -0.271 OA
ATOM      6  H47 KCR d   1     -15.836  -5.386   6.668  0.00  0.00     0.163 HD
BRANCH   4   7
ATOM      7  CA  ARG d   1     -16.737  -3.738   8.359  0.00  0.00     0.089 C 
ATOM      8  H35 ARG d   1     -16.348  -3.416   7.382  0.00  0.00     0.087 H 
BRANCH   7   9
ATOM      9  N   ARG d   1     -17.956  -2.996   8.639  0.00  0.00    -0.346 N 
ATOM     10  C   PRO d   1     -18.239  -1.860   8.020  0.00  0.00     0.241 C 
ATOM     11  O   PRO d   1     -17.510  -1.375   7.148  0.00  0.00    -0.271 OA
ATOM     12  H34 ARG d   1     -18.598  -3.353   9.317  0.00  0.00     0.163 HD
BRANCH  10  13
ATOM     13  CA  PRO d   1     -19.532  -1.165   8.454  0.00  0.00     0.091 C 
ATOM     14  N   PRO d   1     -19.610   0.238   8.019  0.00  0.00    -0.337 N 
ATOM     15  C   ALA d   1     -18.647   1.143   8.281  0.00  0.00     0.243 C 
ATOM     16  CD  PRO d   1     -20.858   0.504   7.289  0.00  0.00    -0.001 C 
ATOM     17  O   ALA d   1     -17.628   0.852   8.911  0.00  0.00    -0.271 OA
ATOM     18  CG  PRO d   1     -21.219  -0.850   6.759  0.00  0.00    -0.048 C 
ATOM     19  H32 PRO d   1     -20.695   1.221   6.471  0.00  0.00     0.064 H 
ATOM     20  H33 PRO d   1     -21.638   0.888   7.963  0.00  0.00     0.064 H 
ATOM     21  CB  PRO d   1     -20.748  -1.825   7.784  0.00  0.00    -0.036 C 
ATOM     22  H30 PRO d   1     -22.308  -0.931   6.625  0.00  0.00     0.035 H 
ATOM     23  H31 PRO d   1     -20.716  -1.032   5.798  0.00  0.00     0.035 H 
ATOM     24  H28 PRO d   1     -21.538  -2.015   8.525  0.00  0.00     0.036 H 
ATOM     25  H29 PRO d   1     -20.457  -2.772   7.307  0.00  0.00     0.036 H 
ATOM     26  H27 PRO d   1     -19.614  -1.225   9.549  0.00  0.00     0.087 H 
BRANCH  15  27
ATOM     27  CA  ALA d   1     -18.853   2.571   7.776  0.00  0.00     0.086 C 
ATOM     28  H23 ALA d   1     -19.874   2.886   8.036  0.00  0.00     0.086 H 
BRANCH  27  29
ATOM     29  N   ALA d   1     -17.911   3.484   8.405  0.00  0.00    -0.346 N 
ATOM     30  C   LYS d   1     -17.957   3.778   9.694  0.00  0.00     0.241 C 
ATOM     31  O   LYS d   1     -18.794   3.313  10.469  0.00  0.00    -0.271 OA
ATOM     32  H22 ALA d   1     -17.201   3.906   7.841  0.00  0.00     0.163 HD
BRANCH  30  33
ATOM     33  CA  LYS d   1     -16.909   4.773  10.173  0.00  0.00     0.089 C 
ATOM     34  H10 LYS d   1     -16.438   5.232   9.291  0.00  0.00     0.087 H 
BRANCH  33  35
ATOM     35  N   LYS d   1     -17.531   5.823  10.961  0.00  0.00    -0.346 N 
ATOM     36  C   GLY d   1     -18.042   6.908  10.402  0.00  0.00     0.236 C 
ATOM     37  O   GLY d   1     -18.027   7.112   9.187  0.00  0.00    -0.272 OA
ATOM     38  H9  LYS d   1     -17.574   5.723  11.955  0.00  0.00     0.163 HD
BRANCH  36  39
ATOM     39  CA  GLY d   1     -18.654   7.917  11.349  0.00  0.00     0.069 C 
ATOM     40  H7  GLY d   1     -19.101   8.731  10.759  0.00  0.00     0.078 H 
ATOM     41  H8  GLY d   1     -19.438   7.419  11.939  0.00  0.00     0.078 H 
BRANCH  39  42
ATOM     42  N   GLY d   1     -17.674   8.483  12.258  0.00  0.00    -0.351 N 
ATOM     43  C   GLY d   1     -17.307   7.839  13.359  0.00  0.00     0.243 C 
ATOM     44  O   GLY d   1     -17.766   6.741  13.678  0.00  0.00    -0.272 OA
ATOM     45  H6  GLY d   1     -17.268   9.373  12.051  0.00  0.00     0.163 HD
BRANCH  43  46
ATOM     46  CA  GLY d   1     -16.281   8.526  14.232  0.00  0.00     0.152 C 
ATOM     47  H4  GLY d   1     -15.593   7.768  14.635  0.00  0.00     0.090 H 
ATOM     48  H5  GLY d   1     -15.717   9.244  13.619  0.00  0.00     0.090 H 
BRANCH  46  49
ATOM     49  N   GLY d   1     -16.908   9.251  15.362  0.00  0.00    -0.071 N 
ATOM     50  H1  GLY d   1     -16.192   9.693  15.917  0.00  0.00     0.274 HD
ATOM     51  H2  GLY d   1     -17.423   8.600  15.935  0.00  0.00     0.274 HD
ATOM     52  H3  GLY d   1     -17.536   9.953  15.004  0.00  0.00     0.274 HD
ENDBRANCH  46  49
ENDBRANCH  43  46
ENDBRANCH  39  42
ENDBRANCH  36  39
ENDBRANCH  33  35
BRANCH  33  53
ATOM     53  CB  LYS d   1     -15.820   4.069  10.990  0.00  0.00    -0.038 C 
ATOM     54  H11 LYS d   1     -14.993   4.777  11.147  0.00  0.00     0.036 H 
ATOM     55  H12 LYS d   1     -15.458   3.206  10.412  0.00  0.00     0.036 H 
BRANCH  53  56
ATOM     56  CG  LYS d   1     -16.289   3.572  12.350  0.00  0.00    -0.061 C 
ATOM     57  H13 LYS d   1     -17.047   2.788  12.202  0.00  0.00     0.033 H 
ATOM     58  H14 LYS d   1     -16.734   4.412  12.903  0.00  0.00     0.033 H 
BRANCH  56  59
ATOM     59  CD  LYS d   1     -15.139   2.999  13.164  0.00  0.00    -0.043 C 
ATOM     60  H15 LYS d   1     -15.500   2.770  14.178  0.00  0.00     0.035 H 
ATOM     61  H16 LYS d   1     -14.336   3.749  13.221  0.00  0.00     0.035 H 
BRANCH  59  62
ATOM     62  CE  LYS d   1     -14.581   1.728  12.543  0.00  0.00     0.080 C 
ATOM     63  H17 LYS d   1     -14.290   1.938  11.503  0.00  0.00     0.075 H 
ATOM     64  H18 LYS d   1     -15.361   0.953  12.556  0.00  0.00     0.075 H 
BRANCH  62  65
ATOM     65  NZ  LYS d   1     -13.394   1.228  13.283  0.00  0.00    -0.079 N 
ATOM     66  H19 LYS d   1     -13.053   0.387  12.843  0.00  0.00     0.274 HD
ATOM     67  H20 LYS d   1     -13.652   1.027  14.236  0.00  0.00     0.274 HD
ATOM     68  H21 LYS d   1     -12.671   1.930  13.271  0.00  0.00     0.274 HD
ENDBRANCH  62  65
ENDBRANCH  59  62
ENDBRANCH  56  59
ENDBRANCH  53  56
ENDBRANCH  33  53
ENDBRANCH  30  33
ENDBRANCH  27  29
BRANCH  27  69
ATOM     69  CB  ALA d   1     -18.693   2.638   6.261  0.00  0.00    -0.049 C 
ATOM     70  H24 ALA d   1     -19.405   1.948   5.786  0.00  0.00     0.030 H 
ATOM     71  H25 ALA d   1     -17.667   2.351   5.988  0.00  0.00     0.030 H 
ATOM     72  H26 ALA d   1     -18.891   3.664   5.916  0.00  0.00     0.030 H 
ENDBRANCH  27  69
ENDBRANCH  15  27
ENDBRANCH  10  13
ENDBRANCH   7   9
BRANCH   7  73
ATOM     73  CB  ARG d   1     -15.686  -3.423   9.431  0.00  0.00    -0.036 C 
ATOM     74  H36 ARG d   1     -16.122  -3.646  10.416  0.00  0.00     0.036 H 
ATOM     75  H37 ARG d   1     -15.445  -2.351   9.371  0.00  0.00     0.036 H 
BRANCH  73  76
ATOM     76  CG  ARG d   1     -14.390  -4.209   9.297  0.00  0.00    -0.048 C 
ATOM     77  H38 ARG d   1     -14.122  -4.278   8.232  0.00  0.00     0.035 H 
ATOM     78  H39 ARG d   1     -14.541  -5.220   9.703  0.00  0.00     0.035 H 
BRANCH  76  79
ATOM     79  CD  ARG d   1     -13.252  -3.538  10.051  0.00  0.00     0.009 C 
ATOM     80  H40 ARG d   1     -12.345  -4.151   9.946  0.00  0.00     0.064 H 
ATOM     81  H41 ARG d   1     -13.524  -3.464  11.114  0.00  0.00     0.064 H 
BRANCH  79  82
ATOM     82  NE  ARG d   1     -12.980  -2.195   9.536  0.00  0.00    -0.227 N 
ATOM     83  CZ  ARG d   1     -11.796  -1.586   9.606  0.00  0.00     0.665 C 
ATOM     84  NH1 ARG d   1     -10.771  -2.170  10.218  0.00  0.00    -0.235 N 
ATOM     85  NH2 ARG d   1     -11.647  -0.381   9.071  0.00  0.00    -0.235 N 
ATOM     86  H43 ARG d   1      -9.860  -1.692  10.267  0.00  0.00     0.174 HD
ATOM     87  H44 ARG d   1     -10.887  -3.101  10.643  0.00  0.00     0.174 HD
ATOM     88  H45 ARG d   1     -12.440   0.073   8.596  0.00  0.00     0.174 HD
ATOM     89  H46 ARG d   1     -10.738   0.100   9.130  0.00  0.00     0.174 HD
ATOM     90  H42 ARG d   1     -13.756  -1.686   9.089  0.00  0.00     0.177 HD
ENDBRANCH  79  82
ENDBRANCH  76  79
ENDBRANCH  73  76
ENDBRANCH   7  73
ENDBRANCH   4   7
ENDBRANCH   1   3
BRANCH   1  91
ATOM     91  CB  KCR d   1     -16.394  -7.684   5.621  0.00  0.00    -0.038 C 
ATOM     92  H49 KCR d   1     -16.527  -8.770   5.510  0.00  0.00     0.036 H 
ATOM     93  H50 KCR d   1     -15.360  -7.413   5.363  0.00  0.00     0.036 H 
BRANCH  91  94
ATOM     94  CG  KCR d   1     -17.331  -6.983   4.655  0.00  0.00    -0.061 C 
ATOM     95  H51 KCR d   1     -17.204  -5.896   4.763  0.00  0.00     0.033 H 
ATOM     96  H52 KCR d   1     -18.367  -7.258   4.902  0.00  0.00     0.033 H 
BRANCH  94  97
ATOM     97  CD  KCR d   1     -17.052  -7.368   3.214  0.00  0.00    -0.050 C 
ATOM     98  H53 KCR d   1     -17.289  -8.433   3.073  0.00  0.00     0.035 H 
ATOM     99  H54 KCR d   1     -15.988  -7.197   2.995  0.00  0.00     0.035 H 
BRANCH  97 100
ATOM    100  CE  KCR d   1     -17.894  -6.541   2.259  0.00  0.00    -0.004 C 
ATOM    101  H55 KCR d   1     -17.650  -5.478   2.401  0.00  0.00     0.064 H 
ATOM    102  H56 KCR d   1     -18.957  -6.707   2.489  0.00  0.00     0.064 H 
BRANCH 100 103
ATOM    103  NZ  KCR d   1     -17.654  -6.896   0.864  0.00  0.00    -0.358 N 
ATOM    104  CH  KCR d   1     -17.529  -6.001  -0.106  0.00  0.00     0.240 C 
ATOM    105  OH  KCR d   1     -17.604  -4.788   0.109  0.00  0.00    -0.269 OA
ATOM    106  H57 KCR d   1     -17.580  -7.865   0.627  0.00  0.00     0.162 HD
BRANCH 104 107
ATOM    107  CX  KCR d   1     -17.282  -6.484  -1.504  0.00  0.00    -0.022 C 
ATOM    108  CY  KCR d   1     -17.142  -5.584  -2.539  0.00  0.00    -0.102 C 
ATOM    109  H59 KCR d   1     -17.213  -4.515  -2.346  0.00  0.00     0.076 H 
ATOM    110  H58 KCR d   1     -17.213  -7.552  -1.703  0.00  0.00     0.091 H 
BRANCH 108 111
ATOM    111  CH3 KCR d   1     -16.892  -6.081  -3.930  0.00  0.00    -0.059 C 
ATOM    112  H60 KCR d   1     -16.809  -5.225  -4.616  0.00  0.00     0.032 H 
ATOM    113  H61 KCR d   1     -17.727  -6.723  -4.245  0.00  0.00     0.032 H 
ATOM    114  H62 KCR d   1     -15.957  -6.659  -3.950  0.00  0.00     0.032 H 
ENDBRANCH 108 111
ENDBRANCH 104 107
ENDBRANCH 100 103
ENDBRANCH  97 100
ENDBRANCH  94  97
ENDBRANCH  91  94
ENDBRANCH   1  91
BRANCH   1 115
ATOM    115  C   KCR d   1     -15.739  -8.130   7.989  0.00  0.00     0.241 C 
ATOM    116  O   KCR d   1     -14.512  -8.088   7.872  0.00  0.00    -0.271 OA
ATOM    117  N   GLN d   1     -16.354  -8.871   8.892  0.00  0.00    -0.346 N 
ATOM    118  H63 GLN d   1     -17.352  -8.846   8.943  0.00  0.00     0.163 HD
BRANCH 117 119
ATOM    119  CA  GLN d   1     -15.623  -9.721   9.813  0.00  0.00     0.090 C 
ATOM    120  H64 GLN d   1     -14.547  -9.547   9.664  0.00  0.00     0.087 H 
BRANCH 119 121
ATOM    121  C   GLN d   1     -15.917 -11.187   9.523  0.00  0.00     0.241 C 
ATOM    122  O   GLN d   1     -16.071 -12.003  10.431  0.00  0.00    -0.271 OA
ATOM    123  N   LEU d   1     -16.010 -11.507   8.242  0.00  0.00    -0.346 N 
ATOM    124  H71 LEU d   1     -15.953 -10.784   7.554  0.00  0.00     0.163 HD
BRANCH 123 125
ATOM    125  CA  LEU d   1     -16.193 -12.883   7.809  0.00  0.00     0.089 C 
ATOM    126  H72 LEU d   1     -16.879 -13.389   8.504  0.00  0.00     0.087 H 
BRANCH 125 127
ATOM    127  C   LEU d   1     -14.851 -13.606   7.825  0.00  0.00     0.241 C 
ATOM    128  O   LEU d   1     -14.785 -14.833   7.910  0.00  0.00    -0.271 OA
ATOM    129  N   ALA d   1     -13.784 -12.825   7.747  0.00  0.00    -0.346 N 
ATOM    130  H82 ALA d   1     -13.912 -11.838   7.648  0.00  0.00     0.163 HD
BRANCH 129 131
ATOM    131  CA  ALA d   1     -12.434 -13.357   7.801  0.00  0.00     0.086 C 
ATOM    132  H83 ALA d   1     -12.453 -14.404   7.464  0.00  0.00     0.086 H 
BRANCH 131 133
ATOM    133  C   ALA d   1     -11.912 -13.313   9.229  0.00  0.00     0.240 C 
ATOM    134  O   ALA d   1     -12.568 -12.772  10.123  0.00  0.00    -0.271 OA
ATOM    135  N   THR d   1     -10.737 -13.872   9.440  0.00  0.00    -0.344 N 
ATOM    136  H87 THR d   1     -10.252 -14.294   8.674  0.00  0.00     0.163 HD
BRANCH 135 137
ATOM    137  CA  THR d   1     -10.131 -13.889  10.756  0.00  0.00     0.113 C 
ATOM    138  H88 THR d   1     -10.773 -13.317  11.441  0.00  0.00     0.091 H 
BRANCH 137 139
ATOM    139  C   THR d   1      -8.757 -13.228  10.711  0.00  0.00     0.243 C 
ATOM    140  O   THR d   1      -7.994 -13.417   9.760  0.00  0.00    -0.271 OA
ATOM    141  N   LYS d   1      -8.458 -12.430  11.725  0.00  0.00    -0.346 N 
ATOM    142  H94 LYS d   1      -9.140 -12.269  12.438  0.00  0.00     0.163 HD
BRANCH 141 143
ATOM    143  CA  LYS d   1      -7.158 -11.783  11.823  0.00  0.00     0.089 C 
ATOM    144  H95 LYS d   1      -6.742 -11.688  10.809  0.00  0.00     0.087 H 
BRANCH 143 145
ATOM    145  C   LYS d   1      -6.203 -12.633  12.654  0.00  0.00     0.241 C 
ATOM    146  O   LYS d   1      -5.047 -12.262  12.872  0.00  0.00    -0.271 OA
ATOM    147  N   ALA d   1      -6.695 -13.780  13.107  0.00  0.00    -0.345 N 
ATOM    148 7H10 ALA d   1      -7.649 -14.009  12.914  0.00  0.00     0.163 HD
BRANCH 147 149
ATOM    149  CA  ALA d   1      -5.888 -14.711  13.874  0.00  0.00     0.093 C 
ATOM    150 8H10 ALA d   1      -4.948 -14.212  14.152  0.00  0.00     0.089 H 
BRANCH 149 151
ATOM    151  C   ALA d   1      -5.553 -15.934  13.029  0.00  0.00     0.196 C 
ATOM    152  O   ALA d   1      -4.560 -15.876  12.276  0.00  0.00    -0.646 OA
ATOM    153  OXT ALA d   1      -6.288 -16.943  13.107  0.00  0.00    -0.646 OA
ENDBRANCH 149 151
BRANCH 149 154
ATOM    154  CB  ALA d   1      -6.611 -15.118  15.150  0.00  0.00    -0.048 C 
ATOM    155 9H10 ALA d   1      -5.985 -15.823  15.717  0.00  0.00     0.030 H 
ATOM    156 0H11 ALA d   1      -7.565 -15.601  14.893  0.00  0.00     0.030 H 
ATOM    157 1H11 ALA d   1      -6.805 -14.225  15.762  0.00  0.00     0.030 H 
ENDBRANCH 149 154
ENDBRANCH 147 149
ENDBRANCH 143 145
BRANCH 143 158
ATOM    158  CB  LYS d   1      -7.294 -10.377  12.418  0.00  0.00    -0.038 C 
ATOM    159  H96 LYS d   1      -7.889  -9.765  11.725  0.00  0.00     0.036 H 
ATOM    160  H97 LYS d   1      -6.287  -9.945  12.517  0.00  0.00     0.036 H 
BRANCH 158 161
ATOM    161  CG  LYS d   1      -7.965 -10.341  13.783  0.00  0.00    -0.061 C 
ATOM    162  H98 LYS d   1      -7.346 -10.901  14.500  0.00  0.00     0.033 H 
ATOM    163  H99 LYS d   1      -8.956 -10.813  13.707  0.00  0.00     0.033 H 
BRANCH 161 164
ATOM    164  CD  LYS d   1      -8.135  -8.914  14.286  0.00  0.00    -0.043 C 
ATOM    165 0H10 LYS d   1      -8.681  -8.935  15.241  0.00  0.00     0.035 H 
ATOM    166 1H10 LYS d   1      -8.714  -8.342  13.546  0.00  0.00     0.035 H 
BRANCH 164 167
ATOM    167  CE  LYS d   1      -6.794  -8.228  14.500  0.00  0.00     0.080 C 
ATOM    168 2H10 LYS d   1      -6.233  -8.241  13.554  0.00  0.00     0.075 H 
ATOM    169 3H10 LYS d   1      -6.231  -8.780  15.267  0.00  0.00     0.075 H 
BRANCH 167 170
ATOM    170  NZ  LYS d   1      -6.954  -6.817  14.944  0.00  0.00    -0.079 N 
ATOM    171 4H10 LYS d   1      -6.045  -6.401  15.074  0.00  0.00     0.274 HD
ATOM    172 5H10 LYS d   1      -7.462  -6.794  15.815  0.00  0.00     0.274 HD
ATOM    173 6H10 LYS d   1      -7.463  -6.300  14.244  0.00  0.00     0.274 HD
ENDBRANCH 167 170
ENDBRANCH 164 167
ENDBRANCH 161 164
ENDBRANCH 158 161
ENDBRANCH 143 158
ENDBRANCH 141 143
ENDBRANCH 137 139
BRANCH 137 174
ATOM    174  CB  THR d   1     -10.009 -15.333  11.293  0.00  0.00     0.060 C 
ATOM    175  H89 THR d   1     -11.020 -15.761  11.366  0.00  0.00     0.086 H 
BRANCH 174 176
ATOM    176  OG1 THR d   1      -9.413 -15.341  12.600  0.00  0.00    -0.393 OA
ATOM    177  H90 THR d   1      -9.347 -16.236  12.911  0.00  0.00     0.210 HD
ENDBRANCH 174 176
BRANCH 174 178
ATOM    178  CG2 THR d   1      -9.184 -16.198  10.352  0.00  0.00    -0.050 C 
ATOM    179  H91 THR d   1      -9.114 -17.218  10.758  0.00  0.00     0.031 H 
ATOM    180  H92 THR d   1      -8.175 -15.773  10.253  0.00  0.00     0.031 H 
ATOM    181  H93 THR d   1      -9.667 -16.229   9.364  0.00  0.00     0.031 H 
ENDBRANCH 174 178
ENDBRANCH 137 174
ENDBRANCH 135 137
ENDBRANCH 131 133
BRANCH 131 182
ATOM    182  CB  ALA d   1     -11.520 -12.564   6.880  0.00  0.00    -0.049 C 
ATOM    183  H84 ALA d   1     -10.502 -12.977   6.930  0.00  0.00     0.030 H 
ATOM    184  H85 ALA d   1     -11.505 -11.511   7.197  0.00  0.00     0.030 H 
ATOM    185  H86 ALA d   1     -11.892 -12.631   5.847  0.00  0.00     0.030 H 
ENDBRANCH 131 182
ENDBRANCH 129 131
ENDBRANCH 125 127
BRANCH 125 186
ATOM    186  CB  LEU d   1     -16.799 -12.917   6.405  0.00  0.00    -0.035 C 
ATOM    187  H73 LEU d   1     -16.101 -12.411   5.722  0.00  0.00     0.037 H 
ATOM    188  H74 LEU d   1     -17.750 -12.365   6.433  0.00  0.00     0.037 H 
BRANCH 186 189
ATOM    189  CG  LEU d   1     -17.080 -14.312   5.844  0.00  0.00    -0.059 C 
ATOM    190  H75 LEU d   1     -16.148 -14.895   5.884  0.00  0.00     0.038 H 
BRANCH 189 191
ATOM    191  CD1 LEU d   1     -18.128 -15.030   6.679  0.00  0.00    -0.073 C 
ATOM    192  H76 LEU d   1     -18.312 -16.029   6.256  0.00  0.00     0.028 H 
ATOM    193  H77 LEU d   1     -19.063 -14.450   6.671  0.00  0.00     0.028 H 
ATOM    194  H78 LEU d   1     -17.767 -15.130   7.713  0.00  0.00     0.028 H 
ENDBRANCH 189 191
BRANCH 189 195
ATOM    195  CD2 LEU d   1     -17.523 -14.216   4.396  0.00  0.00    -0.073 C 
ATOM    196  H79 LEU d   1     -16.752 -13.694   3.811  0.00  0.00     0.028 H 
ATOM    197  H80 LEU d   1     -18.468 -13.657   4.338  0.00  0.00     0.028 H 
ATOM    198  H81 LEU d   1     -17.670 -15.228   3.990  0.00  0.00     0.028 H 
ENDBRANCH 189 195
ENDBRANCH 186 189
ENDBRANCH 125 186
ENDBRANCH 123 125
ENDBRANCH 119 121
BRANCH 119 199
ATOM    199  CB  GLN d   1     -15.968  -9.375  11.263  0.00  0.00    -0.030 C 
ATOM    200  H65 GLN d   1     -15.533 -10.144  11.918  0.00  0.00     0.037 H 
ATOM    201  H66 GLN d   1     -17.063  -9.378  11.371  0.00  0.00     0.037 H 
BRANCH 199 202
ATOM    202  CG  GLN d   1     -15.445  -8.018  11.701  0.00  0.00     0.011 C 
ATOM    203  H67 GLN d   1     -15.993  -7.236  11.156  0.00  0.00     0.047 H 
ATOM    204  H68 GLN d   1     -14.375  -7.956  11.454  0.00  0.00     0.047 H 
BRANCH 202 205
ATOM    205  CD  GLN d   1     -15.615  -7.784  13.187  0.00  0.00     0.215 C 
ATOM    206  OE1 GLN d   1     -14.750  -8.147  13.984  0.00  0.00    -0.274 OA
ATOM    207  NE2 GLN d   1     -16.718  -7.161  13.569  0.00  0.00    -0.370 N 
ATOM    208  H69 GLN d   1     -16.880  -6.981  14.539  0.00  0.00     0.159 HD
ATOM    209  H70 GLN d   1     -17.390  -6.870  12.887  0.00  0.00     0.159 HD
ENDBRANCH 202 205
ENDBRANCH 199 202
ENDBRANCH 119 199
ENDBRANCH 117 119
ENDBRANCH   1 115
TORSDOF 59
