REMARK  4 active torsions:
REMARK  status: ('A' for Active; 'I' for Inactive)
REMARK    1  A    between atoms: C13_2  and  C8_4 
REMARK    2  A    between atoms: C7_9  and  N1_10 
REMARK    3  A    between atoms: N1_10  and  S1_11 
REMARK    4  A    between atoms: S1_11  and  C4_14 
ROOT
ATOM      1  N1  SFQ d   1       8.380 -11.694  -5.506  0.00  0.00    -0.280 N 
ATOM      2  H5  SFQ d   1       7.526 -11.790  -6.016  0.00  0.00     0.179 HD
ENDROOT
BRANCH   1   3
ATOM      3  C7  SFQ d   1       9.381 -10.944  -5.965  0.00  0.00     0.059 A 
ATOM      4  C8  SFQ d   1       9.187 -10.315  -7.190  0.00  0.00     0.068 A 
ATOM      5  C9  SFQ d   1      10.189  -9.504  -7.707  0.00  0.00    -0.064 A 
ATOM      6  C10 SFQ d   1      11.379  -9.333  -7.005  0.00  0.00    -0.082 A 
ATOM      7  H1  SFQ d   1      10.044  -9.004  -8.658  0.00  0.00     0.085 H 
ATOM      8  C11 SFQ d   1      11.569  -9.971  -5.787  0.00  0.00    -0.081 A 
ATOM      9  H2  SFQ d   1      12.160  -8.700  -7.411  0.00  0.00     0.083 H 
ATOM     10  C12 SFQ d   1      10.570 -10.778  -5.263  0.00  0.00    -0.056 A 
ATOM     11  H3  SFQ d   1      12.498  -9.838  -5.245  0.00  0.00     0.083 H 
ATOM     12  H4  SFQ d   1      10.715 -11.277  -4.311  0.00  0.00     0.087 H 
BRANCH   4  13
ATOM     13  C13 SFQ d   1       8.012 -10.504  -7.912  0.00  0.00     0.211 C 
ATOM     14  O3  SFQ d   1       7.858  -9.930  -9.010  0.00  0.00    -0.644 OA
ATOM     15  O4  SFQ d   1       7.116 -11.260  -7.484  0.00  0.00    -0.644 OA
ENDBRANCH   4  13
ENDBRANCH   1   3
BRANCH   1  16
ATOM     16  S1  SFQ d   1       8.604 -12.450  -4.078  0.00  0.00     0.263 S 
ATOM     17  O1  SFQ d   1       7.270 -13.039  -3.612  0.00  0.00    -0.200 OA
ATOM     18  O2  SFQ d   1       9.104 -11.456  -3.028  0.00  0.00    -0.200 OA
BRANCH  16  19
ATOM     19  C4  SFQ d   1       9.762 -13.749  -4.283  0.00  0.00     0.080 A 
ATOM     20  C2  SFQ d   1      10.950 -13.753  -3.561  0.00  0.00    -0.059 A 
ATOM     21  C1  SFQ d   1      11.859 -14.789  -3.732  0.00  0.00    -0.066 A 
ATOM     22  H6  SFQ d   1      11.166 -12.950  -2.866  0.00  0.00     0.086 H 
ATOM     23  C3  SFQ d   1      11.582 -15.824  -4.616  0.00  0.00     0.006 A 
ATOM     24  H7  SFQ d   1      12.788 -14.790  -3.174  0.00  0.00     0.085 H 
ATOM     25  I1  SFQ d   1      12.950 -17.386  -4.874  0.00  0.00    -0.045 I 
ATOM     26  C6  SFQ d   1      10.394 -15.821  -5.336  0.00  0.00    -0.066 A 
ATOM     27  C5  SFQ d   1       9.484 -14.783  -5.169  0.00  0.00    -0.059 A 
ATOM     28  H8  SFQ d   1      10.177 -16.627  -6.027  0.00  0.00     0.085 H 
ATOM     29  H9  SFQ d   1       8.557 -14.780  -5.731  0.00  0.00     0.086 H 
ENDBRANCH  16  19
ENDBRANCH   1  16
TORSDOF 4
