REMARK WARNING: 32 MAX_TORS EXCEEDED!!!
REMARK  87 active torsions:
REMARK  status: ('A' for Active; 'I' for Inactive)
REMARK    1  A    between atoms: N_1  and  CA_2 
REMARK    2  A    between atoms: CA_2  and  C_3 
REMARK    3  A    between atoms: CA_2  and  CB_5 
REMARK       I    between atoms: C_3  and  N_10 
REMARK    4  A    between atoms: CB_5  and  CG_6 
REMARK    5  A    between atoms: CG_6  and  CD_7 
REMARK    6  A    between atoms: N_10  and  CA_11 
REMARK    7  A    between atoms: CA_11  and  C_12 
REMARK    8  A    between atoms: CA_11  and  CB_14 
REMARK       I    between atoms: C_12  and  N_18 
REMARK    9  A    between atoms: CB_14  and  CG_15 
REMARK   10  A    between atoms: N_18  and  CA_19 
REMARK   11  A    between atoms: CA_19  and  C_20 
REMARK   12  A    between atoms: CA_19  and  CB_22 
REMARK       I    between atoms: C_20  and  N_26 
REMARK   13  A    between atoms: CB_22  and  CG_23 
REMARK   14  A    between atoms: CG_23  and  SD_24 
REMARK   15  A    between atoms: SD_24  and  CE_25 
REMARK   16  A    between atoms: N_26  and  CA_27 
REMARK   17  A    between atoms: CA_27  and  C_28 
REMARK   18  A    between atoms: CA_27  and  CB_30 
REMARK       I    between atoms: C_28  and  N_37 
REMARK   19  A    between atoms: CB_30  and  CG_31 
REMARK   20  A    between atoms: N_37  and  CA_38 
REMARK   21  A    between atoms: CA_38  and  C_39 
REMARK   22  A    between atoms: CA_38  and  CB_41 
REMARK       I    between atoms: C_39  and  N_42 
REMARK   23  A    between atoms: N_42  and  CA_43 
REMARK   24  A    between atoms: CA_43  and  C_44 
REMARK   25  A    between atoms: CA_43  and  CB_46 
REMARK       I    between atoms: C_44  and  N_51 
REMARK   26  A    between atoms: CB_46  and  CG_47 
REMARK   27  A    between atoms: CG_47  and  CD_48 
REMARK   28  A    between atoms: CD_48  and  CE_49 
REMARK   29  A    between atoms: CE_49  and  NZ_50 
REMARK   30  A    between atoms: N_51  and  CA_52 
REMARK   31  A    between atoms: CA_52  and  C_53 
REMARK   32  A    between atoms: CA_52  and  CB_55 
REMARK       I    between atoms: C_53  and  N_59 
REMARK   33  A    between atoms: CB_55  and  CG_56 
REMARK   34  A    between atoms: CG_56  and  CD1_57 
REMARK   35  A    between atoms: CG_56  and  CD2_58 
REMARK   36  A    between atoms: N_59  and  CA_60 
REMARK   37  A    between atoms: CA_60  and  C_61 
REMARK   38  A    between atoms: CA_60  and  CB_63 
REMARK       I    between atoms: C_61  and  N_68 
REMARK   39  A    between atoms: CB_63  and  CG_64 
REMARK   40  A    between atoms: CG_64  and  CD_65 
REMARK   41  A    between atoms: CD_65  and  CE_66 
REMARK   42  A    between atoms: CE_66  and  NZ_67 
REMARK   43  A    between atoms: N_68  and  CA_69 
REMARK   44  A    between atoms: CA_69  and  C_70 
REMARK   45  A    between atoms: CA_69  and  CB_72 
REMARK       I    between atoms: C_70  and  N_76 
REMARK   46  A    between atoms: CB_72  and  CG_73 
REMARK   47  A    between atoms: N_76  and  CA_77 
REMARK   48  A    between atoms: CA_77  and  C_78 
REMARK   49  A    between atoms: CA_77  and  CB_80 
REMARK       I    between atoms: C_78  and  N_85 
REMARK   50  A    between atoms: CB_80  and  CG_81 
REMARK   51  A    between atoms: CG_81  and  CD_82 
REMARK   52  A    between atoms: CD_82  and  CE_83 
REMARK   53  A    between atoms: CE_83  and  NZ_84 
REMARK   54  A    between atoms: N_85  and  CA_86 
REMARK   55  A    between atoms: CA_86  and  C_87 
REMARK   56  A    between atoms: CA_86  and  CB_89 
REMARK       I    between atoms: C_87  and  N_96 
REMARK   57  A    between atoms: CB_89  and  CG_90 
REMARK   58  A    between atoms: N_96  and  CA_97 
REMARK   59  A    between atoms: CA_97  and  C_98 
REMARK   60  A    between atoms: CA_97  and  CB_100 
REMARK       I    between atoms: C_98  and  N_107 
REMARK   61  A    between atoms: CB_100  and  CG_101 
REMARK   62  A    between atoms: N_107  and  CA_108 
REMARK   63  A    between atoms: CA_108  and  C_109 
REMARK   64  A    between atoms: CA_108  and  CB_111 
REMARK       I    between atoms: C_109  and  N_115 
REMARK   65  A    between atoms: CB_111  and  CG_112 
REMARK       I    between atoms: CG_112  and  ND2_114 
REMARK   66  A    between atoms: N_115  and  CA_116 
REMARK   67  A    between atoms: CA_116  and  C_117 
REMARK   68  A    between atoms: CA_116  and  CB_119 
REMARK       I    between atoms: C_117  and  N_124 
REMARK   69  A    between atoms: CB_119  and  CG_120 
REMARK   70  A    between atoms: CG_120  and  CD_121 
REMARK   71  A    between atoms: N_124  and  CA_125 
REMARK   72  A    between atoms: CA_125  and  C_126 
REMARK   73  A    between atoms: CA_125  and  CB_128 
REMARK       I    between atoms: C_126  and  N_132 
REMARK   74  A    between atoms: CB_128  and  CG1_129 
REMARK   75  A    between atoms: CB_128  and  CG2_130 
REMARK   76  A    between atoms: CG1_129  and  CD1_131 
REMARK   77  A    between atoms: N_132  and  CA_133 
REMARK   78  A    between atoms: CA_133  and  C_134 
REMARK   79  A    between atoms: CA_133  and  CB_136 
REMARK       I    between atoms: C_134  and  N_140 
REMARK   80  A    between atoms: CB_136  and  CG_137 
REMARK       I    between atoms: CG_137  and  ND2_139 
REMARK   81  A    between atoms: N_140  and  CA_141 
REMARK   82  A    between atoms: CA_141  and  C_142 
REMARK   83  A    between atoms: CA_141  and  CB_144 
REMARK   84  A    between atoms: CB_144  and  CG_145 
REMARK   85  A    between atoms: CG_145  and  CD_146 
REMARK   86  A    between atoms: CD_146  and  CE_147 
REMARK   87  A    between atoms: CE_147  and  NZ_148 
ROOT
ATOM      1  CA  ASP d   1     -20.530  15.054  -9.687  0.00  0.00     0.098 C 
ATOM      2  H74 ASP d   1     -19.601  15.619  -9.854  0.00  0.00     0.088 H 
ENDROOT
BRANCH   1   3
ATOM      3  N   ASP d   1     -20.255  13.666 -10.018  0.00  0.00    -0.346 N 
ATOM      4  C   LYS d   1     -19.147  13.073  -9.583  0.00  0.00     0.241 C 
ATOM      5  O   LYS d   1     -18.314  13.646  -8.875  0.00  0.00    -0.271 OA
ATOM      6  H73 ASP d   1     -20.905  13.152 -10.578  0.00  0.00     0.163 HD
BRANCH   4   7
ATOM      7  CA  LYS d   1     -18.962  11.614  -9.989  0.00  0.00     0.089 C 
ATOM      8  H61 LYS d   1     -18.291  11.115  -9.275  0.00  0.00     0.087 H 
BRANCH   7   9
ATOM      9  N   LYS d   1     -20.267  10.975  -9.964  0.00  0.00    -0.346 N 
ATOM     10  C   LEU d   1     -21.066  11.055  -8.906  0.00  0.00     0.241 C 
ATOM     11  O   LEU d   1     -20.764  11.652  -7.872  0.00  0.00    -0.271 OA
ATOM     12  H60 LYS d   1     -20.572  10.461 -10.766  0.00  0.00     0.163 HD
BRANCH  10  13
ATOM     13  CA  LEU d   1     -22.404  10.339  -9.029  0.00  0.00     0.089 C 
ATOM     14  H50 LEU d   1     -23.067  10.693  -8.226  0.00  0.00     0.087 H 
BRANCH  13  15
ATOM     15  N   LEU d   1     -23.044  10.615 -10.310  0.00  0.00    -0.346 N 
ATOM     16  C   LYS d   1     -23.275  11.855 -10.743  0.00  0.00     0.241 C 
ATOM     17  O   LYS d   1     -22.956  12.864 -10.114  0.00  0.00    -0.271 OA
ATOM     18  H49 LEU d   1     -23.320   9.845 -10.886  0.00  0.00     0.163 HD
BRANCH  16  19
ATOM     19  CA  LYS d   1     -23.937  11.974 -12.114  0.00  0.00     0.089 C 
ATOM     20  H37 LYS d   1     -23.887  13.018 -12.457  0.00  0.00     0.087 H 
BRANCH  19  21
ATOM     21  N   LYS d   1     -23.180  11.126 -13.029  0.00  0.00    -0.346 N 
ATOM     22  C   ALA d   1     -21.888  11.362 -13.232  0.00  0.00     0.240 C 
ATOM     23  O   ALA d   1     -21.292  12.294 -12.694  0.00  0.00    -0.271 OA
ATOM     24  H36 LYS d   1     -23.632  10.370 -13.502  0.00  0.00     0.163 HD
BRANCH  22  25
ATOM     25  CA  ALA d   1     -21.159  10.431 -14.189  0.00  0.00     0.086 C 
ATOM     26  H32 ALA d   1     -20.078  10.525 -14.010  0.00  0.00     0.086 H 
BRANCH  25  27
ATOM     27  N   ALA d   1     -21.543   9.047 -13.977  0.00  0.00    -0.346 N 
ATOM     28  C   PHE d   1     -21.161   8.350 -12.912  0.00  0.00     0.241 C 
ATOM     29  O   PHE d   1     -20.464   8.811 -12.010  0.00  0.00    -0.271 OA
ATOM     30  H31 ALA d   1     -22.119   8.600 -14.661  0.00  0.00     0.163 HD
BRANCH  28  31
ATOM     31  CA  PHE d   1     -21.664   6.916 -12.874  0.00  0.00     0.093 C 
ATOM     32  H23 PHE d   1     -21.789   6.568 -11.838  0.00  0.00     0.088 H 
BRANCH  31  33
ATOM     33  N   PHE d   1     -22.946   6.939 -13.580  0.00  0.00    -0.346 N 
ATOM     34  C   MET d   1     -23.949   7.751 -13.247  0.00  0.00     0.241 C 
ATOM     35  O   MET d   1     -23.908   8.519 -12.289  0.00  0.00    -0.271 OA
ATOM     36  H22 PHE d   1     -23.076   6.315 -14.350  0.00  0.00     0.163 HD
BRANCH  34  37
ATOM     37  CA  MET d   1     -25.188   7.658 -14.137  0.00  0.00     0.090 C 
ATOM     38  H14 MET d   1     -25.356   8.615 -14.653  0.00  0.00     0.087 H 
BRANCH  37  39
ATOM     39  N   MET d   1     -24.894   6.612 -15.098  0.00  0.00    -0.346 N 
ATOM     40  C   ASP d   1     -24.144   6.849 -16.169  0.00  0.00     0.241 C 
ATOM     41  O   ASP d   1     -23.695   7.961 -16.449  0.00  0.00    -0.271 OA
ATOM     42  H13 MET d   1     -25.263   5.694 -14.952  0.00  0.00     0.163 HD
BRANCH  40  43
ATOM     43  CA  ASP d   1     -23.874   5.644 -17.048  0.00  0.00     0.098 C 
ATOM     44  H10 ASP d   1     -24.064   4.768 -16.410  0.00  0.00     0.088 H 
BRANCH  43  45
ATOM     45  N   ASP d   1     -24.692   5.444 -18.232  0.00  0.00    -0.345 N 
ATOM     46  C   GLU d   1     -25.633   6.291 -18.633  0.00  0.00     0.249 C 
ATOM     47  O   GLU d   1     -25.884   7.353 -18.061  0.00  0.00    -0.271 OA
ATOM     48  H9  ASP d   1     -24.537   4.620 -18.777  0.00  0.00     0.163 HD
BRANCH  46  49
ATOM     49  CA  GLU d   1     -26.396   5.873 -19.884  0.00  0.00     0.176 C 
ATOM     50  H4  GLU d   1     -27.461   6.103 -19.734  0.00  0.00     0.099 H 
BRANCH  49  51
ATOM     51  N   GLU d   1     -25.916   6.622 -21.082  0.00  0.00    -0.066 N 
ATOM     52  H1  GLU d   1     -26.436   6.327 -21.893  0.00  0.00     0.275 HD
ATOM     53  H2  GLU d   1     -24.936   6.435 -21.225  0.00  0.00     0.275 HD
ATOM     54  H3  GLU d   1     -26.052   7.610 -20.937  0.00  0.00     0.275 HD
ENDBRANCH  49  51
BRANCH  49  55
ATOM     55  CB  GLU d   1     -26.249   4.354 -20.115  0.00  0.00    -0.021 C 
ATOM     56  H5  GLU d   1     -25.256   4.177 -20.554  0.00  0.00     0.037 H 
ATOM     57  H6  GLU d   1     -27.026   4.047 -20.830  0.00  0.00     0.037 H 
BRANCH  55  58
ATOM     58  CG  GLU d   1     -26.378   3.453 -18.865  0.00  0.00     0.018 C 
ATOM     59  H7  GLU d   1     -25.577   3.723 -18.161  0.00  0.00     0.049 H 
ATOM     60  H8  GLU d   1     -26.253   2.406 -19.179  0.00  0.00     0.049 H 
BRANCH  58  61
ATOM     61  CD  GLU d   1     -27.712   3.578 -18.142  0.00  0.00     0.172 C 
ATOM     62  OE1 GLU d   1     -28.059   4.693 -17.698  0.00  0.00    -0.648 OA
ATOM     63  OE2 GLU d   1     -28.412   2.552 -18.008  0.00  0.00    -0.648 OA
ENDBRANCH  58  61
ENDBRANCH  55  58
ENDBRANCH  49  55
ENDBRANCH  46  49
ENDBRANCH  43  45
BRANCH  43  64
ATOM     64  CB  ASP d   1     -22.398   5.612 -17.432  0.00  0.00     0.043 C 
ATOM     65  H11 ASP d   1     -21.812   6.084 -16.630  0.00  0.00     0.052 H 
ATOM     66  H12 ASP d   1     -22.261   6.176 -18.367  0.00  0.00     0.052 H 
BRANCH  64  67
ATOM     67  CG  ASP d   1     -21.901   4.206 -17.635  0.00  0.00     0.175 C 
ATOM     68  OD1 ASP d   1     -21.953   3.426 -16.659  0.00  0.00    -0.648 OA
ATOM     69  OD2 ASP d   1     -21.475   3.878 -18.763  0.00  0.00    -0.648 OA
ENDBRANCH  64  67
ENDBRANCH  43  64
ENDBRANCH  40  43
ENDBRANCH  37  39
BRANCH  37  70
ATOM     70  CB  MET d   1     -26.437   7.302 -13.322  0.00  0.00    -0.030 C 
ATOM     71  H15 MET d   1     -27.323   7.601 -13.902  0.00  0.00     0.037 H 
ATOM     72  H16 MET d   1     -26.406   7.870 -12.380  0.00  0.00     0.037 H 
BRANCH  70  73
ATOM     73  CG  MET d   1     -26.568   5.826 -12.983  0.00  0.00    -0.021 C 
ATOM     74  H17 MET d   1     -26.468   5.246 -13.912  0.00  0.00     0.049 H 
ATOM     75  H18 MET d   1     -27.565   5.656 -12.550  0.00  0.00     0.049 H 
BRANCH  73  76
ATOM     76  SD  MET d   1     -25.337   5.244 -11.817  0.00  0.00    -0.173 SA
BRANCH  76  77
ATOM     77  CE  MET d   1     -26.234   3.892 -11.011  0.00  0.00    -0.035 C 
ATOM     78  H19 MET d   1     -25.590   3.426 -10.251  0.00  0.00     0.041 H 
ATOM     79  H20 MET d   1     -26.516   3.140 -11.762  0.00  0.00     0.041 H 
ATOM     80  H21 MET d   1     -27.140   4.289 -10.530  0.00  0.00     0.041 H 
ENDBRANCH  76  77
ENDBRANCH  73  76
ENDBRANCH  70  73
ENDBRANCH  37  70
ENDBRANCH  34  37
ENDBRANCH  31  33
BRANCH  31  81
ATOM     81  CB  PHE d   1     -20.685   6.005 -13.624  0.00  0.00    -0.014 C 
ATOM     82  H24 PHE d   1     -20.753   6.237 -14.697  0.00  0.00     0.043 H 
ATOM     83  H25 PHE d   1     -20.988   4.961 -13.454  0.00  0.00     0.043 H 
BRANCH  81  84
ATOM     84  CG  PHE d   1     -19.243   6.152 -13.201  0.00  0.00    -0.056 A 
ATOM     85  CD1 PHE d   1     -18.761   5.506 -12.069  0.00  0.00    -0.077 A 
ATOM     86  CE1 PHE d   1     -17.411   5.591 -11.711  0.00  0.00    -0.082 A 
ATOM     87  H26 PHE d   1     -19.441   4.928 -11.454  0.00  0.00     0.084 H 
ATOM     88  CZ  PHE d   1     -16.528   6.333 -12.488  0.00  0.00    -0.083 A 
ATOM     89  H28 PHE d   1     -17.053   5.077 -10.826  0.00  0.00     0.083 H 
ATOM     90  CE2 PHE d   1     -16.996   6.990 -13.620  0.00  0.00    -0.082 A 
ATOM     91  H30 PHE d   1     -15.482   6.399 -12.213  0.00  0.00     0.083 H 
ATOM     92  CD2 PHE d   1     -18.351   6.897 -13.972  0.00  0.00    -0.077 A 
ATOM     93  H29 PHE d   1     -16.315   7.573 -14.230  0.00  0.00     0.083 H 
ATOM     94  H27 PHE d   1     -18.710   7.412 -14.856  0.00  0.00     0.084 H 
ENDBRANCH  81  84
ENDBRANCH  31  81
ENDBRANCH  28  31
ENDBRANCH  25  27
BRANCH  25  95
ATOM     95  CB  ALA d   1     -21.453  10.825 -15.620  0.00  0.00    -0.049 C 
ATOM     96  H33 ALA d   1     -21.162  11.874 -15.779  0.00  0.00     0.030 H 
ATOM     97  H34 ALA d   1     -22.529  10.709 -15.819  0.00  0.00     0.030 H 
ATOM     98  H35 ALA d   1     -20.883  10.178 -16.303  0.00  0.00     0.030 H 
ENDBRANCH  25  95
ENDBRANCH  22  25
ENDBRANCH  19  21
BRANCH  19  99
ATOM     99  CB  LYS d   1     -25.418  11.546 -12.046  0.00  0.00    -0.038 C 
ATOM    100  H38 LYS d   1     -25.770  11.394 -13.077  0.00  0.00     0.036 H 
ATOM    101  H39 LYS d   1     -25.983  12.368 -11.582  0.00  0.00     0.036 H 
BRANCH  99 102
ATOM    102  CG  LYS d   1     -25.719  10.280 -11.264  0.00  0.00    -0.061 C 
ATOM    103  H40 LYS d   1     -25.391  10.412 -10.222  0.00  0.00     0.033 H 
ATOM    104  H41 LYS d   1     -25.175   9.438 -11.716  0.00  0.00     0.033 H 
BRANCH 102 105
ATOM    105  CD  LYS d   1     -27.210   9.980 -11.284  0.00  0.00    -0.043 C 
ATOM    106  H42 LYS d   1     -27.532   9.842 -12.327  0.00  0.00     0.035 H 
ATOM    107  H43 LYS d   1     -27.751  10.830 -10.843  0.00  0.00     0.035 H 
BRANCH 105 108
ATOM    108  CE  LYS d   1     -27.541   8.724 -10.496  0.00  0.00     0.080 C 
ATOM    109  H44 LYS d   1     -27.244   8.872  -9.447  0.00  0.00     0.075 H 
ATOM    110  H45 LYS d   1     -26.980   7.879 -10.920  0.00  0.00     0.075 H 
BRANCH 108 111
ATOM    111  NZ  LYS d   1     -28.996   8.410 -10.545  0.00  0.00    -0.079 N 
ATOM    112  H46 LYS d   1     -29.177   7.573 -10.013  0.00  0.00     0.274 HD
ATOM    113  H47 LYS d   1     -29.277   8.267 -11.502  0.00  0.00     0.274 HD
ATOM    114  H48 LYS d   1     -29.519   9.177 -10.153  0.00  0.00     0.274 HD
ENDBRANCH 108 111
ENDBRANCH 105 108
ENDBRANCH 102 105
ENDBRANCH  99 102
ENDBRANCH  19  99
ENDBRANCH  16  19
ENDBRANCH  13  15
BRANCH  13 115
ATOM    115  CB  LEU d   1     -22.180   8.833  -8.860  0.00  0.00    -0.035 C 
ATOM    116  H51 LEU d   1     -21.444   8.690  -8.055  0.00  0.00     0.037 H 
ATOM    117  H52 LEU d   1     -21.770   8.445  -9.804  0.00  0.00     0.037 H 
BRANCH 115 118
ATOM    118  CG  LEU d   1     -23.416   8.009  -8.514  0.00  0.00    -0.059 C 
ATOM    119  H53 LEU d   1     -24.157   8.114  -9.320  0.00  0.00     0.038 H 
BRANCH 118 120
ATOM    120  CD1 LEU d   1     -23.027   6.558  -8.389  0.00  0.00    -0.073 C 
ATOM    121  H54 LEU d   1     -23.916   5.960  -8.139  0.00  0.00     0.028 H 
ATOM    122  H55 LEU d   1     -22.276   6.447  -7.593  0.00  0.00     0.028 H 
ATOM    123  H56 LEU d   1     -22.606   6.208  -9.343  0.00  0.00     0.028 H 
ENDBRANCH 118 120
BRANCH 118 124
ATOM    124  CD2 LEU d   1     -24.022   8.510  -7.223  0.00  0.00    -0.073 C 
ATOM    125  H57 LEU d   1     -24.299   9.569  -7.335  0.00  0.00     0.028 H 
ATOM    126  H58 LEU d   1     -23.289   8.406  -6.409  0.00  0.00     0.028 H 
ATOM    127  H59 LEU d   1     -24.919   7.920  -6.986  0.00  0.00     0.028 H 
ENDBRANCH 118 124
ENDBRANCH 115 118
ENDBRANCH  13 115
ENDBRANCH  10  13
ENDBRANCH   7   9
BRANCH   7 128
ATOM    128  CB  LYS d   1     -18.360  11.520 -11.398  0.00  0.00    -0.038 C 
ATOM    129  H62 LYS d   1     -19.021  12.065 -12.088  0.00  0.00     0.036 H 
ATOM    130  H63 LYS d   1     -18.326  10.458 -11.684  0.00  0.00     0.036 H 
BRANCH 128 131
ATOM    131  CG  LYS d   1     -16.964  12.089 -11.538  0.00  0.00    -0.061 C 
ATOM    132  H64 LYS d   1     -16.292  11.552 -10.853  0.00  0.00     0.033 H 
ATOM    133  H65 LYS d   1     -16.987  13.155 -11.269  0.00  0.00     0.033 H 
BRANCH 131 134
ATOM    134  CD  LYS d   1     -16.429  11.952 -12.959  0.00  0.00    -0.043 C 
ATOM    135  H66 LYS d   1     -16.535  10.905 -13.278  0.00  0.00     0.035 H 
ATOM    136  H67 LYS d   1     -15.365  12.232 -12.966  0.00  0.00     0.035 H 
BRANCH 134 137
ATOM    137  CE  LYS d   1     -17.177  12.843 -13.944  0.00  0.00     0.080 C 
ATOM    138  H68 LYS d   1     -16.684  12.771 -14.925  0.00  0.00     0.075 H 
ATOM    139  H69 LYS d   1     -17.127  13.881 -13.584  0.00  0.00     0.075 H 
BRANCH 137 140
ATOM    140  NZ  LYS d   1     -18.609  12.466 -14.105  0.00  0.00    -0.079 N 
ATOM    141  H70 LYS d   1     -19.048  13.088 -14.765  0.00  0.00     0.274 HD
ATOM    142  H71 LYS d   1     -19.077  12.536 -13.215  0.00  0.00     0.274 HD
ATOM    143  H72 LYS d   1     -18.671  11.519 -14.444  0.00  0.00     0.274 HD
ENDBRANCH 137 140
ENDBRANCH 134 137
ENDBRANCH 131 134
ENDBRANCH 128 131
ENDBRANCH   7 128
ENDBRANCH   4   7
ENDBRANCH   1   3
BRANCH   1 144
ATOM    144  C   ASP d   1     -20.921  15.256  -8.231  0.00  0.00     0.241 C 
ATOM    145  O   ASP d   1     -20.531  16.246  -7.616  0.00  0.00    -0.271 OA
ATOM    146  N   LYS d   1     -21.684  14.326  -7.670  0.00  0.00    -0.346 N 
ATOM    147  H77 LYS d   1     -22.003  13.545  -8.207  0.00  0.00     0.163 HD
BRANCH 146 148
ATOM    148  CA  LYS d   1     -22.054  14.450  -6.267  0.00  0.00     0.089 C 
ATOM    149  H78 LYS d   1     -22.470  15.453  -6.088  0.00  0.00     0.087 H 
BRANCH 148 150
ATOM    150  C   LYS d   1     -20.786  14.272  -5.432  0.00  0.00     0.241 C 
ATOM    151  O   LYS d   1     -20.672  14.820  -4.334  0.00  0.00    -0.271 OA
ATOM    152  N   PHE d   1     -19.828  13.521  -5.971  0.00  0.00    -0.346 N 
ATOM    153  H90 PHE d   1     -19.979  13.102  -6.866  0.00  0.00     0.163 HD
BRANCH 152 154
ATOM    154  CA  PHE d   1     -18.564  13.298  -5.282  0.00  0.00     0.093 C 
ATOM    155  H91 PHE d   1     -18.770  12.938  -4.263  0.00  0.00     0.088 H 
BRANCH 154 156
ATOM    156  C   PHE d   1     -17.797  14.607  -5.217  0.00  0.00     0.241 C 
ATOM    157  O   PHE d   1     -17.430  15.069  -4.140  0.00  0.00    -0.271 OA
ATOM    158  N   PHE d   1     -17.549  15.197  -6.381  0.00  0.00    -0.346 N 
ATOM    159  H99 PHE d   1     -17.881  14.782  -7.228  0.00  0.00     0.163 HD
BRANCH 158 160
ATOM    160  CA  PHE d   1     -16.799  16.442  -6.433  0.00  0.00     0.093 C 
ATOM    161 0H10 PHE d   1     -15.786  16.229  -6.062  0.00  0.00     0.088 H 
BRANCH 160 162
ATOM    162  C   PHE d   1     -17.380  17.531  -5.545  0.00  0.00     0.241 C 
ATOM    163  O   PHE d   1     -16.649  18.327  -4.967  0.00  0.00    -0.271 OA
ATOM    164  N   ASN d   1     -18.692  17.564  -5.407  0.00  0.00    -0.346 N 
ATOM    165 8H10 ASN d   1     -19.278  16.910  -5.886  0.00  0.00     0.163 HD
BRANCH 164 166
ATOM    166  CA  ASN d   1     -19.251  18.572  -4.545  0.00  0.00     0.097 C 
ATOM    167 9H10 ASN d   1     -18.757  19.532  -4.754  0.00  0.00     0.088 H 
BRANCH 166 168
ATOM    168  C   ASN d   1     -18.985  18.185  -3.090  0.00  0.00     0.241 C 
ATOM    169  O   ASN d   1     -18.705  19.040  -2.257  0.00  0.00    -0.271 OA
ATOM    170  N   GLU d   1     -19.056  16.890  -2.792  0.00  0.00    -0.346 N 
ATOM    171 4H11 GLU d   1     -19.272  16.234  -3.515  0.00  0.00     0.163 HD
BRANCH 170 172
ATOM    172  CA  GLU d   1     -18.826  16.402  -1.432  0.00  0.00     0.090 C 
ATOM    173 5H11 GLU d   1     -19.551  16.895  -0.768  0.00  0.00     0.087 H 
BRANCH 172 174
ATOM    174  C   GLU d   1     -17.423  16.731  -0.925  0.00  0.00     0.241 C 
ATOM    175  O   GLU d   1     -17.241  17.000   0.258  0.00  0.00    -0.271 OA
ATOM    176  N   ILE d   1     -16.432  16.710  -1.811  0.00  0.00    -0.346 N 
ATOM    177 0H12 ILE d   1     -16.620  16.480  -2.766  0.00  0.00     0.163 HD
BRANCH 176 178
ATOM    178  CA  ILE d   1     -15.069  17.023  -1.392  0.00  0.00     0.092 C 
ATOM    179 1H12 ILE d   1     -14.983  16.756  -0.328  0.00  0.00     0.088 H 
BRANCH 178 180
ATOM    180  C   ILE d   1     -14.746  18.510  -1.536  0.00  0.00     0.241 C 
ATOM    181  O   ILE d   1     -14.087  19.087  -0.671  0.00  0.00    -0.271 OA
ATOM    182  N   ASN d   1     -15.212  19.119  -2.626  0.00  0.00    -0.346 N 
ATOM    183 1H13 ASN d   1     -15.741  18.581  -3.283  0.00  0.00     0.163 HD
BRANCH 182 184
ATOM    184  CA  ASN d   1     -14.987  20.539  -2.908  0.00  0.00     0.097 C 
ATOM    185 2H13 ASN d   1     -13.911  20.692  -3.080  0.00  0.00     0.088 H 
BRANCH 184 186
ATOM    186  C   ASN d   1     -15.421  21.415  -1.745  0.00  0.00     0.241 C 
ATOM    187  O   ASN d   1     -14.616  22.149  -1.173  0.00  0.00    -0.271 OA
ATOM    188  N   LYS d   1     -16.699  21.344  -1.399  0.00  0.00    -0.345 N 
ATOM    189 7H13 LYS d   1     -17.315  20.740  -1.904  0.00  0.00     0.163 HD
BRANCH 188 190
ATOM    190  CA  LYS d   1     -17.213  22.134  -0.295  0.00  0.00     0.096 C 
ATOM    191 8H13 LYS d   1     -16.561  23.009  -0.155  0.00  0.00     0.089 H 
BRANCH 190 192
ATOM    192  C   LYS d   1     -17.202  21.313   0.986  0.00  0.00     0.196 C 
ATOM    193  O   LYS d   1     -18.268  21.188   1.625  0.00  0.00    -0.646 OA
ATOM    194  OXT LYS d   1     -16.112  20.806   1.336  0.00  0.00    -0.646 OA
ENDBRANCH 190 192
BRANCH 190 195
ATOM    195  CB  LYS d   1     -18.628  22.627  -0.615  0.00  0.00    -0.037 C 
ATOM    196 9H13 LYS d   1     -18.544  23.465  -1.323  0.00  0.00     0.036 H 
ATOM    197 0H14 LYS d   1     -19.084  22.982   0.321  0.00  0.00     0.036 H 
BRANCH 195 198
ATOM    198  CG  LYS d   1     -19.563  21.583  -1.229  0.00  0.00    -0.061 C 
ATOM    199 1H14 LYS d   1     -18.983  20.955  -1.921  0.00  0.00     0.033 H 
ATOM    200 2H14 LYS d   1     -20.356  22.105  -1.784  0.00  0.00     0.033 H 
BRANCH 198 201
ATOM    201  CD  LYS d   1     -20.210  20.686  -0.186  0.00  0.00    -0.043 C 
ATOM    202 3H14 LYS d   1     -19.421  20.186   0.395  0.00  0.00     0.035 H 
ATOM    203 4H14 LYS d   1     -20.825  19.930  -0.696  0.00  0.00     0.035 H 
BRANCH 201 204
ATOM    204  CE  LYS d   1     -21.092  21.486   0.761  0.00  0.00     0.080 C 
ATOM    205 5H14 LYS d   1     -21.891  21.969   0.180  0.00  0.00     0.075 H 
ATOM    206 6H14 LYS d   1     -20.479  22.256   1.253  0.00  0.00     0.075 H 
BRANCH 204 207
ATOM    207  NZ  LYS d   1     -21.710  20.624   1.805  0.00  0.00    -0.079 N 
ATOM    208 7H14 LYS d   1     -22.285  21.189   2.410  0.00  0.00     0.274 HD
ATOM    209 8H14 LYS d   1     -20.985  20.181   2.347  0.00  0.00     0.274 HD
ATOM    210 9H14 LYS d   1     -22.279  19.918   1.364  0.00  0.00     0.274 HD
ENDBRANCH 204 207
ENDBRANCH 201 204
ENDBRANCH 198 201
ENDBRANCH 195 198
ENDBRANCH 190 195
ENDBRANCH 188 190
ENDBRANCH 184 186
BRANCH 184 211
ATOM    211  CB  ASN d   1     -15.752  20.958  -4.164  0.00  0.00     0.036 C 
ATOM    212 3H13 ASN d   1     -15.994  22.028  -4.088  0.00  0.00     0.051 H 
ATOM    213 4H13 ASN d   1     -16.683  20.375  -4.220  0.00  0.00     0.051 H 
BRANCH 211 214
ATOM    214  CG  ASN d   1     -14.960  20.729  -5.437  0.00  0.00     0.217 C 
ATOM    215  OD1 ASN d   1     -14.093  19.857  -5.497  0.00  0.00    -0.274 OA
ATOM    216  ND2 ASN d   1     -15.266  21.508  -6.472  0.00  0.00    -0.370 N 
ATOM    217 5H13 ASN d   1     -14.777  21.403  -7.338  0.00  0.00     0.159 HD
ATOM    218 6H13 ASN d   1     -15.985  22.198  -6.383  0.00  0.00     0.159 HD
ENDBRANCH 211 214
ENDBRANCH 184 211
ENDBRANCH 182 184
ENDBRANCH 178 180
BRANCH 178 219
ATOM    219  CB  ILE d   1     -14.007  16.206  -2.183  0.00  0.00    -0.030 C 
ATOM    220 2H12 ILE d   1     -13.007  16.499  -1.832  0.00  0.00     0.043 H 
BRANCH 219 221
ATOM    221  CG1 ILE d   1     -14.103  16.504  -3.675  0.00  0.00    -0.063 C 
ATOM    222 3H12 ILE d   1     -14.053  17.593  -3.819  0.00  0.00     0.033 H 
ATOM    223 4H12 ILE d   1     -15.069  16.130  -4.046  0.00  0.00     0.033 H 
BRANCH 221 224
ATOM    224  CD1 ILE d   1     -12.997  15.861  -4.479  0.00  0.00    -0.076 C 
ATOM    225 8H12 ILE d   1     -13.123  16.113  -5.542  0.00  0.00     0.027 H 
ATOM    226 9H12 ILE d   1     -13.040  14.769  -4.354  0.00  0.00     0.027 H 
ATOM    227 0H13 ILE d   1     -12.024  16.233  -4.127  0.00  0.00     0.027 H 
ENDBRANCH 221 224
ENDBRANCH 219 221
BRANCH 219 228
ATOM    228  CG2 ILE d   1     -14.195  14.721  -1.927  0.00  0.00    -0.071 C 
ATOM    229 5H12 ILE d   1     -14.123  14.523  -0.847  0.00  0.00     0.028 H 
ATOM    230 6H12 ILE d   1     -13.414  14.156  -2.456  0.00  0.00     0.028 H 
ATOM    231 7H12 ILE d   1     -15.184  14.408  -2.292  0.00  0.00     0.028 H 
ENDBRANCH 219 228
ENDBRANCH 178 219
ENDBRANCH 176 178
ENDBRANCH 172 174
BRANCH 172 232
ATOM    232  CB  GLU d   1     -19.064  14.889  -1.370  0.00  0.00    -0.029 C 
ATOM    233 6H11 GLU d   1     -18.550  14.431  -2.228  0.00  0.00     0.037 H 
ATOM    234 7H11 GLU d   1     -20.147  14.714  -1.455  0.00  0.00     0.037 H 
BRANCH 232 235
ATOM    235  CG  GLU d   1     -18.573  14.189  -0.100  0.00  0.00     0.018 C 
ATOM    236 8H11 GLU d   1     -17.649  14.683   0.235  0.00  0.00     0.049 H 
ATOM    237 9H11 GLU d   1     -18.359  13.138  -0.342  0.00  0.00     0.049 H 
BRANCH 235 238
ATOM    238  CD  GLU d   1     -19.576  14.225   1.037  0.00  0.00     0.172 C 
ATOM    239  OE1 GLU d   1     -20.776  13.984   0.790  0.00  0.00    -0.648 OA
ATOM    240  OE2 GLU d   1     -19.162  14.475   2.188  0.00  0.00    -0.648 OA
ENDBRANCH 235 238
ENDBRANCH 232 235
ENDBRANCH 172 232
ENDBRANCH 170 172
ENDBRANCH 166 168
BRANCH 166 241
ATOM    241  CB  ASN d   1     -20.747  18.732  -4.798  0.00  0.00     0.036 C 
ATOM    242 0H11 ASN d   1     -21.228  17.746  -4.721  0.00  0.00     0.051 H 
ATOM    243 1H11 ASN d   1     -20.895  19.134  -5.811  0.00  0.00     0.051 H 
BRANCH 241 244
ATOM    244  CG  ASN d   1     -21.389  19.664  -3.807  0.00  0.00     0.217 C 
ATOM    245  OD1 ASN d   1     -21.560  19.311  -2.637  0.00  0.00    -0.274 OA
ATOM    246  ND2 ASN d   1     -21.724  20.875  -4.253  0.00  0.00    -0.370 N 
ATOM    247 2H11 ASN d   1     -22.154  21.534  -3.636  0.00  0.00     0.159 HD
ATOM    248 3H11 ASN d   1     -21.545  21.124  -5.205  0.00  0.00     0.159 HD
ENDBRANCH 241 244
ENDBRANCH 166 241
ENDBRANCH 164 166
ENDBRANCH 160 162
BRANCH 160 249
ATOM    249  CB  PHE d   1     -16.675  16.916  -7.874  0.00  0.00    -0.014 C 
ATOM    250 1H10 PHE d   1     -16.285  17.945  -7.872  0.00  0.00     0.043 H 
ATOM    251 2H10 PHE d   1     -17.674  16.903  -8.334  0.00  0.00     0.043 H 
BRANCH 249 252
ATOM    252  CG  PHE d   1     -15.764  16.064  -8.692  0.00  0.00    -0.056 A 
ATOM    253  CD1 PHE d   1     -14.508  15.705  -8.201  0.00  0.00    -0.077 A 
ATOM    254  CE1 PHE d   1     -13.644  14.894  -8.951  0.00  0.00    -0.082 A 
ATOM    255 3H10 PHE d   1     -14.195  16.058  -7.225  0.00  0.00     0.084 H 
ATOM    256  CZ  PHE d   1     -14.038  14.438 -10.204  0.00  0.00    -0.083 A 
ATOM    257 5H10 PHE d   1     -12.672  14.623  -8.555  0.00  0.00     0.083 H 
ATOM    258  CE2 PHE d   1     -15.288  14.793 -10.705  0.00  0.00    -0.082 A 
ATOM    259 7H10 PHE d   1     -13.376  13.809 -10.788  0.00  0.00     0.083 H 
ATOM    260  CD2 PHE d   1     -16.147  15.605  -9.947  0.00  0.00    -0.077 A 
ATOM    261 6H10 PHE d   1     -15.598  14.442 -11.682  0.00  0.00     0.083 H 
ATOM    262 4H10 PHE d   1     -17.118  15.877 -10.344  0.00  0.00     0.084 H 
ENDBRANCH 249 252
ENDBRANCH 160 249
ENDBRANCH 158 160
ENDBRANCH 154 156
BRANCH 154 263
ATOM    263  CB  PHE d   1     -17.690  12.270  -6.013  0.00  0.00    -0.014 C 
ATOM    264  H92 PHE d   1     -17.553  12.606  -7.051  0.00  0.00     0.043 H 
ATOM    265  H93 PHE d   1     -18.213  11.302  -6.007  0.00  0.00     0.043 H 
BRANCH 263 266
ATOM    266  CG  PHE d   1     -16.324  12.079  -5.388  0.00  0.00    -0.056 A 
ATOM    267  CD1 PHE d   1     -16.184  11.423  -4.155  0.00  0.00    -0.077 A 
ATOM    268  CE1 PHE d   1     -14.910  11.245  -3.569  0.00  0.00    -0.082 A 
ATOM    269  H94 PHE d   1     -17.064  11.048  -3.646  0.00  0.00     0.084 H 
ATOM    270  CZ  PHE d   1     -13.768  11.728  -4.222  0.00  0.00    -0.083 A 
ATOM    271  H96 PHE d   1     -14.817  10.736  -2.616  0.00  0.00     0.083 H 
ATOM    272  CE2 PHE d   1     -13.902  12.389  -5.458  0.00  0.00    -0.082 A 
ATOM    273  H98 PHE d   1     -12.788  11.594  -3.779  0.00  0.00     0.083 H 
ATOM    274  CD2 PHE d   1     -15.174  12.556  -6.027  0.00  0.00    -0.077 A 
ATOM    275  H97 PHE d   1     -13.024  12.768  -5.969  0.00  0.00     0.083 H 
ATOM    276  H95 PHE d   1     -15.268  13.064  -6.980  0.00  0.00     0.084 H 
ENDBRANCH 263 266
ENDBRANCH 154 263
ENDBRANCH 152 154
ENDBRANCH 148 150
BRANCH 148 277
ATOM    277  CB  LYS d   1     -23.107  13.408  -5.889  0.00  0.00    -0.038 C 
ATOM    278  H79 LYS d   1     -23.327  13.505  -4.816  0.00  0.00     0.036 H 
ATOM    279  H80 LYS d   1     -22.698  12.407  -6.091  0.00  0.00     0.036 H 
BRANCH 277 280
ATOM    280  CG  LYS d   1     -24.401  13.568  -6.664  0.00  0.00    -0.061 C 
ATOM    281  H81 LYS d   1     -24.180  13.514  -7.740  0.00  0.00     0.033 H 
ATOM    282  H82 LYS d   1     -24.837  14.550  -6.428  0.00  0.00     0.033 H 
BRANCH 280 283
ATOM    283  CD  LYS d   1     -25.410  12.486  -6.315  0.00  0.00    -0.043 C 
ATOM    284  H83 LYS d   1     -24.952  11.500  -6.483  0.00  0.00     0.035 H 
ATOM    285  H84 LYS d   1     -26.293  12.596  -6.962  0.00  0.00     0.035 H 
BRANCH 283 286
ATOM    286  CE  LYS d   1     -25.845  12.590  -4.860  0.00  0.00     0.080 C 
ATOM    287  H85 LYS d   1     -26.352  13.554  -4.707  0.00  0.00     0.075 H 
ATOM    288  H86 LYS d   1     -24.954  12.538  -4.217  0.00  0.00     0.075 H 
BRANCH 286 289
ATOM    289  NZ  LYS d   1     -26.778  11.487  -4.485  0.00  0.00    -0.079 N 
ATOM    290  H87 LYS d   1     -27.045  11.587  -3.518  0.00  0.00     0.274 HD
ATOM    291  H88 LYS d   1     -26.319  10.599  -4.617  0.00  0.00     0.274 HD
ATOM    292  H89 LYS d   1     -27.600  11.530  -5.066  0.00  0.00     0.274 HD
ENDBRANCH 286 289
ENDBRANCH 283 286
ENDBRANCH 280 283
ENDBRANCH 277 280
ENDBRANCH 148 277
ENDBRANCH 146 148
ENDBRANCH   1 144
BRANCH   1 293
ATOM    293  CB  ASP d   1     -21.594  15.624 -10.626  0.00  0.00     0.043 C 
ATOM    294  H75 ASP d   1     -21.969  16.569 -10.206  0.00  0.00     0.052 H 
ATOM    295  H76 ASP d   1     -22.422  14.903 -10.704  0.00  0.00     0.052 H 
BRANCH 293 296
ATOM    296  CG  ASP d   1     -21.041  15.890 -12.017  0.00  0.00     0.175 C 
ATOM    297  OD1 ASP d   1     -19.904  16.409 -12.106  0.00  0.00    -0.648 OA
ATOM    298  OD2 ASP d   1     -21.729  15.588 -13.017  0.00  0.00    -0.648 OA
ENDBRANCH 293 296
ENDBRANCH   1 293
TORSDOF 87
