REMARK  29 active torsions:
REMARK  status: ('A' for Active; 'I' for Inactive)
REMARK    1  A    between atoms: N_1  and  CA_2 
REMARK    2  A    between atoms: CA_2  and  C_3 
REMARK    3  A    between atoms: CA_2  and  CB_5 
REMARK       I    between atoms: C_3  and  N_13 
REMARK    4  A    between atoms: N_13  and  CA_14 
REMARK    5  A    between atoms: CA_14  and  C_15 
REMARK    6  A    between atoms: CA_14  and  CB_17 
REMARK       I    between atoms: C_15  and  N_34 
REMARK    7  A    between atoms: CB_17  and  CG_18 
REMARK    8  A    between atoms: CZ_23  and  OH_24 
REMARK    9  A    between atoms: N_34  and  CA_35 
REMARK   10  A    between atoms: CA_35  and  C_36 
REMARK   11  A    between atoms: CA_35  and  CB_38 
REMARK       I    between atoms: C_36  and  N_53 
REMARK   12  A    between atoms: CB_38  and  CG1_39 
REMARK   13  A    between atoms: CB_38  and  CG2_40 
REMARK   14  A    between atoms: CG1_39  and  CD1_41 
REMARK   15  A    between atoms: N_53  and  CA_54 
REMARK   16  A    between atoms: CA_54  and  C_55 
REMARK       I    between atoms: C_55  and  N_60 
REMARK   17  A    between atoms: CA_61  and  C_62 
REMARK       I    between atoms: C_62  and  N_74 
REMARK   18  A    between atoms: N_74  and  CA_75 
REMARK   19  A    between atoms: CA_75  and  C_76 
REMARK   20  A    between atoms: CA_75  and  CB_78 
REMARK       I    between atoms: C_76  and  N_98 
REMARK   21  A    between atoms: CB_78  and  CG_79 
REMARK   22  A    between atoms: CZ_84  and  OH_85 
REMARK   23  A    between atoms: OH_85  and  P_86 
REMARK   24  A    between atoms: N_98  and  CA_99 
REMARK   25  A    between atoms: CA_99  and  C_100 
REMARK   26  A    between atoms: CA_99  and  CB_102 
REMARK   27  A    between atoms: CB_102  and  CG_103 
REMARK   28  A    between atoms: CG_103  and  CD1_104 
REMARK   29  A    between atoms: CG_103  and  CD2_105 
ROOT
ATOM      1  C   GLY d   1      -6.938  -7.985  -0.717  0.00  0.00     0.238 C 
ATOM      2  O   GLY d   1      -6.693  -9.190  -0.667  0.00  0.00    -0.272 OA
ATOM      3  N   PRO d   1      -7.771  -7.397   0.158  0.00  0.00    -0.337 N 
ATOM      4  CA  PRO d   1      -8.408  -8.118   1.273  0.00  0.00     0.091 C 
ATOM      5  CB  PRO d   1      -9.038  -6.997   2.115  0.00  0.00    -0.036 C 
ATOM      6  CG  PRO d   1      -8.418  -5.732   1.628  0.00  0.00    -0.048 C 
ATOM      7  CD  PRO d   1      -8.102  -5.967   0.181  0.00  0.00    -0.001 C 
ATOM      8  H31 PRO d   1      -7.651  -8.668   1.852  0.00  0.00     0.087 H 
ATOM      9  H32 PRO d   1      -8.816  -7.147   3.182  0.00  0.00     0.036 H 
ATOM     10  H33 PRO d   1     -10.128  -6.972   1.967  0.00  0.00     0.036 H 
ATOM     11  H34 PRO d   1      -7.498  -5.514   2.191  0.00  0.00     0.035 H 
ATOM     12  H35 PRO d   1      -9.122  -4.894   1.736  0.00  0.00     0.035 H 
ATOM     13  H36 PRO d   1      -8.972  -5.750  -0.457  0.00  0.00     0.064 H 
ATOM     14  H37 PRO d   1      -7.247  -5.356  -0.144  0.00  0.00     0.064 H 
ENDROOT
BRANCH   1  15
ATOM     15  CA  GLY d   1      -6.330  -7.124  -1.809  0.00  0.00     0.069 C 
ATOM     16  H29 GLY d   1      -5.971  -6.186  -1.360  0.00  0.00     0.078 H 
ATOM     17  H30 GLY d   1      -5.483  -7.665  -2.255  0.00  0.00     0.078 H 
BRANCH  15  18
ATOM     18  N   GLY d   1      -7.281  -6.804  -2.857  0.00  0.00    -0.351 N 
ATOM     19  C   ILE d   1      -7.986  -7.762  -3.449  0.00  0.00     0.241 C 
ATOM     20  O   ILE d   1      -7.885  -8.951  -3.146  0.00  0.00    -0.271 OA
ATOM     21  H28 GLY d   1      -7.407  -5.852  -3.137  0.00  0.00     0.163 HD
BRANCH  19  22
ATOM     22  CA  ILE d   1      -8.959  -7.313  -4.533  0.00  0.00     0.092 C 
ATOM     23  H18 ILE d   1      -9.585  -8.171  -4.819  0.00  0.00     0.088 H 
BRANCH  22  24
ATOM     24  N   ILE d   1      -9.838  -6.260  -4.037  0.00  0.00    -0.346 N 
ATOM     25  C   TYR d   1     -11.130  -6.486  -3.808  0.00  0.00     0.241 C 
ATOM     26  O   TYR d   1     -11.657  -7.581  -4.007  0.00  0.00    -0.271 OA
ATOM     27  H17 ILE d   1      -9.462  -5.349  -3.865  0.00  0.00     0.163 HD
BRANCH  25  28
ATOM     28  CA  TYR d   1     -11.955  -5.310  -3.289  0.00  0.00     0.093 C 
ATOM     29  H9  TYR d   1     -12.996  -5.451  -3.614  0.00  0.00     0.088 H 
BRANCH  28  30
ATOM     30  N   TYR d   1     -11.943  -5.262  -1.830  0.00  0.00    -0.346 N 
ATOM     31  C   ALA d   1     -12.832  -4.547  -1.150  0.00  0.00     0.248 C 
ATOM     32  O   ALA d   1     -13.716  -3.883  -1.693  0.00  0.00    -0.271 OA
ATOM     33  H8  TYR d   1     -11.249  -5.780  -1.331  0.00  0.00     0.163 HD
BRANCH  31  34
ATOM     34  CA  ALA d   1     -12.709  -4.586   0.371  0.00  0.00     0.172 C 
ATOM     35  H4  ALA d   1     -13.400  -3.841   0.794  0.00  0.00     0.098 H 
BRANCH  34  36
ATOM     36  N   ALA d   1     -13.081  -5.922   0.901  0.00  0.00    -0.067 N 
ATOM     37  H1  ALA d   1     -12.992  -5.922   1.905  0.00  0.00     0.275 HD
ATOM     38  H2  ALA d   1     -12.469  -6.621   0.509  0.00  0.00     0.275 HD
ATOM     39  H3  ALA d   1     -14.034  -6.130   0.648  0.00  0.00     0.275 HD
ENDBRANCH  34  36
BRANCH  34  40
ATOM     40  CB  ALA d   1     -11.292  -4.225   0.794  0.00  0.00    -0.042 C 
ATOM     41  H5  ALA d   1     -11.031  -3.234   0.394  0.00  0.00     0.030 H 
ATOM     42  H6  ALA d   1     -10.590  -4.975   0.401  0.00  0.00     0.030 H 
ATOM     43  H7  ALA d   1     -11.231  -4.205   1.892  0.00  0.00     0.030 H 
ENDBRANCH  34  40
ENDBRANCH  31  34
ENDBRANCH  28  30
BRANCH  28  44
ATOM     44  CB  TYR d   1     -11.438  -3.995  -3.898  0.00  0.00    -0.014 C 
ATOM     45  H10 TYR d   1     -12.306  -3.417  -4.249  0.00  0.00     0.043 H 
ATOM     46  H11 TYR d   1     -10.794  -4.245  -4.754  0.00  0.00     0.043 H 
BRANCH  44  47
ATOM     47  CG  TYR d   1     -10.641  -3.118  -2.949  0.00  0.00    -0.056 A 
ATOM     48  CD1 TYR d   1      -9.714  -3.663  -2.063  0.00  0.00    -0.074 A 
ATOM     49  CE1 TYR d   1      -8.989  -2.857  -1.205  0.00  0.00    -0.051 A 
ATOM     50  H12 TYR d   1      -9.559  -4.736  -2.046  0.00  0.00     0.084 H 
ATOM     51  CZ  TYR d   1      -9.169  -1.490  -1.235  0.00  0.00     0.065 A 
ATOM     52  H14 TYR d   1      -8.282  -3.298  -0.511  0.00  0.00     0.087 H 
ATOM     53  CE2 TYR d   1     -10.072  -0.926  -2.111  0.00  0.00    -0.051 A 
ATOM     54  CD2 TYR d   1     -10.797  -1.737  -2.962  0.00  0.00    -0.074 A 
ATOM     55  H15 TYR d   1     -10.212   0.149  -2.132  0.00  0.00     0.087 H 
ATOM     56  H13 TYR d   1     -11.501  -1.288  -3.653  0.00  0.00     0.084 H 
BRANCH  51  57
ATOM     57  OH  TYR d   1      -8.445  -0.686  -0.386  0.00  0.00    -0.361 OA
ATOM     58  H16 TYR d   1      -7.873  -1.225   0.148  0.00  0.00     0.217 HD
ENDBRANCH  51  57
ENDBRANCH  44  47
ENDBRANCH  28  44
ENDBRANCH  25  28
ENDBRANCH  22  24
BRANCH  22  59
ATOM     59  CB  ILE d   1      -8.158  -6.860  -5.773  0.00  0.00    -0.030 C 
ATOM     60  H19 ILE d   1      -7.246  -6.350  -5.430  0.00  0.00     0.043 H 
BRANCH  59  61
ATOM     61  CG1 ILE d   1      -8.971  -5.877  -6.621  0.00  0.00    -0.063 C 
ATOM     62  H20 ILE d   1      -8.418  -5.680  -7.551  0.00  0.00     0.033 H 
ATOM     63  H21 ILE d   1      -9.083  -4.940  -6.056  0.00  0.00     0.033 H 
BRANCH  61  64
ATOM     64  CD1 ILE d   1     -10.351  -6.385  -6.983  0.00  0.00    -0.076 C 
ATOM     65  H25 ILE d   1     -10.873  -5.629  -7.589  0.00  0.00     0.027 H 
ATOM     66  H26 ILE d   1     -10.924  -6.577  -6.064  0.00  0.00     0.027 H 
ATOM     67  H27 ILE d   1     -10.259  -7.317  -7.559  0.00  0.00     0.027 H 
ENDBRANCH  61  64
ENDBRANCH  59  61
BRANCH  59  68
ATOM     68  CG2 ILE d   1      -7.753  -8.066  -6.606  0.00  0.00    -0.071 C 
ATOM     69  H22 ILE d   1      -7.171  -8.762  -5.984  0.00  0.00     0.028 H 
ATOM     70  H23 ILE d   1      -7.141  -7.735  -7.457  0.00  0.00     0.028 H 
ATOM     71  H24 ILE d   1      -8.655  -8.574  -6.979  0.00  0.00     0.028 H 
ENDBRANCH  59  68
ENDBRANCH  22  59
ENDBRANCH  19  22
ENDBRANCH  15  18
ENDBRANCH   1  15
BRANCH   4  72
ATOM     72  C   PRO d   1      -9.497  -9.093   0.821  0.00  0.00     0.241 C 
ATOM     73  O   PRO d   1     -10.611  -9.061   1.343  0.00  0.00    -0.271 OA
ATOM     74  N   PTR d   1      -9.168  -9.970  -0.128  0.00  0.00    -0.346 N 
ATOM     75  H38 PTR d   1      -8.244  -9.948  -0.510  0.00  0.00     0.163 HD
BRANCH  74  76
ATOM     76  CA  PTR d   1     -10.119 -10.963  -0.626  0.00  0.00     0.093 C 
ATOM     77  H39 PTR d   1     -10.386 -11.635   0.203  0.00  0.00     0.088 H 
BRANCH  76  78
ATOM     78  C   PTR d   1      -9.498 -11.789  -1.746  0.00  0.00     0.241 C 
ATOM     79  O   PTR d   1      -9.260 -12.988  -1.591  0.00  0.00    -0.271 OA
ATOM     80  N   LEU d   1      -9.247 -11.140  -2.876  0.00  0.00    -0.345 N 
ATOM     81  H46 LEU d   1      -9.464 -10.166  -2.935  0.00  0.00     0.163 HD
BRANCH  80  82
ATOM     82  CA  LEU d   1      -8.663 -11.808  -4.034  0.00  0.00     0.096 C 
ATOM     83  H47 LEU d   1      -8.881 -12.884  -3.961  0.00  0.00     0.089 H 
BRANCH  82  84
ATOM     84  C   LEU d   1      -7.149 -11.621  -4.062  0.00  0.00     0.196 C 
ATOM     85  O   LEU d   1      -6.693 -10.552  -4.521  0.00  0.00    -0.646 OA
ATOM     86  OXT LEU d   1      -6.432 -12.543  -3.620  0.00  0.00    -0.646 OA
ENDBRANCH  82  84
BRANCH  82  87
ATOM     87  CB  LEU d   1      -9.281 -11.271  -5.330  0.00  0.00    -0.034 C 
ATOM     88  H48 LEU d   1      -9.373 -12.110  -6.035  0.00  0.00     0.037 H 
ATOM     89  H49 LEU d   1      -8.597 -10.516  -5.745  0.00  0.00     0.037 H 
BRANCH  87  90
ATOM     90  CG  LEU d   1     -10.663 -10.625  -5.182  0.00  0.00    -0.059 C 
ATOM     91  H50 LEU d   1     -10.574  -9.768  -4.498  0.00  0.00     0.038 H 
BRANCH  90  92
ATOM     92  CD1 LEU d   1     -11.160 -10.115  -6.527  0.00  0.00    -0.073 C 
ATOM     93  H51 LEU d   1     -12.152  -9.655  -6.401  0.00  0.00     0.028 H 
ATOM     94  H52 LEU d   1     -11.232 -10.955  -7.234  0.00  0.00     0.028 H 
ATOM     95  H53 LEU d   1     -10.456  -9.366  -6.918  0.00  0.00     0.028 H 
ENDBRANCH  90  92
BRANCH  90  96
ATOM     96  CD2 LEU d   1     -11.652 -11.615  -4.585  0.00  0.00    -0.073 C 
ATOM     97  H54 LEU d   1     -11.274 -11.971  -3.615  0.00  0.00     0.028 H 
ATOM     98  H55 LEU d   1     -11.773 -12.470  -5.267  0.00  0.00     0.028 H 
ATOM     99  H56 LEU d   1     -12.624 -11.121  -4.441  0.00  0.00     0.028 H 
ENDBRANCH  90  96
ENDBRANCH  87  90
ENDBRANCH  82  87
ENDBRANCH  80  82
ENDBRANCH  76  78
BRANCH  76 100
ATOM    100  CB  PTR d   1     -11.397 -10.287  -1.142  0.00  0.00    -0.014 C 
ATOM    101  H40 PTR d   1     -11.162  -9.784  -2.091  0.00  0.00     0.043 H 
ATOM    102  H41 PTR d   1     -11.717  -9.540  -0.400  0.00  0.00     0.043 H 
BRANCH 100 103
ATOM    103  CG  PTR d   1     -12.549 -11.244  -1.382  0.00  0.00    -0.056 C 
ATOM    104  CD1 PTR d   1     -12.557 -12.515  -0.816  0.00  0.00    -0.074 C 
ATOM    105  CE1 PTR d   1     -13.727 -13.246  -0.724  0.00  0.00    -0.050 C 
ATOM    106  H42 PTR d   1     -11.632 -12.938  -0.442  0.00  0.00     0.084 H 
ATOM    107  CZ  PTR d   1     -14.914 -12.684  -1.140  0.00  0.00     0.082 C 
ATOM    108  H44 PTR d   1     -13.710 -14.255  -0.327  0.00  0.00     0.087 H 
ATOM    109  CE2 PTR d   1     -14.912 -11.472  -1.800  0.00  0.00    -0.050 C 
ATOM    110  CD2 PTR d   1     -13.717 -10.804  -1.991  0.00  0.00    -0.074 C 
ATOM    111  H45 PTR d   1     -15.840 -11.047  -2.166  0.00  0.00     0.087 H 
ATOM    112  H43 PTR d   1     -13.691  -9.925  -2.625  0.00  0.00     0.084 H 
BRANCH 107 113
ATOM    113  OH  PTR d   1     -16.163 -13.323  -0.818  0.00  0.00    -0.240 OA
BRANCH 113 114
ATOM    114  P   PTR d   1     -16.822 -13.152   0.663  0.00  0.00     0.427 P 
ATOM    115  O1P PTR d   1     -15.715 -13.488   1.650  0.00  0.00    -0.617 OA
ATOM    116  O2P PTR d   1     -17.980 -14.135   0.718  0.00  0.00    -0.617 OA
ATOM    117  O3P PTR d   1     -17.272 -11.703   0.751  0.00  0.00    -0.617 OA
ENDBRANCH 113 114
ENDBRANCH 107 113
ENDBRANCH 100 103
ENDBRANCH  76 100
ENDBRANCH  74  76
ENDBRANCH   4  72
TORSDOF 29
