REMARK  17 active torsions:
REMARK  status: ('A' for Active; 'I' for Inactive)
REMARK    1  A    between atoms: C1_2  and  C2_4 
REMARK       I    between atoms: N2_13  and  C1_2 
REMARK    2  A    between atoms: C11_14  and  N2_13 
REMARK    3  A    between atoms: C12_15  and  C11_14 
REMARK    4  A    between atoms: C11_14  and  C13_17 
REMARK       I    between atoms: N4_24  and  C12_15 
REMARK    5  A    between atoms: C13_17  and  C14_18 
REMARK       I    between atoms: C14_18  and  N3_20 
REMARK    6  A    between atoms: C15_21  and  O4_22 
REMARK    7  A    between atoms: C16_23  and  C15_21 
REMARK    8  A    between atoms: C15_21  and  C24_33 
REMARK    9  A    between atoms: C16_23  and  N4_24 
REMARK   10  A    between atoms: C16_23  and  C17_25 
REMARK   11  A    between atoms: C17_25  and  C18_26 
REMARK   12  A    between atoms: C24_33  and  N5_32 
REMARK   13  A    between atoms: C25_34  and  C26_35 
REMARK       I    between atoms: C26_35  and  N6_45 
REMARK   14  A    between atoms: N6_45  and  C35_46 
REMARK   15  A    between atoms: C35_46  and  C36_47 
REMARK   16  A    between atoms: C35_46  and  C37_48 
REMARK   17  A    between atoms: C35_46  and  C38_49 
ROOT
ATOM      1  C15 ROC d   1      15.659  24.794  18.473  0.00  0.00     0.078 C 
ATOM      2  H13 ROC d   1      15.712  25.186  17.446  0.00  0.00     0.088 H 
ENDROOT
BRANCH   1   3
ATOM      3  O4  ROC d   1      15.310  25.897  19.313  0.00  0.00    -0.392 OA
ATOM      4  H14 ROC d   1      15.320  25.618  20.221  0.00  0.00     0.210 HD
ENDBRANCH   1   3
BRANCH   1   5
ATOM      5  C16 ROC d   1      17.073  24.249  18.802  0.00  0.00     0.042 C 
ATOM      6  H15 ROC d   1      17.201  23.309  18.245  0.00  0.00     0.077 H 
BRANCH   5   7
ATOM      7  N4  ROC d   1      18.102  25.188  18.335  0.00  0.00    -0.352 N 
ATOM      8  C12 ROC d   1      18.880  24.988  17.275  0.00  0.00     0.241 C 
ATOM      9  O2  ROC d   1      18.835  23.936  16.571  0.00  0.00    -0.271 OA
ATOM     10  H16 ROC d   1      18.226  26.036  18.850  0.00  0.00     0.163 HD
BRANCH   8  11
ATOM     11  C11 ROC d   1      19.934  26.132  17.046  0.00  0.00     0.097 C 
ATOM     12  H8  ROC d   1      19.476  27.078  17.370  0.00  0.00     0.088 H 
BRANCH  11  13
ATOM     13  N2  ROC d   1      21.192  25.913  17.902  0.00  0.00    -0.342 N 
ATOM     14  C1  ROC d   1      21.749  26.805  18.790  0.00  0.00     0.271 C 
ATOM     15  O1  ROC d   1      21.316  28.023  18.786  0.00  0.00    -0.266 OA
ATOM     16  H7  ROC d   1      21.653  25.031  17.803  0.00  0.00     0.163 HD
BRANCH  14  17
ATOM     17  C2  ROC d   1      22.863  26.235  19.582  0.00  0.00     0.125 A 
ATOM     18  N1  ROC d   1      23.376  25.010  19.266  0.00  0.00    -0.243 NA
ATOM     19  C10 ROC d   1      24.435  24.458  19.937  0.00  0.00     0.068 A 
ATOM     20  C5  ROC d   1      25.035  25.155  20.998  0.00  0.00    -0.007 A 
ATOM     21  C9R ROC d   1      24.946  23.198  19.595  0.00  0.00    -0.054 A 
ATOM     22  C4  ROC d   1      24.501  26.422  21.323  0.00  0.00    -0.068 A 
ATOM     23  C6  ROC d   1      26.111  24.565  21.662  0.00  0.00    -0.071 A 
ATOM     24  C3  ROC d   1      23.412  26.984  20.627  0.00  0.00    -0.049 A 
ATOM     25  H2  ROC d   1      24.945  26.982  22.138  0.00  0.00     0.085 H 
ATOM     26  H1  ROC d   1      23.016  27.958  20.891  0.00  0.00     0.087 H 
ATOM     27  C7  ROC d   1      26.590  23.325  21.301  0.00  0.00    -0.082 A 
ATOM     28  H3  ROC d   1      26.581  25.095  22.482  0.00  0.00     0.084 H 
ATOM     29  C8  ROC d   1      26.006  22.630  20.257  0.00  0.00    -0.081 A 
ATOM     30  H4  ROC d   1      27.427  22.892  21.837  0.00  0.00     0.083 H 
ATOM     31  H5  ROC d   1      26.379  21.654  19.967  0.00  0.00     0.083 H 
ATOM     32  H6  ROC d   1      24.487  22.652  18.778  0.00  0.00     0.087 H 
ENDBRANCH  14  17
ENDBRANCH  11  13
BRANCH  11  33
ATOM     33  C13 ROC d   1      20.284  26.272  15.503  0.00  0.00     0.036 C 
ATOM     34  H9  ROC d   1      19.377  26.511  14.928  0.00  0.00     0.051 H 
ATOM     35  H10 ROC d   1      20.721  25.336  15.126  0.00  0.00     0.051 H 
BRANCH  33  36
ATOM     36  C14 ROC d   1      21.279  27.391  15.391  0.00  0.00     0.217 C 
ATOM     37  O3  ROC d   1      22.529  27.174  15.177  0.00  0.00    -0.274 OA
ATOM     38  N3  ROC d   1      20.874  28.627  15.505  0.00  0.00    -0.370 N 
ATOM     39  H11 ROC d   1      21.531  29.377  15.431  0.00  0.00     0.159 HD
ATOM     40  H12 ROC d   1      19.907  28.823  15.666  0.00  0.00     0.159 HD
ENDBRANCH  33  36
ENDBRANCH  11  33
ENDBRANCH   8  11
ENDBRANCH   5   7
BRANCH   5  41
ATOM     41  C17 ROC d   1      17.255  23.909  20.343  0.00  0.00    -0.020 C 
ATOM     42  H17 ROC d   1      16.656  23.017  20.577  0.00  0.00     0.043 H 
ATOM     43  H18 ROC d   1      16.890  24.761  20.935  0.00  0.00     0.043 H 
BRANCH  41  44
ATOM     44  C18 ROC d   1      18.702  23.636  20.730  0.00  0.00    -0.056 A 
ATOM     45  C19 ROC d   1      19.330  22.428  20.385  0.00  0.00    -0.077 A 
ATOM     46  C21 ROC d   1      20.625  22.171  20.748  0.00  0.00    -0.082 A 
ATOM     47  H19 ROC d   1      18.779  21.685  19.820  0.00  0.00     0.084 H 
ATOM     48  C23 ROC d   1      21.371  23.100  21.474  0.00  0.00    -0.083 A 
ATOM     49  H21 ROC d   1      21.079  21.228  20.466  0.00  0.00     0.083 H 
ATOM     50  C22 ROC d   1      20.728  24.303  21.810  0.00  0.00    -0.082 A 
ATOM     51  H23 ROC d   1      22.397  22.903  21.765  0.00  0.00     0.083 H 
ATOM     52  C20 ROC d   1      19.428  24.558  21.445  0.00  0.00    -0.077 A 
ATOM     53  H22 ROC d   1      21.273  25.052  22.373  0.00  0.00     0.083 H 
ATOM     54  H20 ROC d   1      18.969  25.499  21.725  0.00  0.00     0.084 H 
ENDBRANCH  41  44
ENDBRANCH   5  41
ENDBRANCH   1   5
BRANCH   1  55
ATOM     55  C24 ROC d   1      14.576  23.726  18.463  0.00  0.00     0.110 C 
ATOM     56  H25 ROC d   1      13.610  24.213  18.663  0.00  0.00     0.080 H 
ATOM     57  H26 ROC d   1      14.796  23.005  19.264  0.00  0.00     0.080 H 
BRANCH  55  58
ATOM     58  N5  ROC d   1      14.465  22.993  17.208  0.00  0.00    -0.055 N 
ATOM     59  C25 ROC d   1      13.835  21.646  17.315  0.00  0.00     0.180 C 
ATOM     60  C27 ROC d   1      13.844  20.934  15.979  0.00  0.00    -0.026 C 
ATOM     61  H27 ROC d   1      12.789  21.786  17.625  0.00  0.00     0.100 H 
ATOM     62  C28 ROC d   1      13.182  21.718  14.875  0.00  0.00    -0.047 C 
ATOM     63  H28 ROC d   1      13.315  19.976  16.091  0.00  0.00     0.037 H 
ATOM     64  H29 ROC d   1      14.889  20.744  15.693  0.00  0.00     0.037 H 
ATOM     65  C29 ROC d   1      13.299  21.084  13.471  0.00  0.00    -0.061 C 
ATOM     66  C33 ROC d   1      13.721  23.166  14.818  0.00  0.00    -0.027 C 
ATOM     67  H30 ROC d   1      12.111  21.767  15.120  0.00  0.00     0.040 H 
ATOM     68  C30 ROC d   1      14.725  21.202  12.900  0.00  0.00    -0.065 C 
ATOM     69  H31 ROC d   1      12.601  21.595  12.791  0.00  0.00     0.033 H 
ATOM     70  H32 ROC d   1      13.031  20.019  13.539  0.00  0.00     0.033 H 
ATOM     71  C31 ROC d   1      15.046  22.673  12.747  0.00  0.00    -0.065 C 
ATOM     72  H33 ROC d   1      14.777  20.704  11.920  0.00  0.00     0.033 H 
ATOM     73  H34 ROC d   1      15.443  20.733  13.588  0.00  0.00     0.033 H 
ATOM     74  C32 ROC d   1      15.092  23.229  14.171  0.00  0.00    -0.060 C 
ATOM     75  H35 ROC d   1      14.264  23.179  12.162  0.00  0.00     0.033 H 
ATOM     76  H36 ROC d   1      16.019  22.805  12.251  0.00  0.00     0.033 H 
ATOM     77  H37 ROC d   1      15.428  24.276  14.139  0.00  0.00     0.033 H 
ATOM     78  H38 ROC d   1      15.800  22.635  14.768  0.00  0.00     0.033 H 
ATOM     79  C34 ROC d   1      13.723  23.789  16.194  0.00  0.00     0.088 C 
ATOM     80  H39 ROC d   1      13.034  23.752  14.189  0.00  0.00     0.043 H 
ATOM     81  H40 ROC d   1      14.188  24.784  16.125  0.00  0.00     0.076 H 
ATOM     82  H41 ROC d   1      12.681  23.894  16.529  0.00  0.00     0.076 H 
ATOM     83  H24 ROC d   1      15.404  22.855  16.869  0.00  0.00     0.281 HD
BRANCH  59  84
ATOM     84  C26 ROC d   1      14.528  20.783  18.359  0.00  0.00     0.249 C 
ATOM     85  O5  ROC d   1      15.726  20.563  18.243  0.00  0.00    -0.271 OA
ATOM     86  N6  ROC d   1      13.743  20.127  19.275  0.00  0.00    -0.351 N 
ATOM     87  H42 ROC d   1      12.759  20.299  19.223  0.00  0.00     0.163 HD
BRANCH  86  88
ATOM     88  C35 ROC d   1      14.190  19.199  20.324  0.00  0.00     0.022 C 
BRANCH  88  89
ATOM     89  C36 ROC d   1      12.974  18.769  21.091  0.00  0.00    -0.054 C 
ATOM     90  H43 ROC d   1      13.271  18.071  21.888  0.00  0.00     0.030 H 
ATOM     91  H44 ROC d   1      12.269  18.270  20.410  0.00  0.00     0.030 H 
ATOM     92  H45 ROC d   1      12.491  19.651  21.537  0.00  0.00     0.030 H 
ENDBRANCH  88  89
BRANCH  88  93
ATOM     93  C37 ROC d   1      15.132  19.973  21.238  0.00  0.00    -0.054 C 
ATOM     94  H46 ROC d   1      15.491  19.311  22.040  0.00  0.00     0.030 H 
ATOM     95  H47 ROC d   1      14.596  20.826  21.679  0.00  0.00     0.030 H 
ATOM     96  H48 ROC d   1      15.989  20.340  20.655  0.00  0.00     0.030 H 
ENDBRANCH  88  93
BRANCH  88  97
ATOM     97  C38 ROC d   1      14.927  18.037  19.699  0.00  0.00    -0.054 C 
ATOM     98  H49 ROC d   1      15.259  17.346  20.488  0.00  0.00     0.030 H 
ATOM     99  H50 ROC d   1      15.802  18.412  19.148  0.00  0.00     0.030 H 
ATOM    100  H51 ROC d   1      14.256  17.507  19.006  0.00  0.00     0.030 H 
ENDBRANCH  88  97
ENDBRANCH  86  88
ENDBRANCH  59  84
ENDBRANCH  55  58
ENDBRANCH   1  55
TORSDOF 17
