REMARK  12 active torsions:
REMARK  status: ('A' for Active; 'I' for Inactive)
REMARK    1  A    between atoms: O1_7  and  C1_1 
REMARK    2  A    between atoms: C2_2  and  O2_8 
REMARK    3  A    between atoms: C3_3  and  O3_9 
REMARK    4  A    between atoms: C4_4  and  O4_10 
REMARK    5  A    between atoms: C5_5  and  C6_6 
REMARK    6  A    between atoms: C6_6  and  O6_12 
REMARK    7  A    between atoms: C4'_16  and  O1_7 
REMARK    8  A    between atoms: C1'_13  and  O1'_19 
REMARK    9  A    between atoms: C2'_14  and  O2'_20 
REMARK   10  A    between atoms: C3'_15  and  O3'_21 
REMARK   11  A    between atoms: C5'_17  and  C6'_18 
REMARK   12  A    between atoms: C6'_18  and  O6'_23 
ROOT
ATOM      1  O1  NON d   1      21.006  38.756  32.380  0.00  0.00    -0.348 OA
ENDROOT
BRANCH   1   2
ATOM      2  C1  NON d   1      20.252  37.630  32.821  0.00  0.00     0.159 C 
ATOM      3  C2  NON d   1      18.774  38.001  32.783  0.00  0.00     0.110 C 
ATOM      4  C3  NON d   1      17.901  36.782  33.053  0.00  0.00     0.092 C 
ATOM      5  H2  NON d   1      18.528  38.413  31.793  0.00  0.00     0.094 H 
ATOM      6  C4  NON d   1      18.297  35.623  32.155  0.00  0.00     0.090 C 
ATOM      7  H3  NON d   1      18.027  36.479  34.103  0.00  0.00     0.091 H 
ATOM      8  C5  NON d   1      19.789  35.350  32.300  0.00  0.00     0.089 C 
ATOM      9  H4  NON d   1      17.738  34.724  32.452  0.00  0.00     0.091 H 
ATOM     10  O5  NON d   1      20.522  36.529  31.949  0.00  0.00    -0.348 OA
ATOM     11  H5  NON d   1      20.000  35.084  33.346  0.00  0.00     0.090 H 
ATOM     12  H1  NON d   1      20.539  37.364  33.849  0.00  0.00     0.133 H 
BRANCH   3  13
ATOM     13  O2  NON d   1      18.519  38.984  33.792  0.00  0.00    -0.388 OA
ATOM     14  H8  NON d   1      19.060  39.748  33.632  0.00  0.00     0.210 HD
ENDBRANCH   3  13
BRANCH   4  15
ATOM     15  O3  NON d   1      16.530  37.113  32.820  0.00  0.00    -0.390 OA
ATOM     16  H9  NON d   1      16.416  37.361  31.910  0.00  0.00     0.210 HD
ENDBRANCH   4  15
BRANCH   6  17
ATOM     17  O4  NON d   1      17.969  35.954  30.793  0.00  0.00    -0.390 OA
ATOM     18  H10 NON d   1      17.036  36.120  30.724  0.00  0.00     0.210 HD
ENDBRANCH   6  17
BRANCH   8  19
ATOM     19  C6  NON d   1      20.249  34.217  31.399  0.00  0.00     0.043 C 
ATOM     20  H6  NON d   1      20.029  34.462  30.349  0.00  0.00     0.078 H 
ATOM     21  H7  NON d   1      19.731  33.287  31.675  0.00  0.00     0.078 H 
BRANCH  19  22
ATOM     22  O6  NON d   1      21.657  34.058  31.574  0.00  0.00    -0.398 OA
ATOM     23  H11 NON d   1      22.098  34.866  31.337  0.00  0.00     0.209 HD
ENDBRANCH  19  22
ENDBRANCH   8  19
ENDBRANCH   1   2
BRANCH   1  24
ATOM     24  C4' NON d   1      22.418  38.652  32.577  0.00  0.00     0.096 C 
ATOM     25  C3' NON d   1      23.120  39.107  31.301  0.00  0.00     0.092 C 
ATOM     26  C2' NON d   1      24.636  39.097  31.472  0.00  0.00     0.110 C 
ATOM     27  H14 NON d   1      22.797  40.133  31.072  0.00  0.00     0.091 H 
ATOM     28  C1' NON d   1      25.060  39.895  32.708  0.00  0.00     0.156 C 
ATOM     29  H13 NON d   1      24.968  38.056  31.600  0.00  0.00     0.094 H 
ATOM     30  O5' NON d   1      24.330  39.441  33.857  0.00  0.00    -0.349 OA
ATOM     31  H12 NON d   1      24.869  40.966  32.545  0.00  0.00     0.133 H 
ATOM     32  C5' NON d   1      22.898  39.507  33.763  0.00  0.00     0.089 C 
ATOM     33  H16 NON d   1      22.596  40.548  33.578  0.00  0.00     0.090 H 
ATOM     34  H15 NON d   1      22.672  37.601  32.777  0.00  0.00     0.091 H 
BRANCH  25  35
ATOM     35  O3' NON d   1      22.769  38.256  30.206  0.00  0.00    -0.390 OA
ATOM     36  H21 NON d   1      23.032  37.364  30.402  0.00  0.00     0.210 HD
ENDBRANCH  25  35
BRANCH  26  37
ATOM     37  O2' NON d   1      25.251  39.635  30.297  0.00  0.00    -0.388 OA
ATOM     38  H20 NON d   1      24.952  40.527  30.165  0.00  0.00     0.210 HD
ENDBRANCH  26  37
BRANCH  28  39
ATOM     39  O1' NON d   1      26.456  39.673  32.931  0.00  0.00    -0.369 OA
ATOM     40  H19 NON d   1      26.610  38.745  33.065  0.00  0.00     0.212 HD
ENDBRANCH  28  39
BRANCH  32  41
ATOM     41  C6' NON d   1      22.313  39.065  35.105  0.00  0.00     0.043 C 
ATOM     42  H17 NON d   1      21.224  39.219  35.094  0.00  0.00     0.078 H 
ATOM     43  H18 NON d   1      22.760  39.666  35.910  0.00  0.00     0.078 H 
BRANCH  41  44
ATOM     44  O6' NON d   1      22.592  37.677  35.341  0.00  0.00    -0.398 OA
ATOM     45  H22 NON d   1      23.532  37.542  35.354  0.00  0.00     0.209 HD
ENDBRANCH  41  44
ENDBRANCH  32  41
ENDBRANCH   1  24
TORSDOF 12
