REMARK  5 active torsions:
REMARK  status: ('A' for Active; 'I' for Inactive)
REMARK    1  A    between atoms: C1_1  and  S_7 
REMARK    2  A    between atoms: C4_4  and  C7_11 
REMARK    3  A    between atoms: S_7  and  N1_10 
REMARK    4  A    between atoms: C7_11  and  C8_12 
REMARK    5  A    between atoms: C8_12  and  N2_13 
ROOT
ATOM      1  C1  ZYX d   1      -5.211   2.285  15.747  0.00  0.00     0.079 A 
ATOM      2  C2  ZYX d   1      -3.858   2.276  15.432  0.00  0.00    -0.060 A 
ATOM      3  C3  ZYX d   1      -3.338   3.349  14.706  0.00  0.00    -0.075 A 
ATOM      4  C4  ZYX d   1      -4.132   4.405  14.286  0.00  0.00    -0.057 A 
ATOM      5  C5  ZYX d   1      -5.489   4.367  14.592  0.00  0.00    -0.075 A 
ATOM      6  C6  ZYX d   1      -6.023   3.326  15.311  0.00  0.00    -0.060 A 
ATOM      7  H1  ZYX d   1      -3.221   1.456  15.742  0.00  0.00     0.085 H 
ATOM      8  H2  ZYX d   1      -2.281   3.357  14.463  0.00  0.00     0.084 H 
ATOM      9  H3  ZYX d   1      -6.134   5.171  14.258  0.00  0.00     0.084 H 
ATOM     10  H4  ZYX d   1      -7.083   3.316  15.540  0.00  0.00     0.085 H 
ENDROOT
BRANCH   4  11
ATOM     11  C7  ZYX d   1      -3.643   5.514  13.371  0.00  0.00    -0.019 C 
ATOM     12  H7  ZYX d   1      -4.512   6.141  13.123  0.00  0.00     0.042 H 
ATOM     13  H8  ZYX d   1      -3.261   5.038  12.456  0.00  0.00     0.042 H 
BRANCH  11  14
ATOM     14  C8  ZYX d   1      -2.569   6.424  13.881  0.00  0.00     0.083 C 
ATOM     15  H9  ZYX d   1      -1.725   5.847  14.287  0.00  0.00     0.075 H 
ATOM     16  H10 ZYX d   1      -2.961   7.097  14.658  0.00  0.00     0.075 H 
BRANCH  14  17
ATOM     17  N2  ZYX d   1      -2.156   7.192  12.670  0.00  0.00    -0.079 N 
ATOM     18  H11 ZYX d   1      -1.425   7.841  12.917  0.00  0.00     0.274 HD
ATOM     19  H12 ZYX d   1      -2.948   7.700  12.308  0.00  0.00     0.274 HD
ATOM     20  H13 ZYX d   1      -1.816   6.554  11.967  0.00  0.00     0.274 HD
ENDBRANCH  14  17
ENDBRANCH  11  14
ENDBRANCH   4  11
BRANCH   1  21
ATOM     21  S   ZYX d   1      -5.895   0.940  16.713  0.00  0.00     0.256 S 
ATOM     22  O1  ZYX d   1      -7.312   1.058  16.555  0.00  0.00    -0.201 OA
ATOM     23  O2  ZYX d   1      -5.320   1.125  18.025  0.00  0.00    -0.201 OA
BRANCH  21  24
ATOM     24  N1  ZYX d   1      -5.377  -0.427  16.061  0.00  0.00    -0.324 N 
ATOM     25  H5  ZYX d   1      -5.649  -1.304  16.457  0.00  0.00     0.169 HD
ATOM     26  H6  ZYX d   1      -4.781  -0.404  15.258  0.00  0.00     0.169 HD
ENDBRANCH  21  24
ENDBRANCH   1  21
TORSDOF 5
