REMARK  17 active torsions:
REMARK  status: ('A' for Active; 'I' for Inactive)
REMARK    1  A    between atoms: C1_2  and  C2_4 
REMARK       I    between atoms: N2_13  and  C1_2 
REMARK    2  A    between atoms: C11_14  and  N2_13 
REMARK    3  A    between atoms: C12_15  and  C11_14 
REMARK    4  A    between atoms: C11_14  and  C13_17 
REMARK       I    between atoms: N4_24  and  C12_15 
REMARK    5  A    between atoms: C13_17  and  C14_18 
REMARK       I    between atoms: C14_18  and  N3_20 
REMARK    6  A    between atoms: C15_21  and  O4_22 
REMARK    7  A    between atoms: C16_23  and  C15_21 
REMARK    8  A    between atoms: C15_21  and  C24_33 
REMARK    9  A    between atoms: C16_23  and  N4_24 
REMARK   10  A    between atoms: C16_23  and  C17_25 
REMARK   11  A    between atoms: C17_25  and  C18_26 
REMARK   12  A    between atoms: C24_33  and  N5_32 
REMARK   13  A    between atoms: C25_34  and  C26_35 
REMARK       I    between atoms: C26_35  and  N6_45 
REMARK   14  A    between atoms: N6_45  and  C35_46 
REMARK   15  A    between atoms: C35_46  and  C36_47 
REMARK   16  A    between atoms: C35_46  and  C37_48 
REMARK   17  A    between atoms: C35_46  and  C38_49 
ROOT
ATOM      1  C15 ROC d   1      15.274  24.568  17.862  0.00  0.00     0.078 C 
ATOM      2  H13 ROC d   1      15.396  24.992  16.855  0.00  0.00     0.088 H 
ENDROOT
BRANCH   1   3
ATOM      3  O4  ROC d   1      14.906  25.644  18.727  0.00  0.00    -0.392 OA
ATOM      4  H14 ROC d   1      14.066  25.994  18.456  0.00  0.00     0.210 HD
ENDBRANCH   1   3
BRANCH   1   5
ATOM      5  C16 ROC d   1      16.623  23.970  18.259  0.00  0.00     0.042 C 
ATOM      6  H15 ROC d   1      16.809  23.058  17.672  0.00  0.00     0.077 H 
BRANCH   5   7
ATOM      7  N4  ROC d   1      17.606  24.981  17.920  0.00  0.00    -0.352 N 
ATOM      8  C12 ROC d   1      18.634  24.693  17.099  0.00  0.00     0.241 C 
ATOM      9  O2  ROC d   1      18.820  23.613  16.549  0.00  0.00    -0.271 OA
ATOM     10  H16 ROC d   1      17.520  25.902  18.300  0.00  0.00     0.163 HD
BRANCH   8  11
ATOM     11  C11 ROC d   1      19.600  25.865  16.884  0.00  0.00     0.097 C 
ATOM     12  H8  ROC d   1      19.108  26.811  17.152  0.00  0.00     0.088 H 
BRANCH  11  13
ATOM     13  N2  ROC d   1      20.768  25.641  17.736  0.00  0.00    -0.342 N 
ATOM     14  C1  ROC d   1      21.235  26.569  18.581  0.00  0.00     0.271 C 
ATOM     15  O1  ROC d   1      20.752  27.713  18.539  0.00  0.00    -0.266 OA
ATOM     16  H7  ROC d   1      21.237  24.759  17.685  0.00  0.00     0.163 HD
BRANCH  14  17
ATOM     17  C2  ROC d   1      22.365  26.170  19.459  0.00  0.00     0.125 A 
ATOM     18  N1  ROC d   1      23.066  25.051  19.109  0.00  0.00    -0.243 NA
ATOM     19  C10 ROC d   1      24.123  24.610  19.858  0.00  0.00     0.068 A 
ATOM     20  C5  ROC d   1      24.523  25.305  20.989  0.00  0.00    -0.007 A 
ATOM     21  C9R ROC d   1      24.842  23.502  19.480  0.00  0.00    -0.054 A 
ATOM     22  C4  ROC d   1      23.799  26.425  21.390  0.00  0.00    -0.068 A 
ATOM     23  C6  ROC d   1      25.587  24.835  21.741  0.00  0.00    -0.071 A 
ATOM     24  C3  ROC d   1      22.738  26.883  20.595  0.00  0.00    -0.049 A 
ATOM     25  H2  ROC d   1      24.053  26.939  22.310  0.00  0.00     0.085 H 
ATOM     26  H1  ROC d   1      22.210  27.790  20.865  0.00  0.00     0.087 H 
ATOM     27  C7  ROC d   1      26.316  23.744  21.365  0.00  0.00    -0.082 A 
ATOM     28  H3  ROC d   1      25.849  25.350  22.658  0.00  0.00     0.084 H 
ATOM     29  C8  ROC d   1      25.915  23.079  20.224  0.00  0.00    -0.081 A 
ATOM     30  H4  ROC d   1      27.174  23.414  21.939  0.00  0.00     0.083 H 
ATOM     31  H5  ROC d   1      26.462  22.199  19.907  0.00  0.00     0.083 H 
ATOM     32  H6  ROC d   1      24.559  22.957  18.587  0.00  0.00     0.087 H 
ENDBRANCH  14  17
ENDBRANCH  11  13
BRANCH  11  33
ATOM     33  C13 ROC d   1      20.053  25.916  15.453  0.00  0.00     0.036 C 
ATOM     34  H9  ROC d   1      19.181  26.043  14.795  0.00  0.00     0.051 H 
ATOM     35  H10 ROC d   1      20.572  24.980  15.197  0.00  0.00     0.051 H 
BRANCH  33  36
ATOM     36  C14 ROC d   1      20.981  27.064  15.276  0.00  0.00     0.217 C 
ATOM     37  O3  ROC d   1      22.199  26.922  15.131  0.00  0.00    -0.274 OA
ATOM     38  N3  ROC d   1      20.455  28.232  15.258  0.00  0.00    -0.370 N 
ATOM     39  H11 ROC d   1      21.034  29.039  15.142  0.00  0.00     0.159 HD
ATOM     40  H12 ROC d   1      19.466  28.337  15.360  0.00  0.00     0.159 HD
ENDBRANCH  33  36
ENDBRANCH  11  33
ENDBRANCH   8  11
ENDBRANCH   5   7
BRANCH   5  41
ATOM     41  C17 ROC d   1      16.684  23.610  19.743  0.00  0.00    -0.020 C 
ATOM     42  H17 ROC d   1      16.134  22.670  19.899  0.00  0.00     0.043 H 
ATOM     43  H18 ROC d   1      16.205  24.415  20.320  0.00  0.00     0.043 H 
BRANCH  41  44
ATOM     44  C18 ROC d   1      18.108  23.430  20.250  0.00  0.00    -0.056 C 
ATOM     45  C19 ROC d   1      18.803  22.221  20.201  0.00  0.00    -0.077 C 
ATOM     46  C21 ROC d   1      20.108  22.135  20.608  0.00  0.00    -0.082 C 
ATOM     47  H19 ROC d   1      18.301  21.333  19.834  0.00  0.00     0.084 H 
ATOM     48  C23 ROC d   1      20.713  23.207  21.223  0.00  0.00    -0.083 C 
ATOM     49  H21 ROC d   1      20.666  21.220  20.445  0.00  0.00     0.083 H 
ATOM     50  C22 ROC d   1      20.049  24.388  21.257  0.00  0.00    -0.082 C 
ATOM     51  H23 ROC d   1      21.696  23.109  21.669  0.00  0.00     0.083 H 
ATOM     52  C20 ROC d   1      18.753  24.488  20.828  0.00  0.00    -0.077 C 
ATOM     53  H22 ROC d   1      20.554  25.271  21.631  0.00  0.00     0.083 H 
ATOM     54  H20 ROC d   1      18.226  25.427  20.949  0.00  0.00     0.084 H 
ENDBRANCH  41  44
ENDBRANCH   5  41
ENDBRANCH   1   5
BRANCH   1  55
ATOM     55  C24 ROC d   1      14.190  23.530  17.768  0.00  0.00     0.110 C 
ATOM     56  H25 ROC d   1      13.214  24.035  17.827  0.00  0.00     0.080 H 
ATOM     57  H26 ROC d   1      14.295  22.835  18.614  0.00  0.00     0.080 H 
BRANCH  55  58
ATOM     58  N5  ROC d   1      14.243  22.772  16.540  0.00  0.00    -0.055 N 
ATOM     59  C25 ROC d   1      13.625  21.422  16.674  0.00  0.00     0.180 C 
ATOM     60  C27 ROC d   1      13.844  20.644  15.382  0.00  0.00    -0.026 C 
ATOM     61  H27 ROC d   1      12.552  21.523  16.895  0.00  0.00     0.100 H 
ATOM     62  C28 ROC d   1      13.242  21.392  14.181  0.00  0.00    -0.047 C 
ATOM     63  H28 ROC d   1      13.364  19.658  15.470  0.00  0.00     0.037 H 
ATOM     64  H29 ROC d   1      14.924  20.513  15.220  0.00  0.00     0.037 H 
ATOM     65  C29 ROC d   1      13.547  20.718  12.844  0.00  0.00    -0.061 C 
ATOM     66  C33 ROC d   1      13.829  22.808  14.125  0.00  0.00    -0.027 C 
ATOM     67  H30 ROC d   1      12.151  21.447  14.313  0.00  0.00     0.040 H 
ATOM     68  C30 ROC d   1      14.995  20.802  12.431  0.00  0.00    -0.065 C 
ATOM     69  H31 ROC d   1      12.937  21.201  12.066  0.00  0.00     0.033 H 
ATOM     70  H32 ROC d   1      13.270  19.656  12.921  0.00  0.00     0.033 H 
ATOM     71  C31 ROC d   1      15.465  22.228  12.314  0.00  0.00    -0.065 C 
ATOM     72  H33 ROC d   1      15.116  20.307  11.456  0.00  0.00     0.033 H 
ATOM     73  H34 ROC d   1      15.610  20.286  13.183  0.00  0.00     0.033 H 
ATOM     74  C32 ROC d   1      15.260  22.859  13.682  0.00  0.00    -0.060 C 
ATOM     75  H35 ROC d   1      14.874  22.763  11.556  0.00  0.00     0.033 H 
ATOM     76  H36 ROC d   1      16.529  22.257  12.037  0.00  0.00     0.033 H 
ATOM     77  H37 ROC d   1      15.579  23.911  13.637  0.00  0.00     0.033 H 
ATOM     78  H38 ROC d   1      15.877  22.320  14.416  0.00  0.00     0.033 H 
ATOM     79  C34 ROC d   1      13.613  23.511  15.454  0.00  0.00     0.088 C 
ATOM     80  H39 ROC d   1      13.252  23.361  13.369  0.00  0.00     0.043 H 
ATOM     81  H40 ROC d   1      14.050  24.519  15.403  0.00  0.00     0.076 H 
ATOM     82  H41 ROC d   1      12.533  23.588  15.649  0.00  0.00     0.076 H 
ATOM     83  H24 ROC d   1      15.214  22.641  16.305  0.00  0.00     0.281 HD
BRANCH  59  84
ATOM     84  C26 ROC d   1      14.335  20.597  17.783  0.00  0.00     0.249 C 
ATOM     85  O5  ROC d   1      15.580  20.599  17.819  0.00  0.00    -0.271 OA
ATOM     86  N6  ROC d   1      13.526  19.954  18.637  0.00  0.00    -0.351 N 
ATOM     87  H42 ROC d   1      12.544  20.091  18.507  0.00  0.00     0.163 HD
BRANCH  86  88
ATOM     88  C35 ROC d   1      13.917  19.082  19.728  0.00  0.00     0.022 C 
BRANCH  88  89
ATOM     89  C36 ROC d   1      12.661  18.493  20.308  0.00  0.00    -0.054 C 
ATOM     90  H43 ROC d   1      12.921  17.824  21.141  0.00  0.00     0.030 H 
ATOM     91  H44 ROC d   1      12.131  17.923  19.531  0.00  0.00     0.030 H 
ATOM     92  H45 ROC d   1      12.013  19.302  20.676  0.00  0.00     0.030 H 
ENDBRANCH  88  89
BRANCH  88  93
ATOM     93  C37 ROC d   1      14.647  19.859  20.779  0.00  0.00    -0.054 C 
ATOM     94  H46 ROC d   1      14.937  19.185  21.599  0.00  0.00     0.030 H 
ATOM     95  H47 ROC d   1      13.992  20.652  21.170  0.00  0.00     0.030 H 
ATOM     96  H48 ROC d   1      15.549  20.311  20.341  0.00  0.00     0.030 H 
ENDBRANCH  88  93
BRANCH  88  97
ATOM     97  C38 ROC d   1      14.735  17.945  19.177  0.00  0.00    -0.054 C 
ATOM     98  H49 ROC d   1      15.036  17.278  19.998  0.00  0.00     0.030 H 
ATOM     99  H50 ROC d   1      15.632  18.345  18.682  0.00  0.00     0.030 H 
ATOM    100  H51 ROC d   1      14.135  17.381  18.448  0.00  0.00     0.030 H 
ENDBRANCH  88  97
ENDBRANCH  86  88
ENDBRANCH  59  84
ENDBRANCH  55  58
ENDBRANCH   1  55
TORSDOF 17
