REMARK  5 active torsions:
REMARK  status: ('A' for Active; 'I' for Inactive)
REMARK    1  A    between atoms: C1_1  and  S_7 
REMARK    2  A    between atoms: C4_4  and  C7_11 
REMARK    3  A    between atoms: S_7  and  N3_10 
REMARK    4  A    between atoms: C7_11  and  C8_12 
REMARK    5  A    between atoms: C8_12  and  C9_13 
ROOT
ATOM      1  C1  M28 d   1      -5.225   2.262  15.763  0.00  0.00     0.079 A 
ATOM      2  C2  M28 d   1      -6.036   3.329  15.374  0.00  0.00    -0.060 A 
ATOM      3  C3  M28 d   1      -5.510   4.347  14.603  0.00  0.00    -0.075 A 
ATOM      4  C4  M28 d   1      -4.173   4.381  14.254  0.00  0.00    -0.058 A 
ATOM      5  C5  M28 d   1      -3.380   3.314  14.660  0.00  0.00    -0.075 A 
ATOM      6  C6  M28 d   1      -3.887   2.239  15.377  0.00  0.00    -0.060 A 
ATOM      7  H1  M28 d   1      -7.077   3.359  15.676  0.00  0.00     0.085 H 
ATOM      8  H2  M28 d   1      -6.164   5.141  14.262  0.00  0.00     0.084 H 
ATOM      9  H3  M28 d   1      -2.326   3.322  14.407  0.00  0.00     0.084 H 
ATOM     10  H4  M28 d   1      -3.253   1.397  15.632  0.00  0.00     0.085 H 
ENDROOT
BRANCH   4  11
ATOM     11  C7  M28 d   1      -3.675   5.501  13.407  0.00  0.00    -0.032 C 
ATOM     12  H7  M28 d   1      -4.443   6.289  13.386  0.00  0.00     0.040 H 
ATOM     13  H8  M28 d   1      -3.512   5.120  12.388  0.00  0.00     0.040 H 
BRANCH  11  14
ATOM     14  C8  M28 d   1      -2.392   6.103  13.898  0.00  0.00     0.019 C 
ATOM     15  H9  M28 d   1      -1.651   5.293  13.970  0.00  0.00     0.049 H 
ATOM     16  H10 M28 d   1      -2.581   6.518  14.899  0.00  0.00     0.049 H 
BRANCH  14  17
ATOM     17  C9  M28 d   1      -1.788   7.201  13.055  0.00  0.00     0.172 C 
ATOM     18  O4  M28 d   1      -0.562   7.218  12.807  0.00  0.00    -0.648 OA
ATOM     19  O5  M28 d   1      -2.509   8.128  12.651  0.00  0.00    -0.648 OA
ENDBRANCH  14  17
ENDBRANCH  11  14
ENDBRANCH   4  11
BRANCH   1  20
ATOM     20  S   M28 d   1      -5.909   0.943  16.740  0.00  0.00     0.256 S 
ATOM     21  O1  M28 d   1      -7.341   1.056  16.607  0.00  0.00    -0.201 OA
ATOM     22  O2  M28 d   1      -5.345   1.132  18.068  0.00  0.00    -0.201 OA
BRANCH  20  23
ATOM     23  N3  M28 d   1      -5.405  -0.438  16.119  0.00  0.00    -0.324 N 
ATOM     24  H5  M28 d   1      -5.685  -1.304  16.533  0.00  0.00     0.169 HD
ATOM     25  H6  M28 d   1      -4.809  -0.437  15.316  0.00  0.00     0.169 HD
ENDBRANCH  20  23
ENDBRANCH   1  20
TORSDOF 5
