REMARK  17 active torsions:
REMARK  status: ('A' for Active; 'I' for Inactive)
REMARK    1  A    between atoms: C1_2  and  C2_4 
REMARK       I    between atoms: N2_13  and  C1_2 
REMARK    2  A    between atoms: C11_14  and  N2_13 
REMARK    3  A    between atoms: C12_15  and  C11_14 
REMARK    4  A    between atoms: C11_14  and  C13_17 
REMARK       I    between atoms: N4_24  and  C12_15 
REMARK    5  A    between atoms: C13_17  and  C14_18 
REMARK       I    between atoms: C14_18  and  N3_20 
REMARK    6  A    between atoms: C15_21  and  O4_22 
REMARK    7  A    between atoms: C16_23  and  C15_21 
REMARK    8  A    between atoms: C15_21  and  C24_33 
REMARK    9  A    between atoms: C16_23  and  N4_24 
REMARK   10  A    between atoms: C16_23  and  C17_25 
REMARK   11  A    between atoms: C17_25  and  C18_26 
REMARK   12  A    between atoms: C24_33  and  N5_32 
REMARK   13  A    between atoms: C25_34  and  C26_35 
REMARK       I    between atoms: C26_35  and  N6_45 
REMARK   14  A    between atoms: N6_45  and  C35_46 
REMARK   15  A    between atoms: C35_46  and  C36_47 
REMARK   16  A    between atoms: C35_46  and  C37_48 
REMARK   17  A    between atoms: C35_46  and  C38_49 
ROOT
ATOM      1  C15 ROC d   1      20.082  29.842  15.969  0.00  0.00     0.078 C 
ATOM      2  H13 ROC d   1      18.992  29.949  15.864  0.00  0.00     0.088 H 
ENDROOT
BRANCH   1   3
ATOM      3  O4  ROC d   1      20.262  29.404  17.302  0.00  0.00    -0.392 OA
ATOM      4  H14 ROC d   1      21.189  29.402  17.511  0.00  0.00     0.210 HD
ENDBRANCH   1   3
BRANCH   1   5
ATOM      5  C16 ROC d   1      20.593  31.241  15.658  0.00  0.00     0.042 C 
ATOM      6  H15 ROC d   1      20.447  31.458  14.589  0.00  0.00     0.077 H 
BRANCH   5   7
ATOM      7  N4  ROC d   1      19.835  32.188  16.425  0.00  0.00    -0.352 N 
ATOM      8  C12 ROC d   1      19.161  33.206  15.787  0.00  0.00     0.241 C 
ATOM      9  O2  ROC d   1      19.131  33.378  14.564  0.00  0.00    -0.271 OA
ATOM     10  H16 ROC d   1      19.796  32.109  17.421  0.00  0.00     0.163 HD
BRANCH   8  11
ATOM     11  C11 ROC d   1      18.425  34.151  16.717  0.00  0.00     0.097 C 
ATOM     12  H8  ROC d   1      18.305  33.680  17.704  0.00  0.00     0.088 H 
BRANCH  11  13
ATOM     13  N2  ROC d   1      19.277  35.343  16.875  0.00  0.00    -0.342 N 
ATOM     14  C1  ROC d   1      19.652  35.812  18.095  0.00  0.00     0.271 C 
ATOM     15  O1  ROC d   1      19.213  35.334  19.176  0.00  0.00    -0.266 OA
ATOM     16  H7  ROC d   1      19.590  35.824  16.056  0.00  0.00     0.163 HD
BRANCH  14  17
ATOM     17  C2  ROC d   1      20.579  36.951  18.097  0.00  0.00     0.125 A 
ATOM     18  N1  ROC d   1      20.725  37.654  16.930  0.00  0.00    -0.243 NA
ATOM     19  C10 ROC d   1      21.612  38.686  16.865  0.00  0.00     0.068 A 
ATOM     20  C5  ROC d   1      22.338  39.067  17.996  0.00  0.00    -0.007 A 
ATOM     21  C9R ROC d   1      21.618  39.449  15.701  0.00  0.00    -0.054 C 
ATOM     22  C4  ROC d   1      22.118  38.430  19.220  0.00  0.00    -0.068 A 
ATOM     23  C6  ROC d   1      23.135  40.228  17.954  0.00  0.00    -0.071 C 
ATOM     24  C3  ROC d   1      21.281  37.323  19.245  0.00  0.00    -0.049 A 
ATOM     25  H2  ROC d   1      22.589  38.791  20.127  0.00  0.00     0.085 H 
ATOM     26  H1  ROC d   1      21.172  36.747  20.157  0.00  0.00     0.087 H 
ATOM     27  C7  ROC d   1      23.189  40.906  16.769  0.00  0.00    -0.082 C 
ATOM     28  H3  ROC d   1      23.682  40.569  18.825  0.00  0.00     0.084 H 
ATOM     29  C8  ROC d   1      22.500  40.520  15.642  0.00  0.00    -0.081 C 
ATOM     30  H4  ROC d   1      23.807  41.795  16.714  0.00  0.00     0.083 H 
ATOM     31  H5  ROC d   1      22.646  41.052  14.709  0.00  0.00     0.083 H 
ATOM     32  H6  ROC d   1      20.959  39.216  14.872  0.00  0.00     0.087 H 
ENDBRANCH  14  17
ENDBRANCH  11  13
BRANCH  11  33
ATOM     33  C13 ROC d   1      17.075  34.403  16.167  0.00  0.00     0.036 C 
ATOM     34  H9  ROC d   1      16.502  33.464  16.142  0.00  0.00     0.051 H 
ATOM     35  H10 ROC d   1      17.158  34.809  15.148  0.00  0.00     0.051 H 
BRANCH  33  36
ATOM     36  C14 ROC d   1      16.392  35.383  17.043  0.00  0.00     0.217 C 
ATOM     37  O3  ROC d   1      16.131  36.578  16.907  0.00  0.00    -0.274 OA
ATOM     38  N3  ROC d   1      15.967  34.931  18.109  0.00  0.00    -0.370 N 
ATOM     39  H11 ROC d   1      15.494  35.532  18.754  0.00  0.00     0.159 HD
ATOM     40  H12 ROC d   1      16.095  33.964  18.329  0.00  0.00     0.159 HD
ENDBRANCH  33  36
ENDBRANCH  11  33
ENDBRANCH   8  11
ENDBRANCH   5   7
BRANCH   5  41
ATOM     41  C17 ROC d   1      22.103  31.283  15.969  0.00  0.00    -0.020 C 
ATOM     42  H17 ROC d   1      22.646  30.745  15.178  0.00  0.00     0.043 H 
ATOM     43  H18 ROC d   1      22.283  30.792  16.937  0.00  0.00     0.043 H 
BRANCH  41  44
ATOM     44  C18 ROC d   1      22.614  32.706  16.037  0.00  0.00    -0.056 C 
ATOM     45  C19 ROC d   1      23.094  33.333  14.895  0.00  0.00    -0.077 C 
ATOM     46  C21 ROC d   1      23.541  34.651  14.997  0.00  0.00    -0.082 C 
ATOM     47  H19 ROC d   1      23.121  32.810  13.946  0.00  0.00     0.084 H 
ATOM     48  C23 ROC d   1      23.464  35.307  16.177  0.00  0.00    -0.083 C 
ATOM     49  H21 ROC d   1      23.951  35.151  14.127  0.00  0.00     0.083 H 
ATOM     50  C22 ROC d   1      23.032  34.640  17.319  0.00  0.00    -0.082 C 
ATOM     51  H23 ROC d   1      23.739  36.354  16.233  0.00  0.00     0.083 H 
ATOM     52  C20 ROC d   1      22.681  33.302  17.254  0.00  0.00    -0.077 C 
ATOM     53  H22 ROC d   1      22.970  35.169  18.263  0.00  0.00     0.083 H 
ATOM     54  H20 ROC d   1      22.464  32.742  18.157  0.00  0.00     0.084 H 
ENDBRANCH  41  44
ENDBRANCH   5  41
ENDBRANCH   1   5
BRANCH   1  55
ATOM     55  C24 ROC d   1      20.433  28.743  15.002  0.00  0.00     0.110 C 
ATOM     56  H25 ROC d   1      20.208  27.768  15.460  0.00  0.00     0.080 H 
ATOM     57  H26 ROC d   1      21.505  28.797  14.762  0.00  0.00     0.080 H 
BRANCH  55  58
ATOM     58  N5  ROC d   1      19.679  28.888  13.815  0.00  0.00    -0.055 N 
ATOM     59  C25 ROC d   1      20.426  28.285  12.695  0.00  0.00     0.180 C 
ATOM     60  C27 ROC d   1      19.614  28.487  11.426  0.00  0.00    -0.026 C 
ATOM     61  H27 ROC d   1      20.571  27.213  12.892  0.00  0.00     0.100 H 
ATOM     62  C28 ROC d   1      18.288  27.723  11.534  0.00  0.00    -0.047 C 
ATOM     63  H28 ROC d   1      20.184  28.111  10.563  0.00  0.00     0.037 H 
ATOM     64  H29 ROC d   1      19.408  29.559  11.290  0.00  0.00     0.037 H 
ATOM     65  C29 ROC d   1      17.378  27.921  10.332  0.00  0.00    -0.061 C 
ATOM     66  C33 ROC d   1      17.537  28.234  12.770  0.00  0.00    -0.027 C 
ATOM     67  H30 ROC d   1      18.506  26.650  11.644  0.00  0.00     0.040 H 
ATOM     68  C30 ROC d   1      17.019  29.383  10.111  0.00  0.00    -0.065 C 
ATOM     69  H31 ROC d   1      16.451  27.350  10.492  0.00  0.00     0.033 H 
ATOM     70  H32 ROC d   1      17.891  27.544   9.435  0.00  0.00     0.033 H 
ATOM     71  C31 ROC d   1      16.159  29.749  11.296  0.00  0.00    -0.065 C 
ATOM     72  H33 ROC d   1      16.459  29.508   9.172  0.00  0.00     0.033 H 
ATOM     73  H34 ROC d   1      17.926  30.005  10.083  0.00  0.00     0.033 H 
ATOM     74  C32 ROC d   1      17.060  29.633  12.516  0.00  0.00    -0.060 C 
ATOM     75  H35 ROC d   1      15.309  29.056  11.381  0.00  0.00     0.033 H 
ATOM     76  H36 ROC d   1      15.784  30.778  11.194  0.00  0.00     0.033 H 
ATOM     77  H37 ROC d   1      16.500  29.976  13.398  0.00  0.00     0.033 H 
ATOM     78  H38 ROC d   1      17.937  30.279  12.365  0.00  0.00     0.033 H 
ATOM     79  C34 ROC d   1      18.392  28.207  13.983  0.00  0.00     0.088 C 
ATOM     80  H39 ROC d   1      16.666  27.585  12.944  0.00  0.00     0.043 H 
ATOM     81  H40 ROC d   1      17.846  28.695  14.803  0.00  0.00     0.076 H 
ATOM     82  H41 ROC d   1      18.587  27.157  14.246  0.00  0.00     0.076 H 
ATOM     83  H24 ROC d   1      19.522  29.866  13.628  0.00  0.00     0.281 HD
BRANCH  59  84
ATOM     84  C26 ROC d   1      21.772  28.942  12.462  0.00  0.00     0.249 C 
ATOM     85  O5  ROC d   1      21.821  30.169  12.479  0.00  0.00    -0.271 OA
ATOM     86  N6  ROC d   1      22.767  28.077  12.229  0.00  0.00    -0.351 N 
ATOM     87  H42 ROC d   1      22.546  27.102  12.262  0.00  0.00     0.163 HD
BRANCH  86  88
ATOM     88  C35 ROC d   1      24.138  28.440  11.933  0.00  0.00     0.022 C 
BRANCH  88  89
ATOM     89  C36 ROC d   1      24.907  27.114  11.727  0.00  0.00    -0.054 C 
ATOM     90  H43 ROC d   1      25.960  27.333  11.498  0.00  0.00     0.030 H 
ATOM     91  H44 ROC d   1      24.459  26.556  10.892  0.00  0.00     0.030 H 
ATOM     92  H45 ROC d   1      24.849  26.510  12.645  0.00  0.00     0.030 H 
ENDBRANCH  88  89
BRANCH  88  93
ATOM     93  C37 ROC d   1      24.783  29.118  13.113  0.00  0.00    -0.054 C 
ATOM     94  H46 ROC d   1      25.821  29.382  12.862  0.00  0.00     0.030 H 
ATOM     95  H47 ROC d   1      24.777  28.436  13.976  0.00  0.00     0.030 H 
ATOM     96  H48 ROC d   1      24.222  30.031  13.363  0.00  0.00     0.030 H 
ENDBRANCH  88  93
BRANCH  88  97
ATOM     97  C38 ROC d   1      24.239  29.307  10.709  0.00  0.00    -0.054 C 
ATOM     98  H49 ROC d   1      25.294  29.557  10.523  0.00  0.00     0.030 H 
ATOM     99  H50 ROC d   1      23.665  30.232  10.867  0.00  0.00     0.030 H 
ATOM    100  H51 ROC d   1      23.832  28.766   9.842  0.00  0.00     0.030 H 
ENDBRANCH  88  97
ENDBRANCH  86  88
ENDBRANCH  59  84
ENDBRANCH  55  58
ENDBRANCH   1  55
TORSDOF 17
