REMARK  9 active torsions:
REMARK  status: ('A' for Active; 'I' for Inactive)
REMARK    1  A    between atoms: C6_24  and  C2_2 
REMARK    2  A    between atoms: C9_6  and  C10_7 
REMARK    3  A    between atoms: O2_27  and  C9_6 
REMARK    4  A    between atoms: C11_8  and  O2_27 
REMARK    5  A    between atoms: C21_16  and  C15_12 
REMARK    6  A    between atoms: C19_14  and  C16_13 
REMARK    7  A    between atoms: C20_15  and  C21_16 
REMARK    8  A    between atoms: C18_31  and  C27_19 
REMARK    9  A    between atoms: C5_23  and  N_29 
ROOT
ATOM      1  C19 T4B d   1       3.049   6.975  17.958  0.00  0.00     0.030 A 
ATOM      2  C20 T4B d   1       2.893   7.704  16.807  0.00  0.00     0.050 A 
ATOM      3  N   T4B d   1       3.458   8.958  16.999  0.00  0.00    -0.236 N 
ATOM      4  N1  T4B d   1       3.996   9.000  18.323  0.00  0.00    -0.166 NA
ATOM      5  C18 T4B d   1       3.794   7.862  18.922  0.00  0.00     0.101 A 
ENDROOT
BRANCH   3   6
ATOM      6  C5  T4B d   1       3.545  10.061  16.090  0.00  0.00     0.069 A 
ATOM      7  C1  T4B d   1       2.360  10.621  15.513  0.00  0.00    -0.054 A 
ATOM      8  C   T4B d   1       2.456  11.710  14.608  0.00  0.00    -0.081 A 
ATOM      9  H1  T4B d   1       1.389  10.213  15.768  0.00  0.00     0.087 H 
ATOM     10  C8  T4B d   1       3.731  12.249  14.272  0.00  0.00    -0.082 A 
ATOM     11  H18 T4B d   1       1.558  12.132  14.172  0.00  0.00     0.083 H 
ATOM     12  C7  T4B d   1       4.916  11.707  14.838  0.00  0.00    -0.070 A 
ATOM     13  H4  T4B d   1       3.798  13.080  13.579  0.00  0.00     0.083 H 
ATOM     14  C6  T4B d   1       4.840  10.612  15.753  0.00  0.00     0.003 A 
ATOM     15  H3  T4B d   1       5.881  12.125  14.575  0.00  0.00     0.084 H 
BRANCH  14  16
ATOM     16  C2  T4B d   1       6.097  10.074  16.386  0.00  0.00    -0.021 A 
ATOM     17  C3  T4B d   1       6.437   8.690  16.258  0.00  0.00    -0.040 A 
ATOM     18  C11 T4B d   1       7.593   8.156  16.927  0.00  0.00     0.070 A 
ATOM     19  H2  T4B d   1       5.818   8.038  15.652  0.00  0.00     0.089 H 
ATOM     20  C12 T4B d   1       8.408   9.019  17.719  0.00  0.00    -0.051 A 
ATOM     21  C13 T4B d   1       8.078  10.400  17.842  0.00  0.00    -0.080 A 
ATOM     22  H7  T4B d   1       9.280   8.623  18.228  0.00  0.00     0.087 H 
ATOM     23  C14 T4B d   1       6.926  10.928  17.178  0.00  0.00    -0.072 A 
ATOM     24  H8  T4B d   1       8.702  11.053  18.441  0.00  0.00     0.083 H 
ATOM     25  H9  T4B d   1       6.681  11.979  17.276  0.00  0.00     0.084 H 
BRANCH  18  26
ATOM     26  O2  T4B d   1       7.938   6.818  16.802  0.00  0.00    -0.341 OA
BRANCH  26  27
ATOM     27  C9  T4B d   1       6.920   5.787  16.835  0.00  0.00     0.105 C 
ATOM     28  H5  T4B d   1       7.235   4.986  17.520  0.00  0.00     0.091 H 
ATOM     29  H6  T4B d   1       5.973   6.221  17.188  0.00  0.00     0.091 H 
BRANCH  27  30
ATOM     30  C10 T4B d   1       6.720   5.207  15.438  0.00  0.00     0.198 C 
ATOM     31  O   T4B d   1       7.275   5.719  14.468  0.00  0.00    -0.646 OA
ATOM     32  O1  T4B d   1       5.936   4.163  15.263  0.00  0.00    -0.646 OA
ENDBRANCH  27  30
ENDBRANCH  26  27
ENDBRANCH  18  26
ENDBRANCH  14  16
ENDBRANCH   3   6
BRANCH   2  33
ATOM     33  C21 T4B d   1       2.277   7.178  15.502  0.00  0.00    -0.027 C 
ATOM     34  H13 T4B d   1       1.763   6.226  15.704  0.00  0.00     0.041 H 
ATOM     35  H14 T4B d   1       1.551   7.913  15.124  0.00  0.00     0.041 H 
BRANCH  33  36
ATOM     36  C15 T4B d   1       3.359   6.949  14.440  0.00  0.00    -0.071 C 
ATOM     37  H10 T4B d   1       2.893   6.573  13.517  0.00  0.00     0.028 H 
ATOM     38  H11 T4B d   1       4.086   6.211  14.810  0.00  0.00     0.028 H 
ATOM     39  H12 T4B d   1       3.874   7.898  14.231  0.00  0.00     0.028 H 
ENDBRANCH  33  36
ENDBRANCH   2  33
BRANCH   1  40
ATOM     40  C16 T4B d   1       2.528   5.581  18.221  0.00  0.00    -0.022 A 
ATOM     41  C30 T4B d   1       1.127   5.290  18.064  0.00  0.00    -0.072 A 
ATOM     42  C29 T4B d   1       0.632   3.990  18.335  0.00  0.00    -0.082 A 
ATOM     43  H17 T4B d   1       0.448   6.069  17.737  0.00  0.00     0.084 H 
ATOM     44  C28 T4B d   1       1.521   2.969  18.768  0.00  0.00    -0.083 A 
ATOM     45  H25 T4B d   1      -0.423   3.775  18.212  0.00  0.00     0.083 H 
ATOM     46  C22 T4B d   1       2.907   3.244  18.929  0.00  0.00    -0.082 A 
ATOM     47  H24 T4B d   1       1.141   1.976  18.977  0.00  0.00     0.083 H 
ATOM     48  C17 T4B d   1       3.413   4.543  18.655  0.00  0.00    -0.072 A 
ATOM     49  H15 T4B d   1       3.579   2.461  19.262  0.00  0.00     0.083 H 
ATOM     50  H20 T4B d   1       4.471   4.748  18.775  0.00  0.00     0.084 H 
ENDBRANCH   1  40
BRANCH   5  51
ATOM     51  C27 T4B d   1       4.341   7.555  20.276  0.00  0.00    -0.005 A 
ATOM     52  C4  T4B d   1       5.686   7.941  20.570  0.00  0.00    -0.071 A 
ATOM     53  C26 T4B d   1       6.238   7.695  21.861  0.00  0.00    -0.082 A 
ATOM     54  H19 T4B d   1       6.288   8.423  19.808  0.00  0.00     0.084 H 
ATOM     55  C25 T4B d   1       5.447   7.062  22.858  0.00  0.00    -0.083 A 
ATOM     56  H23 T4B d   1       7.258   7.990  22.082  0.00  0.00     0.083 H 
ATOM     57  C24 T4B d   1       4.106   6.674  22.575  0.00  0.00    -0.082 A 
ATOM     58  H22 T4B d   1       5.867   6.873  23.840  0.00  0.00     0.083 H 
ATOM     59  C23 T4B d   1       3.550   6.918  21.288  0.00  0.00    -0.071 A 
ATOM     60  H16 T4B d   1       3.509   6.192  23.341  0.00  0.00     0.083 H 
ATOM     61  H21 T4B d   1       2.529   6.622  21.073  0.00  0.00     0.084 H 
ENDBRANCH   5  51
TORSDOF 9
