REMARK  6 active torsions:
REMARK  status: ('A' for Active; 'I' for Inactive)
REMARK    1  A    between atoms: C1_1  and  S_7 
REMARK    2  A    between atoms: C4_4  and  C7_11 
REMARK    3  A    between atoms: S_7  and  N1_10 
REMARK    4  A    between atoms: C7_11  and  C8_12 
REMARK    5  A    between atoms: C8_12  and  N2_13 
REMARK       I    between atoms: N2_13  and  C9_14 
REMARK    6  A    between atoms: C9_14  and  C10_15 
ROOT
ATOM      1  C1  M25 d   1      -5.260   2.377  15.807  0.00  0.00     0.079 A 
ATOM      2  C2  M25 d   1      -3.921   2.378  15.443  0.00  0.00    -0.060 A 
ATOM      3  C3  M25 d   1      -3.441   3.456  14.695  0.00  0.00    -0.075 A 
ATOM      4  C4  M25 d   1      -4.250   4.532  14.315  0.00  0.00    -0.057 A 
ATOM      5  C5  M25 d   1      -5.581   4.489  14.674  0.00  0.00    -0.075 A 
ATOM      6  C6  M25 d   1      -6.125   3.434  15.418  0.00  0.00    -0.060 A 
ATOM      7  H1  M25 d   1      -3.265   1.564  15.731  0.00  0.00     0.085 H 
ATOM      8  H2  M25 d   1      -2.399   3.459  14.397  0.00  0.00     0.084 H 
ATOM      9  H3  M25 d   1      -6.230   5.302  14.369  0.00  0.00     0.084 H 
ATOM     10  H4  M25 d   1      -7.175   3.425  15.689  0.00  0.00     0.085 H 
ENDROOT
BRANCH   4  11
ATOM     11  C7  M25 d   1      -3.719   5.627  13.433  0.00  0.00    -0.026 C 
ATOM     12  H7  M25 d   1      -4.564   6.215  13.045  0.00  0.00     0.042 H 
ATOM     13  H8  M25 d   1      -3.170   5.175  12.593  0.00  0.00     0.042 H 
BRANCH  11  14
ATOM     14  C8  M25 d   1      -2.768   6.566  14.206  0.00  0.00    -0.001 C 
ATOM     15  H9  M25 d   1      -1.872   6.004  14.507  0.00  0.00     0.064 H 
ATOM     16  H10 M25 d   1      -3.283   6.942  15.102  0.00  0.00     0.064 H 
BRANCH  14  17
ATOM     17  N2  M25 d   1      -2.367   7.697  13.374  0.00  0.00    -0.361 N 
ATOM     18  C9  M25 d   1      -1.595   8.689  13.821  0.00  0.00     0.213 C 
ATOM     19  O3  M25 d   1      -1.137   8.679  14.977  0.00  0.00    -0.274 OA
ATOM     20  H11 M25 d   1      -2.685   7.729  12.427  0.00  0.00     0.162 HD
BRANCH  18  21
ATOM     21  C10 M25 d   1      -1.300   9.787  12.846  0.00  0.00    -0.003 C 
ATOM     22  H12 M25 d   1      -0.659  10.541  13.326  0.00  0.00     0.040 H 
ATOM     23  H13 M25 d   1      -2.242  10.256  12.526  0.00  0.00     0.040 H 
ATOM     24  H14 M25 d   1      -0.782   9.370  11.970  0.00  0.00     0.040 H 
ENDBRANCH  18  21
ENDBRANCH  14  17
ENDBRANCH  11  14
ENDBRANCH   4  11
BRANCH   1  25
ATOM     25  S   M25 d   1      -5.935   1.031  16.774  0.00  0.00     0.256 S 
ATOM     26  O1  M25 d   1      -7.383   1.115  16.654  0.00  0.00    -0.201 OA
ATOM     27  O2  M25 d   1      -5.364   1.205  18.120  0.00  0.00    -0.201 OA
BRANCH  25  28
ATOM     28  N1  M25 d   1      -5.474  -0.346  16.115  0.00  0.00    -0.324 N 
ATOM     29  H5  M25 d   1      -5.758  -1.214  16.521  0.00  0.00     0.169 HD
ATOM     30  H6  M25 d   1      -4.901  -0.341  15.295  0.00  0.00     0.169 HD
ENDBRANCH  25  28
ENDBRANCH   1  25
TORSDOF 6
