REMARK  8 active torsions:
REMARK  status: ('A' for Active; 'I' for Inactive)
REMARK    1  A    between atoms: C1_1  and  S_7 
REMARK    2  A    between atoms: C4_4  and  C7_11 
REMARK    3  A    between atoms: S_7  and  N_10 
REMARK    4  A    between atoms: C7_11  and  C8_12 
REMARK    5  A    between atoms: C8_12  and  C9_13 
REMARK    6  A    between atoms: C9_13  and  O3_14 
REMARK    7  A    between atoms: O3_14  and  C10_16 
REMARK    8  A    between atoms: C10_16  and  C11_17 
ROOT
ATOM      1  C1  M29 d   1      -5.271   2.067  15.736  0.00  0.00     0.079 A 
ATOM      2  C2  M29 d   1      -6.094   3.136  15.335  0.00  0.00    -0.060 A 
ATOM      3  C3  M29 d   1      -5.585   4.165  14.564  0.00  0.00    -0.075 A 
ATOM      4  C4  M29 d   1      -4.254   4.170  14.193  0.00  0.00    -0.058 A 
ATOM      5  C5  M29 d   1      -3.424   3.134  14.577  0.00  0.00    -0.075 A 
ATOM      6  C6  M29 d   1      -3.940   2.062  15.333  0.00  0.00    -0.060 A 
ATOM      7  H1  M29 d   1      -7.136   3.153  15.633  0.00  0.00     0.085 H 
ATOM      8  H2  M29 d   1      -6.235   4.973  14.248  0.00  0.00     0.084 H 
ATOM      9  H3  M29 d   1      -2.377   3.146  14.297  0.00  0.00     0.084 H 
ATOM     10  H4  M29 d   1      -3.297   1.231  15.601  0.00  0.00     0.085 H 
ENDROOT
BRANCH   4  11
ATOM     11  C7  M29 d   1      -3.710   5.303  13.384  0.00  0.00    -0.033 C 
ATOM     12  H7  M29 d   1      -4.545   5.933  13.043  0.00  0.00     0.040 H 
ATOM     13  H8  M29 d   1      -3.177   4.897  12.512  0.00  0.00     0.040 H 
BRANCH  11  14
ATOM     14  C8  M29 d   1      -2.757   6.146  14.193  0.00  0.00     0.019 C 
ATOM     15  H9  M29 d   1      -1.917   5.500  14.488  0.00  0.00     0.048 H 
ATOM     16  H10 M29 d   1      -3.296   6.480  15.092  0.00  0.00     0.048 H 
BRANCH  14  17
ATOM     17  C9  M29 d   1      -2.176   7.364  13.543  0.00  0.00     0.259 C 
ATOM     18  O4  M29 d   1      -2.487   7.681  12.441  0.00  0.00    -0.265 OA
BRANCH  17  19
ATOM     19  O3  M29 d   1      -1.315   8.050  14.336  0.00  0.00    -0.322 OA
BRANCH  19  20
ATOM     20  C10 M29 d   1      -0.895   9.332  13.831  0.00  0.00     0.025 C 
ATOM     21  H11 M29 d   1      -1.768   9.944  13.560  0.00  0.00     0.074 H 
ATOM     22  H12 M29 d   1      -0.248   9.206  12.950  0.00  0.00     0.074 H 
BRANCH  20  23
ATOM     23  C11 M29 d   1      -0.123   9.980  14.971  0.00  0.00    -0.056 C 
ATOM     24  H13 M29 d   1       0.232  10.972  14.656  0.00  0.00     0.030 H 
ATOM     25  H14 M29 d   1       0.738   9.349  15.236  0.00  0.00     0.030 H 
ATOM     26  H15 M29 d   1      -0.782  10.087  15.845  0.00  0.00     0.030 H 
ENDBRANCH  20  23
ENDBRANCH  19  20
ENDBRANCH  17  19
ENDBRANCH  14  17
ENDBRANCH  11  14
ENDBRANCH   4  11
BRANCH   1  27
ATOM     27  S   M29 d   1      -5.940   0.754  16.716  0.00  0.00     0.256 S 
ATOM     28  O1  M29 d   1      -7.382   0.879  16.592  0.00  0.00    -0.201 OA
ATOM     29  O2  M29 d   1      -5.373   0.966  18.040  0.00  0.00    -0.201 OA
BRANCH  27  30
ATOM     30  N   M29 d   1      -5.450  -0.654  16.103  0.00  0.00    -0.324 N 
ATOM     31  H5  M29 d   1      -5.734  -1.512  16.532  0.00  0.00     0.169 HD
ATOM     32  H6  M29 d   1      -4.862  -0.670  15.294  0.00  0.00     0.169 HD
ENDBRANCH  27  30
ENDBRANCH   1  27
TORSDOF 8
