REMARK  6 active torsions:
REMARK  status: ('A' for Active; 'I' for Inactive)
REMARK    1  A    between atoms: C1_1  and  N14_14 
REMARK    2  A    between atoms: C3_3  and  N7_7 
REMARK    3  A    between atoms: N7_7  and  C8_8 
REMARK    4  A    between atoms: C9_9  and  C22_22 
REMARK    5  A    between atoms: N14_14  and  C15_15 
REMARK    6  A    between atoms: C19_19  and  O21_21 
REMARK       I    between atoms: C22_22  and  N23_23 
ROOT
ATOM      1  C1  859 d   1      17.771 107.535  51.061  0.00  0.00     0.728 A 
ATOM      2  N2  859 d   1      18.881 107.079  50.470  0.00  0.00    -0.045 NA
ATOM      3  C3  859 d   1      18.875 106.666  49.193  0.00  0.00     0.148 A 
ATOM      4  C4  859 d   1      17.695 106.699  48.452  0.00  0.00    -0.021 A 
ATOM      5  C5  859 d   1      16.555 107.192  49.119  0.00  0.00     0.025 A 
ATOM      6  N6  859 d   1      16.596 107.602  50.420  0.00  0.00    -0.075 NA
ATOM      7  H1  859 d   1      17.656 106.365  47.422  0.00  0.00     0.091 H 
ATOM      8  H2  859 d   1      15.616 107.247  48.581  0.00  0.00     0.115 H 
ENDROOT
BRANCH   3   9
ATOM      9  N7  859 d   1      20.036 106.183  48.648  0.00  0.00    -0.340 N 
ATOM     10  H3  859 d   1      19.934 105.864  47.674  0.00  0.00     0.167 HD
BRANCH   9  11
ATOM     11  C8  859 d   1      21.342 106.037  49.158  0.00  0.00     0.049 A 
ATOM     12  C9  859 d   1      22.342 105.433  48.330  0.00  0.00     0.058 A 
ATOM     13  C10 859 d   1      23.663 105.264  48.823  0.00  0.00    -0.066 A 
ATOM     14  C11 859 d   1      24.020 105.694  50.118  0.00  0.00    -0.082 A 
ATOM     15  H4  859 d   1      24.410 104.796  48.193  0.00  0.00     0.085 H 
ATOM     16  C12 859 d   1      23.061 106.283  50.943  0.00  0.00    -0.081 A 
ATOM     17  H5  859 d   1      25.037 105.567  50.471  0.00  0.00     0.083 H 
ATOM     18  C13 859 d   1      21.758 106.451  50.468  0.00  0.00    -0.056 A 
ATOM     19  H6  859 d   1      23.325 106.607  51.943  0.00  0.00     0.083 H 
ATOM     20  H7  859 d   1      21.027 106.916  51.119  0.00  0.00     0.086 H 
BRANCH  12  21
ATOM     21  C22 859 d   1      22.017 104.947  46.966  0.00  0.00     0.251 C 
ATOM     22  N23 859 d   1      23.010 104.364  46.273  0.00  0.00    -0.366 N 
ATOM     23  H14 859 d   1      22.840 104.020  45.349  0.00  0.00     0.159 HD
ATOM     24  H15 859 d   1      23.919 104.274  46.681  0.00  0.00     0.159 HD
ATOM     25  O24 859 d   1      20.905 105.046  46.460  0.00  0.00    -0.268 OA
ENDBRANCH  12  21
ENDBRANCH   9  11
ENDBRANCH   3   9
BRANCH   1  26
ATOM     26  N14 859 d   1      17.821 107.934  52.372  0.00  0.00    -0.188 N 
ATOM     27  H8  859 d   1      16.915 108.199  52.784  0.00  0.00     0.184 HD
BRANCH  26  28
ATOM     28  C15 859 d   1      18.908 108.034  53.226  0.00  0.00     0.052 A 
ATOM     29  C16 859 d   1      18.903 109.096  54.160  0.00  0.00    -0.057 A 
ATOM     30  C17 859 d   1      19.966 109.277  55.074  0.00  0.00    -0.078 A 
ATOM     31  H9  859 d   1      18.067 109.785  54.175  0.00  0.00     0.086 H 
ATOM     32  C18 859 d   1      21.075 108.388  55.072  0.00  0.00    -0.051 A 
ATOM     33  H10 859 d   1      19.935 110.099  55.781  0.00  0.00     0.083 H 
ATOM     34  C19 859 d   1      21.110 107.322  54.153  0.00  0.00     0.067 A 
ATOM     35  H11 859 d   1      21.889 108.530  55.774  0.00  0.00     0.087 H 
ATOM     36  C20 859 d   1      20.038 107.151  53.248  0.00  0.00    -0.025 A 
ATOM     37  H12 859 d   1      20.071 106.325  52.547  0.00  0.00     0.091 H 
BRANCH  34  38
ATOM     38  O21 859 d   1      22.191 106.451  54.138  0.00  0.00    -0.361 OA
ATOM     39  H13 859 d   1      22.814 106.710  54.806  0.00  0.00     0.217 HD
ENDBRANCH  34  38
ENDBRANCH  26  28
ENDBRANCH   1  26
TORSDOF 6
