REMARK  7 active torsions:
REMARK  status: ('A' for Active; 'I' for Inactive)
REMARK    1  A    between atoms: C26_2  and  C28_3 
REMARK       I    between atoms: C26_2  and  N25_6 
REMARK    2  A    between atoms: N25_6  and  C21_7 
REMARK    3  A    between atoms: C19_12  and  N18_13 
REMARK    4  A    between atoms: N18_13  and  C16_14 
REMARK    5  A    between atoms: C12_19  and  N11_20 
REMARK    6  A    between atoms: N11_20  and  C1_21 
REMARK    7  A    between atoms: C5_23  and  C7_24 
ROOT
ATOM      1  C16 CC3 d   1      -4.099  31.926  -8.081  0.00  0.00     0.728 A 
ATOM      2  N15 CC3 d   1      -4.040  32.020  -9.430  0.00  0.00    -0.075 NA
ATOM      3  C14 CC3 d   1      -4.680  31.147 -10.217  0.00  0.00     0.025 A 
ATOM      4  C13 CC3 d   1      -5.429  30.122  -9.651  0.00  0.00    -0.021 A 
ATOM      5  N17 CC3 d   1      -4.822  30.933  -7.506  0.00  0.00    -0.045 NA
ATOM      6  C12 CC3 d   1      -5.495  30.026  -8.262  0.00  0.00     0.148 A 
ATOM      7  H12 CC3 d   1      -4.614  31.239 -11.295  0.00  0.00     0.115 H 
ATOM      8  H13 CC3 d   1      -5.952  29.410 -10.279  0.00  0.00     0.091 H 
ENDROOT
BRANCH   1   9
ATOM      9  N18 CC3 d   1      -3.420  32.855  -7.363  0.00  0.00    -0.188 N 
ATOM     10  H11 CC3 d   1      -2.938  33.576  -7.918  0.00  0.00     0.184 HD
BRANCH   9  11
ATOM     11  C19 CC3 d   1      -3.285  32.970  -6.017  0.00  0.00     0.051 A 
ATOM     12  C20 CC3 d   1      -2.474  34.002  -5.547  0.00  0.00    -0.031 A 
ATOM     13  C21 CC3 d   1      -2.270  34.202  -4.185  0.00  0.00     0.036 A 
ATOM     14  H7  CC3 d   1      -1.992  34.663  -6.258  0.00  0.00     0.090 H 
ATOM     15  C22 CC3 d   1      -2.903  33.345  -3.280  0.00  0.00    -0.057 A 
ATOM     16  C23 CC3 d   1      -3.711  32.304  -3.729  0.00  0.00    -0.079 A 
ATOM     17  H8  CC3 d   1      -2.763  33.493  -2.215  0.00  0.00     0.086 H 
ATOM     18  C24 CC3 d   1      -3.902  32.120  -5.100  0.00  0.00    -0.057 A 
ATOM     19  H9  CC3 d   1      -4.189  31.640  -3.018  0.00  0.00     0.083 H 
ATOM     20  H10 CC3 d   1      -4.533  31.312  -5.453  0.00  0.00     0.086 H 
BRANCH  13  21
ATOM     21  N25 CC3 d   1      -1.482  35.248  -3.799  0.00  0.00    -0.327 N 
ATOM     22  C26 CC3 d   1      -0.828  35.364  -2.632  0.00  0.00     0.226 C 
ATOM     23  O27 CC3 d   1      -0.904  34.551  -1.714  0.00  0.00    -0.273 OA
ATOM     24  H6  CC3 d   1      -1.382  36.001  -4.449  0.00  0.00     0.169 HD
BRANCH  22  25
ATOM     25  C28 CC3 d   1       0.068  36.568  -2.484  0.00  0.00     0.024 A 
ATOM     26  C30 CC3 d   1      -0.735  37.868  -2.540  0.00  0.00    -0.053 A 
ATOM     27  C29 CC3 d   1      -0.258  37.321  -1.199  0.00  0.00    -0.053 A 
ATOM     28  H2  CC3 d   1      -1.805  37.843  -2.795  0.00  0.00     0.034 H 
ATOM     29  H3  CC3 d   1      -0.280  38.779  -2.956  0.00  0.00     0.034 H 
ATOM     30  H4  CC3 d   1       0.541  37.838  -0.647  0.00  0.00     0.034 H 
ATOM     31  H5  CC3 d   1      -0.984  36.903  -0.486  0.00  0.00     0.034 H 
ATOM     32  H1  CC3 d   1       1.081  36.447  -2.896  0.00  0.00     0.054 H 
ENDBRANCH  22  25
ENDBRANCH  13  21
ENDBRANCH   9  11
ENDBRANCH   1   9
BRANCH   6  33
ATOM     33  N11 CC3 d   1      -6.236  29.023  -7.724  0.00  0.00    -0.340 N 
ATOM     34  H14 CC3 d   1      -6.644  28.350  -8.388  0.00  0.00     0.167 HD
BRANCH  33  35
ATOM     35  C1  CC3 d   1      -6.500  28.806  -6.407  0.00  0.00     0.034 A 
ATOM     36  C6  CC3 d   1      -7.242  27.675  -6.075  0.00  0.00    -0.043 A 
ATOM     37  C5  CC3 d   1      -7.548  27.385  -4.744  0.00  0.00     0.050 A 
ATOM     38  H15 CC3 d   1      -7.586  27.012  -6.860  0.00  0.00     0.088 H 
ATOM     39  C4  CC3 d   1      -7.101  28.238  -3.728  0.00  0.00    -0.068 A 
ATOM     40  C3  CC3 d   1      -6.359  29.371  -4.050  0.00  0.00    -0.080 A 
ATOM     41  H16 CC3 d   1      -7.332  28.017  -2.692  0.00  0.00     0.084 H 
ATOM     42  C2  CC3 d   1      -6.065  29.649  -5.382  0.00  0.00    -0.057 A 
ATOM     43  H17 CC3 d   1      -6.011  30.034  -3.266  0.00  0.00     0.083 H 
ATOM     44  H18 CC3 d   1      -5.489  30.534  -5.628  0.00  0.00     0.086 H 
BRANCH  37  45
ATOM     45  C7  CC3 d   1      -8.345  26.146  -4.414  0.00  0.00     0.417 C 
ATOM     46  F10 CC3 d   1      -9.193  25.860  -5.398  0.00  0.00    -0.166 F 
ATOM     47  F9  CC3 d   1      -7.489  25.144  -4.283  0.00  0.00    -0.166 F 
ATOM     48  F8  CC3 d   1      -9.025  26.311  -3.282  0.00  0.00    -0.166 F 
ENDBRANCH  37  45
ENDBRANCH  33  35
ENDBRANCH   6  33
TORSDOF 7
