REMARK  28 active torsions:
REMARK  status: ('A' for Active; 'I' for Inactive)
REMARK    1  A    between atoms: C11_1  and  C12_2 
REMARK    2  A    between atoms: C11_1  and  C14_3 
REMARK    3  A    between atoms: C11_1  and  C13_4 
REMARK    4  A    between atoms: C10_5  and  C11_1 
REMARK    5  A    between atoms: C12_2  and  O6A_49 
REMARK    6  A    between atoms: C10_5  and  O10_6 
REMARK    7  A    between atoms: C9P_50  and  C10_5 
REMARK       I    between atoms: NAA_9  and  CAB_8 
REMARK    8  A    between atoms: CAB_8  and  CAC_10 
REMARK    9  A    between atoms: C2P_59  and  NAA_9 
REMARK   10  A    between atoms: CAC_10  and  CAF_11 
REMARK   11  A    between atoms: CAJ_14  and  OAL_15 
REMARK   12  A    between atoms: CAH_17  and  OAK_18 
REMARK   13  A    between atoms: C6A_24  and  N6A_25 
REMARK   14  A    between atoms: C1'_29  and  N9A_28 
REMARK   15  A    between atoms: C2'_30  and  O2'_31 
REMARK   16  A    between atoms: C3'_32  and  O3'_33 
REMARK   17  A    between atoms: O3'_33  and  P3'_34 
REMARK   18  A    between atoms: C5'_40  and  C4'_38 
REMARK   19  A    between atoms: O5'_41  and  C5'_40 
REMARK   20  A    between atoms: P1A_42  and  O5'_41 
REMARK   21  A    between atoms: O3A_45  and  P1A_42 
REMARK   22  A    between atoms: P2A_46  and  O3A_45 
REMARK   23  A    between atoms: O6A_49  and  P2A_46 
REMARK       I    between atoms: N8P_52  and  C9P_50 
REMARK   24  A    between atoms: C7P_53  and  N8P_52 
REMARK   25  A    between atoms: C6P_54  and  C7P_53 
REMARK   26  A    between atoms: C5P_55  and  C6P_54 
REMARK       I    between atoms: N4P_57  and  C5P_55 
REMARK   27  A    between atoms: C3P_58  and  N4P_57 
REMARK   28  A    between atoms: C3P_58  and  C2P_59 
ROOT
ATOM      1  C11 YE1 d   1     -86.888 -17.441 -29.633  0.00  0.00     0.009 C 
ENDROOT
BRANCH   1   2
ATOM      2  C12 YE1 d   1     -86.214 -18.819 -29.571  0.00  0.00     0.041 C 
ATOM      3  H1  YE1 d   1     -86.980 -19.600 -29.688  0.00  0.00     0.076 H 
ATOM      4  H2  YE1 d   1     -85.719 -18.934 -28.595  0.00  0.00     0.076 H 
BRANCH   2   5
ATOM      5  O6A YE1 d   1     -85.228 -18.962 -30.622  0.00  0.00    -0.289 OA
BRANCH   5   6
ATOM      6  P2A YE1 d   1     -84.897 -20.547 -30.828  0.00  0.00     0.417 P 
ATOM      7  O4A YE1 d   1     -84.343 -20.100 -32.152  0.00  0.00    -0.624 OA
ATOM      8  O5A YE1 d   1     -83.971 -21.092 -29.794  0.00  0.00    -0.624 OA
BRANCH   6   9
ATOM      9  O3A YE1 d   1     -86.252 -21.423 -30.964  0.00  0.00    -0.180 OA
BRANCH   9  10
ATOM     10  P1A YE1 d   1     -87.132 -21.514 -32.216  0.00  0.00     0.417 P 
ATOM     11  O1A YE1 d   1     -87.296 -20.255 -32.991  0.00  0.00    -0.624 OA
ATOM     12  O2A YE1 d   1     -86.650 -22.548 -33.158  0.00  0.00    -0.624 OA
BRANCH  10  13
ATOM     13  O5' YE1 d   1     -88.478 -21.863 -31.470  0.00  0.00    -0.287 OA
BRANCH  13  14
ATOM     14  C5' YE1 d   1     -88.659 -23.043 -30.705  0.00  0.00     0.058 C 
ATOM     15  H28 YE1 d   1     -87.962 -23.829 -31.032  0.00  0.00     0.079 H 
ATOM     16  H29 YE1 d   1     -88.507 -22.840 -29.635  0.00  0.00     0.079 H 
BRANCH  14  17
ATOM     17  C4' YE1 d   1     -90.087 -23.450 -30.974  0.00  0.00     0.090 C 
ATOM     18  C3' YE1 d   1     -90.501 -23.365 -32.458  0.00  0.00     0.107 C 
ATOM     19  C2' YE1 d   1     -91.185 -22.003 -32.489  0.00  0.00     0.106 C 
ATOM     20  H26 YE1 d   1     -89.611 -23.355 -33.104  0.00  0.00     0.092 H 
ATOM     21  C1' YE1 d   1     -91.876 -21.960 -31.142  0.00  0.00     0.140 C 
ATOM     22  H24 YE1 d   1     -90.440 -21.198 -32.576  0.00  0.00     0.093 H 
ATOM     23  O4' YE1 d   1     -90.999 -22.571 -30.245  0.00  0.00    -0.353 OA
ATOM     24  H23 YE1 d   1     -92.855 -22.460 -31.159  0.00  0.00     0.122 H 
ATOM     25  H27 YE1 d   1     -90.217 -24.486 -30.629  0.00  0.00     0.090 H 
BRANCH  18  26
ATOM     26  O3' YE1 d   1     -91.335 -24.466 -32.877  0.00  0.00    -0.272 OA
BRANCH  26  27
ATOM     27  P3' YE1 d   1     -91.304 -24.575 -34.403  0.00  0.00     0.422 P 
ATOM     28  O7A YE1 d   1     -92.189 -25.742 -34.848  0.00  0.00    -0.617 OA
ATOM     29  O8A YE1 d   1     -89.866 -24.814 -34.869  0.00  0.00    -0.617 OA
ATOM     30  O9A YE1 d   1     -91.828 -23.274 -35.017  0.00  0.00    -0.617 OA
ENDBRANCH  26  27
ENDBRANCH  18  26
BRANCH  19  31
ATOM     31  O2' YE1 d   1     -92.140 -21.874 -33.564  0.00  0.00    -0.388 OA
ATOM     32  H25 YE1 d   1     -92.765 -22.588 -33.518  0.00  0.00     0.210 HD
ENDBRANCH  19  31
BRANCH  21  33
ATOM     33  N9A YE1 d   1     -91.997 -20.559 -30.795  0.00  0.00    -0.294 N 
ATOM     34  C4A YE1 d   1     -93.164 -19.827 -30.908  0.00  0.00     0.167 A 
ATOM     35  N3A YE1 d   1     -94.398 -20.263 -31.321  0.00  0.00    -0.222 NA
ATOM     36  C5A YE1 d   1     -92.818 -18.550 -30.524  0.00  0.00     0.149 A 
ATOM     37  C2A YE1 d   1     -95.288 -19.310 -31.315  0.00  0.00     0.091 A 
ATOM     38  N1A YE1 d   1     -95.109 -18.005 -30.923  0.00  0.00    -0.222 NA
ATOM     39  H19 YE1 d   1     -96.281 -19.577 -31.658  0.00  0.00     0.146 H 
ATOM     40  C6A YE1 d   1     -93.865 -17.599 -30.528  0.00  0.00     0.155 A 
ATOM     41  N7A YE1 d   1     -91.464 -18.462 -30.169  0.00  0.00    -0.236 NA
ATOM     42  C8A YE1 d   1     -91.020 -19.712 -30.337  0.00  0.00     0.071 A 
ATOM     43  H22 YE1 d   1     -89.996 -20.023 -30.133  0.00  0.00     0.144 H 
BRANCH  40  44
ATOM     44  N6A YE1 d   1     -93.717 -16.344 -30.170  0.00  0.00    -0.382 N 
ATOM     45  H20 YE1 d   1     -92.795 -16.000 -29.866  0.00  0.00     0.157 HD
ATOM     46  H21 YE1 d   1     -94.523 -15.703 -30.193  0.00  0.00     0.157 HD
ENDBRANCH  40  44
ENDBRANCH  21  33
ENDBRANCH  14  17
ENDBRANCH  13  14
ENDBRANCH  10  13
ENDBRANCH   9  10
ENDBRANCH   6   9
ENDBRANCH   5   6
ENDBRANCH   2   5
ENDBRANCH   1   2
BRANCH   1  47
ATOM     47  C14 YE1 d   1     -85.832 -16.355 -29.702  0.00  0.00    -0.065 C 
ATOM     48  H3  YE1 d   1     -86.321 -15.371 -29.746  0.00  0.00     0.028 H 
ATOM     49  H4  YE1 d   1     -85.216 -16.499 -30.602  0.00  0.00     0.028 H 
ATOM     50  H5  YE1 d   1     -85.193 -16.407 -28.808  0.00  0.00     0.028 H 
ENDBRANCH   1  47
BRANCH   1  51
ATOM     51  C13 YE1 d   1     -87.649 -17.293 -28.316  0.00  0.00    -0.065 C 
ATOM     52  H6  YE1 d   1     -88.421 -18.074 -28.249  0.00  0.00     0.028 H 
ATOM     53  H7  YE1 d   1     -88.126 -16.302 -28.277  0.00  0.00     0.028 H 
ATOM     54  H8  YE1 d   1     -86.948 -17.396 -27.474  0.00  0.00     0.028 H 
ENDBRANCH   1  51
BRANCH   1  55
ATOM     55  C10 YE1 d   1     -87.856 -17.464 -30.840  0.00  0.00     0.120 C 
ATOM     56  H9  YE1 d   1     -87.283 -17.699 -31.749  0.00  0.00     0.099 H 
BRANCH  55  57
ATOM     57  O10 YE1 d   1     -88.844 -18.507 -30.648  0.00  0.00    -0.385 OA
ATOM     58  H10 YE1 d   1     -89.334 -18.335 -29.852  0.00  0.00     0.210 HD
ENDBRANCH  55  57
BRANCH  55  59
ATOM     59  C9P YE1 d   1     -88.488 -16.072 -31.019  0.00  0.00     0.247 C 
ATOM     60  O9P YE1 d   1     -87.851 -15.108 -31.531  0.00  0.00    -0.271 OA
ATOM     61  N8P YE1 d   1     -89.806 -15.843 -30.609  0.00  0.00    -0.358 N 
ATOM     62  H30 YE1 d   1     -90.407 -16.525 -30.192  0.00  0.00     0.162 HD
BRANCH  61  63
ATOM     63  C7P YE1 d   1     -90.172 -14.447 -30.885  0.00  0.00     0.003 C 
ATOM     64  H31 YE1 d   1     -91.015 -14.369 -31.588  0.00  0.00     0.064 H 
ATOM     65  H32 YE1 d   1     -89.322 -13.861 -31.265  0.00  0.00     0.064 H 
BRANCH  63  66
ATOM     66  C6P YE1 d   1     -90.561 -14.044 -29.477  0.00  0.00     0.024 C 
ATOM     67  H33 YE1 d   1     -89.671 -13.774 -28.890  0.00  0.00     0.049 H 
ATOM     68  H34 YE1 d   1     -91.098 -14.861 -28.974  0.00  0.00     0.049 H 
BRANCH  66  69
ATOM     69  C5P YE1 d   1     -91.458 -12.852 -29.658  0.00  0.00     0.219 C 
ATOM     70  O5P YE1 d   1     -91.091 -11.910 -30.348  0.00  0.00    -0.274 OA
ATOM     71  N4P YE1 d   1     -92.665 -12.778 -28.955  0.00  0.00    -0.359 N 
ATOM     72  H35 YE1 d   1     -93.028 -13.490 -28.354  0.00  0.00     0.162 HD
BRANCH  71  73
ATOM     73  C3P YE1 d   1     -93.287 -11.552 -29.223  0.00  0.00     0.010 C 
ATOM     74  H36 YE1 d   1     -94.125 -11.710 -29.917  0.00  0.00     0.066 H 
ATOM     75  H37 YE1 d   1     -92.559 -10.864 -29.677  0.00  0.00     0.066 H 
BRANCH  73  76
ATOM     76  C2P YE1 d   1     -93.816 -10.946 -27.910  0.00  0.00     0.009 C 
ATOM     77  H38 YE1 d   1     -94.333 -11.724 -27.329  0.00  0.00     0.066 H 
ATOM     78  H39 YE1 d   1     -92.974 -10.550 -27.324  0.00  0.00     0.066 H 
BRANCH  76  79
ATOM     79  NAA YE1 d   1     -94.678  -9.947 -28.191  0.00  0.00    -0.370 N 
ATOM     80  CAB YE1 d   1     -95.676  -9.911 -27.209  0.00  0.00     0.155 C 
ATOM     81  OAD YE1 d   1     -95.654 -10.847 -26.141  0.00  0.00    -0.177 OA
ATOM     82  H11 YE1 d   1     -94.615  -9.330 -28.976  0.00  0.00     0.161 HD
BRANCH  80  83
ATOM     83  CAC YE1 d   1     -96.792  -8.829 -27.326  0.00  0.00     0.021 C 
ATOM     84  H12 YE1 d   1     -97.312  -8.984 -28.283  0.00  0.00     0.052 H 
ATOM     85  H13 YE1 d   1     -96.305  -7.843 -27.329  0.00  0.00     0.052 H 
BRANCH  83  86
ATOM     86  CAF YE1 d   1     -97.825  -8.828 -26.236  0.00  0.00    -0.045 A 
ATOM     87  CAG YE1 d   1     -98.556  -7.675 -25.933  0.00  0.00    -0.044 A 
ATOM     88  CAH YE1 d   1     -99.500  -7.693 -24.906  0.00  0.00     0.068 A 
ATOM     89  H14 YE1 d   1     -98.389  -6.765 -26.498  0.00  0.00     0.088 H 
ATOM     90  CAI YE1 d   1     -99.711  -8.859 -24.174  0.00  0.00    -0.019 A 
ATOM     91  CAJ YE1 d   1     -98.983 -10.006 -24.477  0.00  0.00     0.068 A 
ATOM     92  H17 YE1 d   1    -100.439  -8.873 -23.371  0.00  0.00     0.092 H 
ATOM     93  CAE YE1 d   1     -98.051  -9.993 -25.506  0.00  0.00    -0.044 A 
ATOM     94  H15 YE1 d   1     -97.496 -10.894 -25.743  0.00  0.00     0.088 H 
BRANCH  88  95
ATOM     95  OAK YE1 d   1    -100.227  -6.580 -24.627  0.00  0.00    -0.361 OA
ATOM     96  H18 YE1 d   1    -101.150  -6.767 -24.750  0.00  0.00     0.217 HD
ENDBRANCH  88  95
BRANCH  91  97
ATOM     97  OAL YE1 d   1     -99.133 -11.120 -23.727  0.00  0.00    -0.361 OA
ATOM     98  H16 YE1 d   1     -98.310 -11.326 -23.300  0.00  0.00     0.217 HD
ENDBRANCH  91  97
ENDBRANCH  83  86
ENDBRANCH  80  83
ENDBRANCH  76  79
ENDBRANCH  73  76
ENDBRANCH  71  73
ENDBRANCH  66  69
ENDBRANCH  63  66
ENDBRANCH  61  63
ENDBRANCH  55  59
ENDBRANCH   1  55
TORSDOF 28
