REMARK  7 active torsions:
REMARK  status: ('A' for Active; 'I' for Inactive)
REMARK       I    between atoms: C4_9  and  N2_3 
REMARK    1  A    between atoms: N4_5  and  C9_14 
REMARK       I    between atoms: C10_15  and  N4_5 
REMARK    2  A    between atoms: C5_10  and  C4_9 
REMARK    3  A    between atoms: O3_22  and  C10_15 
REMARK    4  A    between atoms: C11_16  and  C12_17 
REMARK    5  A    between atoms: C11_16  and  C13_18 
REMARK    6  A    between atoms: C11_16  and  C14_19 
REMARK    7  A    between atoms: C11_16  and  O3_22 
ROOT
ATOM      1  N3  HM4 d   1      43.443  21.876  37.473  0.00  0.00    -0.253 NA
ATOM      2  C5  HM4 d   1      43.956  20.959  38.347  0.00  0.00     0.151 A 
ATOM      3  C6  HM4 d   1      42.648  22.888  37.830  0.00  0.00     0.003 A 
ATOM      4  C7  HM4 d   1      42.313  23.038  39.176  0.00  0.00    -0.064 A 
ATOM      5  C8  HM4 d   1      42.795  22.145  40.150  0.00  0.00    -0.053 A 
ATOM      6  C9  HM4 d   1      43.672  21.026  39.724  0.00  0.00     0.071 A 
ATOM      7  H5  HM4 d   1      42.270  23.581  37.087  0.00  0.00     0.114 H 
ATOM      8  H6  HM4 d   1      41.670  23.857  39.477  0.00  0.00     0.085 H 
ATOM      9  H7  HM4 d   1      42.531  22.272  41.194  0.00  0.00     0.087 H 
ENDROOT
BRANCH   6  10
ATOM     10  N4  HM4 d   1      44.240  20.075  40.539  0.00  0.00    -0.300 N 
ATOM     11  C10 HM4 d   1      44.166  19.912  41.896  0.00  0.00     0.366 C 
ATOM     12  O2  HM4 d   1      43.545  20.640  42.586  0.00  0.00    -0.238 OA
ATOM     13  H2  HM4 d   1      44.796  19.393  40.064  0.00  0.00     0.171 HD
BRANCH  11  14
ATOM     14  O3  HM4 d   1      44.857  18.874  42.410  0.00  0.00    -0.294 OA
BRANCH  14  15
ATOM     15  C11 HM4 d   1      44.930  18.521  43.804  0.00  0.00     0.061 C 
BRANCH  15  16
ATOM     16  C12 HM4 d   1      45.831  17.325  43.769  0.00  0.00    -0.048 C 
ATOM     17  H8  HM4 d   1      45.975  16.945  44.791  0.00  0.00     0.031 H 
ATOM     18  H9  HM4 d   1      46.804  17.611  43.343  0.00  0.00     0.031 H 
ATOM     19  H10 HM4 d   1      45.375  16.541  43.147  0.00  0.00     0.031 H 
ENDBRANCH  15  16
BRANCH  15  20
ATOM     20  C13 HM4 d   1      43.454  18.067  44.276  0.00  0.00    -0.048 C 
ATOM     21  H11 HM4 d   1      42.791  18.945  44.302  0.00  0.00     0.031 H 
ATOM     22  H12 HM4 d   1      43.511  17.621  45.280  0.00  0.00     0.031 H 
ATOM     23  H13 HM4 d   1      43.054  17.326  43.568  0.00  0.00     0.031 H 
ENDBRANCH  15  20
BRANCH  15  24
ATOM     24  C14 HM4 d   1      45.697  19.533  44.654  0.00  0.00    -0.048 C 
ATOM     25  H14 HM4 d   1      46.677  19.730  44.194  0.00  0.00     0.031 H 
ATOM     26  H15 HM4 d   1      45.842  19.127  45.666  0.00  0.00     0.031 H 
ATOM     27  H16 HM4 d   1      45.124  20.470  44.714  0.00  0.00     0.031 H 
ENDBRANCH  15  24
ENDBRANCH  14  15
ENDBRANCH  11  14
ENDBRANCH   6  10
BRANCH   2  28
ATOM     28  C4  HM4 d   1      44.807  19.885  37.792  0.00  0.00     0.278 C 
ATOM     29  N2  HM4 d   1      45.078  20.002  36.481  0.00  0.00    -0.300 N 
ATOM     30  C3  HM4 d   1      46.014  19.252  35.863  0.00  0.00     0.173 A 
ATOM     31  H1  HM4 d   1      44.566  20.671  35.942  0.00  0.00     0.171 HD
ATOM     32  S   HM4 d   1      46.649  17.776  36.407  0.00  0.00    -0.062 SA
ATOM     33  N1  HM4 d   1      46.563  19.582  34.743  0.00  0.00    -0.236 NA
ATOM     34  C1  HM4 d   1      47.665  17.582  35.111  0.00  0.00    -0.025 A 
ATOM     35  C2  HM4 d   1      47.481  18.703  34.276  0.00  0.00     0.011 A 
ATOM     36  H3  HM4 d   1      48.344  16.748  34.938  0.00  0.00     0.097 H 
ATOM     37  H4  HM4 d   1      48.025  18.848  33.344  0.00  0.00     0.115 H 
ATOM     38  O1  HM4 d   1      45.295  18.969  38.475  0.00  0.00    -0.265 OA
ENDBRANCH   2  28
TORSDOF 7
