REMARK  6 active torsions:
REMARK  status: ('A' for Active; 'I' for Inactive)
REMARK       I    between atoms: C4_9  and  N2_3 
REMARK    1  A    between atoms: C9_14  and  N4_5 
REMARK       I    between atoms: N4_5  and  C10_15 
REMARK    2  A    between atoms: C5_10  and  C4_9 
REMARK    3  A    between atoms: C10_15  and  C11_16 
REMARK    4  A    between atoms: C11_16  and  C12_17 
REMARK    5  A    between atoms: C11_16  and  C13_18 
REMARK    6  A    between atoms: C11_16  and  C14_19 
ROOT
ATOM      1  N3  HM5 d   1      12.346  29.171  20.363  0.00  0.00    -0.253 NA
ATOM      2  C5  HM5 d   1      13.093  30.270  20.727  0.00  0.00     0.151 A 
ATOM      3  C6  HM5 d   1      12.979  28.210  19.539  0.00  0.00     0.003 A 
ATOM      4  C7  HM5 d   1      14.230  28.273  19.116  0.00  0.00    -0.064 A 
ATOM      5  C8  HM5 d   1      15.009  29.407  19.496  0.00  0.00    -0.053 A 
ATOM      6  C9  HM5 d   1      14.460  30.449  20.315  0.00  0.00     0.069 A 
ATOM      7  H5  HM5 d   1      12.391  27.354  19.230  0.00  0.00     0.114 H 
ATOM      8  H6  HM5 d   1      14.651  27.487  18.499  0.00  0.00     0.085 H 
ATOM      9  H7  HM5 d   1      16.037  29.482  19.159  0.00  0.00     0.087 H 
ENDROOT
BRANCH   6  10
ATOM     10  N4  HM5 d   1      15.141  31.584  20.751  0.00  0.00    -0.324 N 
ATOM     11  C10 HM5 d   1      16.440  32.090  20.597  0.00  0.00     0.229 C 
ATOM     12  O2  HM5 d   1      17.341  31.407  20.164  0.00  0.00    -0.272 OA
ATOM     13  H2  HM5 d   1      14.565  32.182  21.308  0.00  0.00     0.169 HD
BRANCH  11  14
ATOM     14  C11 HM5 d   1      16.690  33.573  21.028  0.00  0.00     0.030 C 
BRANCH  14  15
ATOM     15  C12 HM5 d   1      15.410  34.258  21.555  0.00  0.00    -0.061 C 
ATOM     16  H8  HM5 d   1      15.641  35.294  21.843  0.00  0.00     0.029 H 
ATOM     17  H9  HM5 d   1      15.034  33.709  22.431  0.00  0.00     0.029 H 
ATOM     18  H10 HM5 d   1      14.643  34.259  20.766  0.00  0.00     0.029 H 
ENDBRANCH  14  15
BRANCH  14  19
ATOM     19  C13 HM5 d   1      17.236  34.389  19.829  0.00  0.00    -0.061 C 
ATOM     20  H11 HM5 d   1      18.149  33.910  19.445  0.00  0.00     0.029 H 
ATOM     21  H12 HM5 d   1      17.470  35.412  20.158  0.00  0.00     0.029 H 
ATOM     22  H13 HM5 d   1      16.477  34.424  19.033  0.00  0.00     0.029 H 
ENDBRANCH  14  19
BRANCH  14  23
ATOM     23  C14 HM5 d   1      17.745  33.586  22.155  0.00  0.00    -0.061 C 
ATOM     24  H14 HM5 d   1      17.371  33.010  23.014  0.00  0.00     0.029 H 
ATOM     25  H15 HM5 d   1      17.937  34.624  22.465  0.00  0.00     0.029 H 
ATOM     26  H16 HM5 d   1      18.678  33.134  21.789  0.00  0.00     0.029 H 
ENDBRANCH  14  23
ENDBRANCH  11  14
ENDBRANCH   6  10
BRANCH   2  27
ATOM     27  C4  HM5 d   1      12.433  31.293  21.598  0.00  0.00     0.278 C 
ATOM     28  N2  HM5 d   1      11.160  30.966  21.978  0.00  0.00    -0.300 N 
ATOM     29  C3  HM5 d   1      10.302  31.658  22.771  0.00  0.00     0.173 A 
ATOM     30  H1  HM5 d   1      10.814  30.098  21.623  0.00  0.00     0.171 HD
ATOM     31  S   HM5 d   1      10.721  33.217  23.285  0.00  0.00    -0.062 SA
ATOM     32  N1  HM5 d   1       9.133  31.247  23.177  0.00  0.00    -0.236 NA
ATOM     33  C1  HM5 d   1       9.239  33.352  24.142  0.00  0.00    -0.025 A 
ATOM     34  C2  HM5 d   1       8.533  32.199  23.960  0.00  0.00     0.011 A 
ATOM     35  H3  HM5 d   1       8.918  34.211  24.730  0.00  0.00     0.097 H 
ATOM     36  H4  HM5 d   1       7.553  32.044  24.409  0.00  0.00     0.115 H 
ATOM     37  O1  HM5 d   1      12.978  32.310  21.973  0.00  0.00    -0.265 OA
ENDBRANCH   2  27
TORSDOF 6
