REMARK  21 active torsions:
REMARK  status: ('A' for Active; 'I' for Inactive)
REMARK    1  A    between atoms: CAA_1  and  CAS_2 
REMARK    2  A    between atoms: CAS_2  and  OBE_3 
REMARK    3  A    between atoms: OBE_3  and  CBL_4 
REMARK    4  A    between atoms: CBL_4  and  CBT_6 
REMARK    5  A    between atoms: CBT_6  and  CBS_7 
REMARK    6  A    between atoms: CBS_7  and  OAL_8 
REMARK    7  A    between atoms: CBS_7  and  CBK_9 
REMARK       I    between atoms: CBK_9  and  N_11 
REMARK    8  A    between atoms: N_11  and  CA_12 
REMARK    9  A    between atoms: CA_12  and  CB_13 
REMARK   10  A    between atoms: CA_12  and  C_17 
REMARK   11  A    between atoms: CB_13  and  CAT_14 
REMARK       I    between atoms: C_17  and  NBA_19 
REMARK   12  A    between atoms: NBA_19  and  CBQ_20 
REMARK   13  A    between atoms: CBQ_20  and  CAX_21 
REMARK   14  A    between atoms: CBQ_20  and  CBJ_28 
REMARK   15  A    between atoms: CAX_21  and  CAU_22 
REMARK   16  A    between atoms: CAU_22  and  CAV_23 
REMARK   17  A    between atoms: CAV_23  and  NAZ_24 
REMARK       I    between atoms: NAZ_24  and  CBG_25 
REMARK       I    between atoms: CBG_25  and  NAE_26 
REMARK       I    between atoms: CBJ_28  and  NBB_30 
REMARK   18  A    between atoms: NBB_30  and  CBR_31 
REMARK   19  A    between atoms: CBR_31  and  CBH_32 
REMARK   20  A    between atoms: CBR_31  and  CAY_35 
REMARK       I    between atoms: CBH_32  and  NAF_34 
REMARK   21  A    between atoms: CAY_35  and  CBM_36 
ROOT
ATOM      1  CAT NQG d   1      15.268   3.742 -22.870  0.00  0.00     0.017 C 
ATOM      2  CAM NQG d   1      15.648   3.319 -21.508  0.00  0.00     0.059 C 
ATOM      3  NAC NQG d   1      15.902   3.096 -20.413  0.00  0.00    -0.197 NA
ATOM      4  H14 NQG d   1      15.745   3.055 -23.585  0.00  0.00     0.055 H 
ATOM      5  H15 NQG d   1      14.175   3.662 -22.958  0.00  0.00     0.055 H 
ENDROOT
BRANCH   1   6
ATOM      6  CB  NQG d   1      15.677   5.194 -23.252  0.00  0.00    -0.027 C 
ATOM      7  H12 NQG d   1      16.776   5.240 -23.284  0.00  0.00     0.038 H 
ATOM      8  H13 NQG d   1      15.272   5.409 -24.252  0.00  0.00     0.038 H 
BRANCH   6   9
ATOM      9  CA  NQG d   1      15.180   6.301 -22.286  0.00  0.00     0.090 C 
ATOM     10  H11 NQG d   1      15.549   6.079 -21.274  0.00  0.00     0.087 H 
BRANCH   9  11
ATOM     11  N   NQG d   1      13.691   6.307 -22.272  0.00  0.00    -0.346 N 
ATOM     12  CBK NQG d   1      12.969   6.188 -21.161  0.00  0.00     0.247 C 
ATOM     13  OAJ NQG d   1      13.476   6.090 -20.055  0.00  0.00    -0.271 OA
ATOM     14  H10 NQG d   1      13.209   6.406 -23.143  0.00  0.00     0.163 HD
BRANCH  12  15
ATOM     15  CBS NQG d   1      11.442   6.198 -21.322  0.00  0.00     0.120 C 
ATOM     16  H8  NQG d   1      11.016   6.682 -20.431  0.00  0.00     0.098 H 
BRANCH  15  17
ATOM     17  CBT NQG d   1      10.843   4.756 -21.398  0.00  0.00     0.048 C 
ATOM     18  H6  NQG d   1      11.185   4.271 -22.324  0.00  0.00     0.052 H 
ATOM     19  H7  NQG d   1      11.189   4.175 -20.530  0.00  0.00     0.052 H 
BRANCH  17  20
ATOM     20  CBL NQG d   1       9.283   4.806 -21.392  0.00  0.00     0.261 C 
ATOM     21  OAK NQG d   1       8.671   5.458 -20.538  0.00  0.00    -0.265 OA
BRANCH  20  22
ATOM     22  OBE NQG d   1       8.546   4.102 -22.308  0.00  0.00    -0.322 OA
BRANCH  22  23
ATOM     23  CAS NQG d   1       7.266   4.828 -22.621  0.00  0.00     0.025 C 
ATOM     24  H4  NQG d   1       7.193   5.665 -21.911  0.00  0.00     0.074 H 
ATOM     25  H5  NQG d   1       7.365   5.222 -23.643  0.00  0.00     0.074 H 
BRANCH  23  26
ATOM     26  CAA NQG d   1       5.930   4.079 -22.562  0.00  0.00    -0.056 C 
ATOM     27  H1  NQG d   1       5.112   4.768 -22.820  0.00  0.00     0.030 H 
ATOM     28  H2  NQG d   1       5.774   3.688 -21.546  0.00  0.00     0.030 H 
ATOM     29  H3  NQG d   1       5.946   3.244 -23.278  0.00  0.00     0.030 H 
ENDBRANCH  23  26
ENDBRANCH  22  23
ENDBRANCH  20  22
ENDBRANCH  17  20
ENDBRANCH  15  17
BRANCH  15  30
ATOM     30  OAL NQG d   1      11.079   6.990 -22.468  0.00  0.00    -0.386 OA
ATOM     31  H9  NQG d   1      11.460   7.856 -22.386  0.00  0.00     0.210 HD
ENDBRANCH  15  30
ENDBRANCH  12  15
ENDBRANCH   9  11
BRANCH   9  32
ATOM     32  C   NQG d   1      15.702   7.707 -22.710  0.00  0.00     0.241 C 
ATOM     33  O   NQG d   1      14.944   8.478 -23.302  0.00  0.00    -0.271 OA
ATOM     34  NBA NQG d   1      16.972   8.067 -22.421  0.00  0.00    -0.346 N 
ATOM     35  H16 NQG d   1      17.232   8.982 -22.729  0.00  0.00     0.163 HD
BRANCH  34  36
ATOM     36  CBQ NQG d   1      18.050   7.310 -21.712  0.00  0.00     0.089 C 
ATOM     37  H17 NQG d   1      17.610   6.725 -20.891  0.00  0.00     0.087 H 
BRANCH  36  38
ATOM     38  CAX NQG d   1      18.789   6.329 -22.673  0.00  0.00    -0.036 C 
ATOM     39  H18 NQG d   1      19.674   6.854 -23.062  0.00  0.00     0.036 H 
ATOM     40  H19 NQG d   1      18.103   6.103 -23.503  0.00  0.00     0.036 H 
BRANCH  38  41
ATOM     41  CAU NQG d   1      19.272   4.979 -22.092  0.00  0.00    -0.048 C 
ATOM     42  H20 NQG d   1      18.422   4.482 -21.602  0.00  0.00     0.035 H 
ATOM     43  H21 NQG d   1      20.059   5.177 -21.349  0.00  0.00     0.035 H 
BRANCH  41  44
ATOM     44  CAV NQG d   1      19.847   4.022 -23.185  0.00  0.00     0.009 C 
ATOM     45  H22 NQG d   1      20.074   3.042 -22.740  0.00  0.00     0.064 H 
ATOM     46  H23 NQG d   1      20.765   4.452 -23.611  0.00  0.00     0.064 H 
BRANCH  44  47
ATOM     47  NAZ NQG d   1      18.828   3.867 -24.245  0.00  0.00    -0.227 N 
ATOM     48  CBG NQG d   1      18.526   2.790 -25.006  0.00  0.00     0.665 C 
ATOM     49  NAE NQG d   1      17.522   2.929 -25.874  0.00  0.00    -0.235 N 
ATOM     50  NAD NQG d   1      19.169   1.616 -24.933  0.00  0.00    -0.235 N 
ATOM     51  H25 NQG d   1      17.250   2.140 -26.478  0.00  0.00     0.174 HD
ATOM     52  H26 NQG d   1      17.019   3.825 -25.940  0.00  0.00     0.174 HD
ATOM     53  H27 NQG d   1      19.946   1.495 -24.267  0.00  0.00     0.174 HD
ATOM     54  H28 NQG d   1      18.886   0.835 -25.542  0.00  0.00     0.174 HD
ATOM     55  H24 NQG d   1      18.262   4.707 -24.433  0.00  0.00     0.177 HD
ENDBRANCH  44  47
ENDBRANCH  41  44
ENDBRANCH  38  41
ENDBRANCH  36  38
BRANCH  36  56
ATOM     56  CBJ NQG d   1      19.017   8.387 -21.123  0.00  0.00     0.241 C 
ATOM     57  OAI NQG d   1      20.246   8.308 -21.245  0.00  0.00    -0.271 OA
ATOM     58  NBB NQG d   1      18.406   9.394 -20.482  0.00  0.00    -0.346 N 
ATOM     59  H29 NQG d   1      17.408   9.376 -20.428  0.00  0.00     0.163 HD
BRANCH  58  60
ATOM     60  CBR NQG d   1      19.112  10.532 -19.848  0.00  0.00     0.093 C 
ATOM     61  H30 NQG d   1      19.700  11.056 -20.616  0.00  0.00     0.088 H 
BRANCH  60  62
ATOM     62  CBH NQG d   1      20.093  10.061 -18.727  0.00  0.00     0.238 C 
ATOM     63  OAG NQG d   1      19.727   9.329 -17.803  0.00  0.00    -0.271 OA
ATOM     64  NAF NQG d   1      21.350  10.500 -18.842  0.00  0.00    -0.368 N 
ATOM     65  H31 NQG d   1      22.035  10.240 -18.161  0.00  0.00     0.159 HD
ATOM     66  H32 NQG d   1      21.606  11.089 -19.609  0.00  0.00     0.159 HD
ENDBRANCH  60  62
BRANCH  60  67
ATOM     67  CAY NQG d   1      18.044  11.495 -19.296  0.00  0.00    -0.012 C 
ATOM     68  H33 NQG d   1      18.447  11.988 -18.399  0.00  0.00     0.044 H 
ATOM     69  H34 NQG d   1      17.152  10.911 -19.025  0.00  0.00     0.044 H 
BRANCH  67  70
ATOM     70  CBM NQG d   1      17.631  12.580 -20.308  0.00  0.00    -0.028 A 
ATOM     71  CBO NQG d   1      16.927  12.423 -21.510  0.00  0.00    -0.002 A 
ATOM     72  CAQ NQG d   1      16.388  11.323 -22.191  0.00  0.00    -0.070 A 
ATOM     73  CBN NQG d   1      16.801  13.708 -22.060  0.00  0.00     0.042 A 
ATOM     74  CAO NQG d   1      15.730  11.517 -23.410  0.00  0.00    -0.082 A 
ATOM     75  H35 NQG d   1      16.481  10.326 -21.775  0.00  0.00     0.084 H 
ATOM     76  CAN NQG d   1      15.605  12.799 -23.958  0.00  0.00    -0.081 A 
ATOM     77  H36 NQG d   1      15.313  10.666 -23.936  0.00  0.00     0.083 H 
ATOM     78  CAP NQG d   1      16.140  13.898 -23.282  0.00  0.00    -0.056 A 
ATOM     79  H37 NQG d   1      15.095  12.938 -24.904  0.00  0.00     0.083 H 
ATOM     80  H38 NQG d   1      16.045  14.893 -23.700  0.00  0.00     0.086 H 
ATOM     81  NBD NQG d   1      17.395  14.562 -21.215  0.00  0.00    -0.365 N 
ATOM     82  CAR NQG d   1      17.887  13.887 -20.167  0.00  0.00    -0.015 A 
ATOM     83  H39 NQG d   1      17.463  15.581 -21.350  0.00  0.00     0.165 HD
ATOM     84  H40 NQG d   1      18.416  14.334 -19.327  0.00  0.00     0.112 H 
ENDBRANCH  67  70
ENDBRANCH  60  67
ENDBRANCH  58  60
ENDBRANCH  36  56
ENDBRANCH  34  36
ENDBRANCH   9  32
ENDBRANCH   6   9
ENDBRANCH   1   6
TORSDOF 21
