REMARK  4 active torsions:
REMARK  status: ('A' for Active; 'I' for Inactive)
REMARK    1  A    between atoms: O4_1  and  C4_2 
REMARK    2  A    between atoms: C3_3  and  O3_4 
REMARK    3  A    between atoms: C5_8  and  C6_9 
REMARK    4  A    between atoms: C6_9  and  O6_10 
ROOT
ATOM      1  C4  IFM d   1      10.821 -10.835  40.293  0.00  0.00     0.069 C 
ATOM      2  C3  IFM d   1      12.224 -10.322  40.637  0.00  0.00     0.084 C 
ATOM      3  C2  IFM d   1      12.117  -8.976  41.325  0.00  0.00     0.107 C 
ATOM      4  N   IFM d   1      11.217  -8.122  40.542  0.00  0.00    -0.072 N 
ATOM      5  C1  IFM d   1       9.904  -8.567  40.079  0.00  0.00     0.089 C 
ATOM      6  C5  IFM d   1      10.089  -9.889  39.352  0.00  0.00     0.017 C 
ATOM      7  H2  IFM d   1      10.249 -10.927  41.228  0.00  0.00     0.087 H 
ATOM      8  H3  IFM d   1      12.806 -10.217  39.710  0.00  0.00     0.089 H 
ATOM      9  H5  IFM d   1      13.112  -8.510  41.385  0.00  0.00     0.079 H 
ATOM     10  H6  IFM d   1      11.713  -9.109  42.339  0.00  0.00     0.079 H 
ATOM     11  H7  IFM d   1      11.730  -7.862  39.714  0.00  0.00     0.277 HD
ATOM     12  H8  IFM d   1      11.050  -7.303  41.105  0.00  0.00     0.277 HD
ATOM     13  H9  IFM d   1       9.476  -7.820  39.394  0.00  0.00     0.076 H 
ATOM     14  H10 IFM d   1       9.231  -8.704  40.938  0.00  0.00     0.076 H 
ATOM     15  H11 IFM d   1      10.717  -9.722  38.464  0.00  0.00     0.049 H 
ENDROOT
BRANCH   6  16
ATOM     16  C6  IFM d   1       8.737 -10.457  38.876  0.00  0.00     0.024 C 
ATOM     17  H12 IFM d   1       8.907 -11.332  38.232  0.00  0.00     0.074 H 
ATOM     18  H13 IFM d   1       8.188  -9.688  38.313  0.00  0.00     0.074 H 
BRANCH  16  19
ATOM     19  O6  IFM d   1       7.979 -10.846  40.037  0.00  0.00    -0.400 OA
ATOM     20  H14 IFM d   1       8.460 -11.508  40.521  0.00  0.00     0.209 HD
ENDBRANCH  16  19
ENDBRANCH   6  16
BRANCH   1  21
ATOM     21  O4  IFM d   1      10.872 -12.099  39.653  0.00  0.00    -0.392 OA
ATOM     22  H1  IFM d   1      11.290 -12.728  40.230  0.00  0.00     0.210 HD
ENDBRANCH   1  21
BRANCH   2  23
ATOM     23  O3  IFM d   1      12.895 -11.229  41.517  0.00  0.00    -0.391 OA
ATOM     24  H4  IFM d   1      12.973 -12.077  41.096  0.00  0.00     0.210 HD
ENDBRANCH   2  23
TORSDOF 4
