REMARK  4 active torsions:
REMARK  status: ('A' for Active; 'I' for Inactive)
REMARK    1  A    between atoms: C7_7  and  C17_18 
REMARK    2  A    between atoms: C10_10  and  C11_11 
REMARK    3  A    between atoms: C14_14  and  O1_17 
REMARK    4  A    between atoms: N1_19  and  O2_20 
ROOT
ATOM      1  C1  555 d   1      31.030  39.493  36.775  0.00  0.00    -0.082 A 
ATOM      2  C2  555 d   1      29.819  39.644  37.449  0.00  0.00    -0.082 A 
ATOM      3  C3  555 d   1      29.395  38.650  38.329  0.00  0.00    -0.071 A 
ATOM      4  C4  555 d   1      30.172  37.427  38.594  0.00  0.00    -0.014 A 
ATOM      5  C5  555 d   1      31.461  37.283  37.873  0.00  0.00    -0.013 A 
ATOM      6  C6  555 d   1      31.824  38.353  36.979  0.00  0.00    -0.071 A 
ATOM      7  C7  555 d   1      32.276  36.086  38.107  0.00  0.00    -0.005 A 
ATOM      8  C8  555 d   1      31.829  35.079  39.011  0.00  0.00    -0.070 A 
ATOM      9  C9  555 d   1      30.595  35.208  39.685  0.00  0.00    -0.070 A 
ATOM     10  C10 555 d   1      29.734  36.348  39.515  0.00  0.00    -0.015 A 
ATOM     11  H1  555 d   1      31.362  40.263  36.087  0.00  0.00     0.083 H 
ATOM     12  H2  555 d   1      29.212  40.528  37.290  0.00  0.00     0.083 H 
ATOM     13  H3  555 d   1      28.450  38.783  38.842  0.00  0.00     0.084 H 
ATOM     14  H4  555 d   1      32.759  38.274  36.436  0.00  0.00     0.084 H 
ATOM     15  H5  555 d   1      32.444  34.203  39.183  0.00  0.00     0.084 H 
ATOM     16  H6  555 d   1      30.284  34.417  40.357  0.00  0.00     0.084 H 
ENDROOT
BRANCH  10  17
ATOM     17  C11 555 d   1      28.438  36.305  40.322  0.00  0.00    -0.025 A 
ATOM     18  C12 555 d   1      28.491  36.142  41.751  0.00  0.00    -0.070 A 
ATOM     19  C13 555 d   1      27.305  36.080  42.517  0.00  0.00    -0.050 A 
ATOM     20  H7  555 d   1      29.453  36.066  42.246  0.00  0.00     0.085 H 
ATOM     21  C14 555 d   1      26.045  36.180  41.878  0.00  0.00     0.065 A 
ATOM     22  H8  555 d   1      27.360  35.956  43.593  0.00  0.00     0.087 H 
ATOM     23  C15 555 d   1      25.946  36.342  40.478  0.00  0.00    -0.050 A 
ATOM     24  C16 555 d   1      27.120  36.394  39.703  0.00  0.00    -0.070 A 
ATOM     25  H9  555 d   1      24.974  36.425  40.005  0.00  0.00     0.087 H 
ATOM     26  H10 555 d   1      27.043  36.502  38.627  0.00  0.00     0.085 H 
BRANCH  21  27
ATOM     27  O1  555 d   1      24.893  36.111  42.591  0.00  0.00    -0.361 OA
ATOM     28  H11 555 d   1      25.098  36.003  43.512  0.00  0.00     0.217 HD
ENDBRANCH  21  27
ENDBRANCH  10  17
BRANCH   7  29
ATOM     29  C17 555 d   1      33.592  35.811  37.430  0.00  0.00     0.039 C 
ATOM     30  N1  555 d   1      34.401  36.732  36.995  0.00  0.00    -0.148 NA
ATOM     31  H12 555 d   1      33.886  34.771  37.295  0.00  0.00     0.119 H 
BRANCH  30  32
ATOM     32  O2  555 d   1      35.523  36.134  36.408  0.00  0.00    -0.266 OA
ATOM     33  H13 555 d   1      36.111  36.809  36.092  0.00  0.00     0.247 HD
ENDBRANCH  30  32
ENDBRANCH   7  29
TORSDOF 4
