REMARK  3 active torsions:
REMARK  status: ('A' for Active; 'I' for Inactive)
REMARK    1  A    between atoms: C3_3  and  C30_21 
REMARK    2  A    between atoms: C4_4  and  N12_10 
REMARK    3  A    between atoms: C17_14  and  O25_17 
ROOT
ATOM      1 CL1  8NH d   1      23.517   5.263   4.399  0.00  0.00    -0.082 Cl
ATOM      2  C2  8NH d   1      25.270   4.792   4.318  0.00  0.00     0.062 A 
ATOM      3  C3  8NH d   1      25.630   3.427   4.408  0.00  0.00    -0.011 A 
ATOM      4  C4  8NH d   1      26.974   3.066   4.228  0.00  0.00     0.054 A 
ATOM      5  C5  8NH d   1      27.991   4.009   4.030  0.00  0.00    -0.054 A 
ATOM      6  C7  8NH d   1      27.651   5.353   4.052  0.00  0.00    -0.059 A 
ATOM      7  C9  8NH d   1      26.301   5.754   4.135  0.00  0.00     0.067 A 
ATOM      8  C10 8NH d   1      26.064   7.135   3.886  0.00  0.00     0.101 C 
ATOM      9  N11 8NH d   1      25.875   8.229   3.575  0.00  0.00    -0.191 NA
ATOM     10  H1  8NH d   1      29.016   3.696   3.864  0.00  0.00     0.087 H 
ATOM     11  H2  8NH d   1      28.431   6.104   4.005  0.00  0.00     0.086 H 
ENDROOT
BRANCH   3  12
ATOM     12  C30 8NH d   1      24.618   2.382   4.712  0.00  0.00    -0.047 C 
ATOM     13  H10 8NH d   1      23.628   2.850   4.819  0.00  0.00     0.033 H 
ATOM     14  H11 8NH d   1      24.886   1.874   5.650  0.00  0.00     0.033 H 
ATOM     15  H12 8NH d   1      24.590   1.649   3.892  0.00  0.00     0.033 H 
ENDBRANCH   3  12
BRANCH   4  16
ATOM     16  N12 8NH d   1      27.362   1.787   4.266  0.00  0.00    -0.231 N 
ATOM     17  C13 8NH d   1      27.136   0.860   3.306  0.00  0.00     0.333 C 
ATOM     18  N14 8NH d   1      27.589  -0.311   3.743  0.00  0.00    -0.317 N 
ATOM     19  O29 8NH d   1      26.628   1.084   2.206  0.00  0.00    -0.246 OA
ATOM     20  C15 8NH d   1      28.321  -0.187   4.971  0.00  0.00     0.119 C 
ATOM     21  C22 8NH d   1      28.041  -1.392   2.924  0.00  0.00     0.003 C 
ATOM     22  C17 8NH d   1      29.702  -0.430   4.416  0.00  0.00     0.065 C 
ATOM     23  C27 8NH d   1      28.209   1.332   5.192  0.00  0.00     0.258 C 
ATOM     24  H3  8NH d   1      28.015  -0.821   5.816  0.00  0.00     0.092 H 
ATOM     25  C19 8NH d   1      29.512  -1.510   3.332  0.00  0.00    -0.024 C 
ATOM     26  H4  8NH d   1      30.426  -0.746   5.182  0.00  0.00     0.086 H 
ATOM     27  H5  8NH d   1      29.723  -2.510   3.739  0.00  0.00     0.039 H 
ATOM     28  H6  8NH d   1      30.170  -1.317   2.472  0.00  0.00     0.039 H 
ATOM     29  O28 8NH d   1      28.814   1.989   6.040  0.00  0.00    -0.270 OA
ATOM     30  H7  8NH d   1      27.941  -1.152   1.855  0.00  0.00     0.064 H 
ATOM     31  H8  8NH d   1      27.490  -2.318   3.145  0.00  0.00     0.064 H 
BRANCH  22  32
ATOM     32  O25 8NH d   1      30.060   0.820   3.830  0.00  0.00    -0.393 OA
ATOM     33  H9  8NH d   1      30.172   1.469   4.515  0.00  0.00     0.210 HD
ENDBRANCH  22  32
ENDBRANCH   4  16
TORSDOF 3
