REMARK  4 active torsions:
REMARK  status: ('A' for Active; 'I' for Inactive)
REMARK    1  A    between atoms: N_1  and  CA_2 
REMARK    2  A    between atoms: CA_2  and  C_3 
REMARK    3  A    between atoms: CA_2  and  CB_5 
REMARK    4  A    between atoms: CB_5  and  CG_6 
ROOT
ATOM      1  CA  ASP d   1      10.741   3.125   9.097  0.00  0.00     0.191 C 
ATOM      2  H4  ASP d   1      10.138   2.291   9.485  0.00  0.00     0.102 H 
ENDROOT
BRANCH   1   3
ATOM      3  N   ASP d   1       9.862   4.010   8.287  0.00  0.00    -0.065 N 
ATOM      4  H1  ASP d   1       9.477   3.487   7.516  0.00  0.00     0.275 HD
ATOM      5  H2  ASP d   1      10.400   4.785   7.932  0.00  0.00     0.275 HD
ATOM      6  H3  ASP d   1       9.112   4.358   8.864  0.00  0.00     0.275 HD
ENDBRANCH   1   3
BRANCH   1   7
ATOM      7  C   ASP d   1      11.343   3.876  10.273  0.00  0.00     0.205 C 
ATOM      8  O   ASP d   1      11.430   3.364  11.390  0.00  0.00    -0.646 OA
ATOM      9  OXT ASP d   1      11.758   5.020  10.117  0.00  0.00    -0.646 OA
ENDBRANCH   1   7
BRANCH   1  10
ATOM     10  CB  ASP d   1      11.855   2.564   8.223  0.00  0.00     0.051 C 
ATOM     11  H5  ASP d   1      12.652   2.173   8.873  0.00  0.00     0.053 H 
ATOM     12  H6  ASP d   1      12.257   3.376   7.598  0.00  0.00     0.053 H 
BRANCH  10  13
ATOM     13  CG  ASP d   1      11.378   1.457   7.327  0.00  0.00     0.175 C 
ATOM     14  OD1 ASP d   1      10.330   1.616   6.662  0.00  0.00    -0.648 OA
ATOM     15  OD2 ASP d   1      12.062   0.418   7.296  0.00  0.00    -0.648 OA
ENDBRANCH  10  13
ENDBRANCH   1  10
TORSDOF 4
