REMARK  29 active torsions:
REMARK  status: ('A' for Active; 'I' for Inactive)
REMARK    1  A    between atoms: N_1  and  CA_2 
REMARK    2  A    between atoms: CA_8  and  CB_11 
REMARK    3  A    between atoms: CB_11  and  OG_12 
REMARK    4  A    between atoms: CA_14  and  CB_17 
REMARK    5  A    between atoms: CB_17  and  CG_18 
REMARK    6  A    between atoms: CA_28  and  CB_31 
REMARK    7  A    between atoms: CB_31  and  CG_32 
REMARK    8  A    between atoms: CG_32  and  CD_33 
REMARK    9  A    between atoms: CD_33  and  NE_34 
REMARK       I    between atoms: NE_34  and  CZ_35 
REMARK       I    between atoms: CZ_35  and  NH1_36 
REMARK       I    between atoms: CZ_35  and  NH2_37 
REMARK   10  A    between atoms: CA_43  and  CB_46 
REMARK   11  A    between atoms: CB_46  and  CG_47 
REMARK   12  A    between atoms: CG_47  and  CD1_48 
REMARK   13  A    between atoms: CG_47  and  CD2_49 
REMARK   14  A    between atoms: CA_51  and  CB_54 
REMARK   15  A    between atoms: CB_54  and  CG_55 
REMARK   16  A    between atoms: CG_55  and  CD_56 
REMARK   17  A    between atoms: CA_60  and  CB_63 
REMARK   18  A    between atoms: CB_63  and  CG_64 
REMARK       I    between atoms: CG_64  and  ND2_66 
REMARK   19  A    between atoms: CA_68  and  CB_71 
REMARK   20  A    between atoms: CB_71  and  CG_72 
REMARK   21  A    between atoms: CA_78  and  CB_81 
REMARK   22  A    between atoms: CB_81  and  CG_82 
REMARK   23  A    between atoms: CG_82  and  CD_83 
REMARK   24  A    between atoms: CD_83  and  NE_84 
REMARK       I    between atoms: NE_84  and  CZ_85 
REMARK       I    between atoms: CZ_85  and  NH1_86 
REMARK   25  A    between atoms: CA_89  and  CB_92 
REMARK   26  A    between atoms: CB_92  and  CG_93 
REMARK   27  A    between atoms: CG_93  and  SD_94 
REMARK   28  A    between atoms: SD_94  and  CE_95 
REMARK   29  A    between atoms: CA_97  and  C_98 
ROOT
ATOM      1  CA  CYS d   1      83.082  48.953 -16.759  0.00  0.00     0.184 C 
ATOM      2  C   CYS d   1      84.252  48.063 -16.369  0.00  0.00     0.249 C 
ATOM      3  O   CYS d   1      84.113  47.182 -15.524  0.00  0.00    -0.271 OA
ATOM      4  CB  CYS d   1      82.054  48.117 -17.523  0.00  0.00     0.021 C 
ATOM      5  SG  CYS d   1      80.413  48.885 -17.658  0.00  0.00    -0.095 SA
ATOM      6  N   CYS d   1      76.637  48.089 -16.236  0.00  0.00    -0.344 N 
ATOM      7  CA  CYS d   1      77.611  47.072 -16.612  0.00  0.00     0.105 C 
ATOM      8  CB  CYS d   1      78.850  47.172 -15.719  0.00  0.00     0.015 C 
ATOM      9  SG  CYS d   1      79.688  48.789 -15.768  0.00  0.00    -0.095 SA
ATOM     10  H4  CYS d   1      82.614  49.332 -15.838  0.00  0.00     0.100 H 
ATOM     11  H5  CYS d   1      81.941  47.153 -17.005  0.00  0.00     0.054 H 
ATOM     12  H6  CYS d   1      82.438  47.944 -18.539  0.00  0.00     0.054 H 
ATOM     13  H90 CYS d   1      76.722  48.541 -15.348  0.00  0.00     0.163 HD
ATOM     14  H91 CYS d   1      77.912  47.249 -17.655  0.00  0.00     0.090 H 
ATOM     15  H92 CYS d   1      79.568  46.403 -16.040  0.00  0.00     0.054 H 
ATOM     16  H93 CYS d   1      78.542  46.976 -14.681  0.00  0.00     0.054 H 
ATOM     17  N   SER d   1      85.401  48.295 -16.993  0.00  0.00    -0.344 N 
ATOM     18  CA  SER d   1      86.596  47.512 -16.711  0.00  0.00     0.109 C 
ATOM     19  C   SER d   1      87.514  48.188 -15.695  0.00  0.00     0.243 C 
ATOM     20  O   SER d   1      88.427  47.556 -15.166  0.00  0.00    -0.271 OA
ATOM     21  H7  SER d   1      85.447  49.026 -17.674  0.00  0.00     0.163 HD
ATOM     22  H8  SER d   1      86.279  46.543 -16.298  0.00  0.00     0.090 H 
ATOM     23  N   TRP d   1      87.264  49.462 -15.413  0.00  0.00    -0.346 N 
ATOM     24  CA  TRP d   1      88.106  50.212 -14.486  0.00  0.00     0.093 C 
ATOM     25  C   TRP d   1      87.503  50.406 -13.097  0.00  0.00     0.241 C 
ATOM     26  O   TRP d   1      86.334  50.102 -12.869  0.00  0.00    -0.271 OA
ATOM     27  H12 TRP d   1      86.484  49.916 -15.844  0.00  0.00     0.163 HD
ATOM     28  H13 TRP d   1      89.046  49.653 -14.367  0.00  0.00     0.088 H 
ATOM     29  N   ARG d   1      88.313  50.909 -12.168  0.00  0.00    -0.346 N 
ATOM     30  CA  ARG d   1      87.826  51.174 -10.819  0.00  0.00     0.089 C 
ATOM     31  C   ARG d   1      86.815  52.300 -10.972  0.00  0.00     0.240 C 
ATOM     32  O   ARG d   1      87.028  53.227 -11.754  0.00  0.00    -0.271 OA
ATOM     33  N   ARG d   1      74.822  48.686 -12.259  0.00  0.00    -0.346 N 
ATOM     34  CA  ARG d   1      73.758  48.149 -13.100  0.00  0.00     0.089 C 
ATOM     35  C   ARG d   1      74.019  48.211 -14.603  0.00  0.00     0.241 C 
ATOM     36  O   ARG d   1      73.842  47.216 -15.301  0.00  0.00    -0.271 OA
ATOM     37  H22 ARG d   1      89.266  51.107 -12.398  0.00  0.00     0.163 HD
ATOM     38  H23 ARG d   1      87.354  50.273 -10.400  0.00  0.00     0.087 H 
ATOM     39  H68 ARG d   1      74.575  49.306 -11.514  0.00  0.00     0.163 HD
ATOM     40  H69 ARG d   1      73.649  47.086 -12.838  0.00  0.00     0.087 H 
ATOM     41  N   GLY d   1      85.724  52.221 -10.223  0.00  0.00    -0.351 N 
ATOM     42  CA  GLY d   1      84.702  53.242 -10.307  0.00  0.00     0.069 C 
ATOM     43  C   GLY d   1      83.381  52.695 -10.811  0.00  0.00     0.236 C 
ATOM     44  O   GLY d   1      82.327  53.270 -10.539  0.00  0.00    -0.272 OA
ATOM     45  H35 GLY d   1      85.607  51.451  -9.596  0.00  0.00     0.163 HD
ATOM     46  H36 GLY d   1      85.044  54.029 -10.995  0.00  0.00     0.078 H 
ATOM     47  H37 GLY d   1      84.548  53.671  -9.306  0.00  0.00     0.078 H 
ATOM     48  N   LEU d   1      83.425  51.579 -11.534  0.00  0.00    -0.346 N 
ATOM     49  CA  LEU d   1      82.199  50.997 -12.075  0.00  0.00     0.089 C 
ATOM     50  C   LEU d   1      81.849  49.582 -11.621  0.00  0.00     0.241 C 
ATOM     51  O   LEU d   1      80.998  48.930 -12.233  0.00  0.00    -0.271 OA
ATOM     52  H38 LEU d   1      84.304  51.135 -11.709  0.00  0.00     0.163 HD
ATOM     53  H39 LEU d   1      81.377  51.644 -11.735  0.00  0.00     0.087 H 
ATOM     54  N   GLU d   1      82.488  49.098 -10.562  0.00  0.00    -0.346 N 
ATOM     55  CA  GLU d   1      82.162  47.762 -10.084  0.00  0.00     0.090 C 
ATOM     56  C   GLU d   1      80.770  47.783  -9.455  0.00  0.00     0.241 C 
ATOM     57  O   GLU d   1      80.349  48.789  -8.881  0.00  0.00    -0.271 OA
ATOM     58  H49 GLU d   1      83.185  49.645 -10.098  0.00  0.00     0.163 HD
ATOM     59  H50 GLU d   1      82.151  47.075 -10.943  0.00  0.00     0.087 H 
ATOM     60  N   ASN d   1      80.047  46.678  -9.592  0.00  0.00    -0.346 N 
ATOM     61  CA  ASN d   1      78.700  46.559  -9.044  0.00  0.00     0.097 C 
ATOM     62  C   ASN d   1      77.776  47.670  -9.551  0.00  0.00     0.241 C 
ATOM     63  O   ASN d   1      76.966  48.213  -8.800  0.00  0.00    -0.271 OA
ATOM     64  H55 ASN d   1      80.438  45.902 -10.087  0.00  0.00     0.163 HD
ATOM     65  H56 ASN d   1      78.283  45.596  -9.372  0.00  0.00     0.088 H 
ATOM     66  N   HIS d   1      77.908  48.004 -10.831  0.00  0.00    -0.346 N 
ATOM     67  CA  HIS d   1      77.077  49.029 -11.453  0.00  0.00     0.094 C 
ATOM     68  C   HIS d   1      76.105  48.388 -12.439  0.00  0.00     0.241 C 
ATOM     69  O   HIS d   1      76.509  47.643 -13.333  0.00  0.00    -0.271 OA
ATOM     70  H61 HIS d   1      78.598  47.538 -11.385  0.00  0.00     0.163 HD
ATOM     71  H62 HIS d   1      76.500  49.539 -10.667  0.00  0.00     0.088 H 
ATOM     72  N   MET d   1      74.437  49.369 -15.104  0.00  0.00    -0.346 N 
ATOM     73  CA  MET d   1      74.697  49.515 -16.532  0.00  0.00     0.090 C 
ATOM     74  C   MET d   1      75.638  48.431 -17.044  0.00  0.00     0.241 C 
ATOM     75  O   MET d   1      75.463  47.916 -18.148  0.00  0.00    -0.271 OA
ATOM     76  H81 MET d   1      74.575  50.150 -14.495  0.00  0.00     0.163 HD
ATOM     77  H82 MET d   1      73.739  49.426 -17.065  0.00  0.00     0.087 H 
ENDROOT
BRANCH  24  78
ATOM     78  CB  TRP d   1      88.426  51.587 -15.078  0.00  0.00    -0.012 C 
ATOM     79  H14 TRP d   1      89.261  52.021 -14.509  0.00  0.00     0.044 H 
ATOM     80  H15 TRP d   1      87.537  52.225 -14.967  0.00  0.00     0.044 H 
BRANCH  78  81
ATOM     81  CG  TRP d   1      88.809  51.563 -16.529  0.00  0.00    -0.028 A 
ATOM     82  CD1 TRP d   1      89.437  50.551 -17.200  0.00  0.00    -0.015 A 
ATOM     83  NE1 TRP d   1      89.664  50.916 -18.503  0.00  0.00    -0.365 N 
ATOM     84  H16 TRP d   1      89.717  49.593 -16.763  0.00  0.00     0.112 H 
ATOM     85  CE2 TRP d   1      89.183  52.184 -18.701  0.00  0.00     0.042 A 
ATOM     86  H17 TRP d   1      90.122  50.332 -19.217  0.00  0.00     0.165 HD
ATOM     87  CD2 TRP d   1      88.635  52.623 -17.476  0.00  0.00    -0.002 A 
ATOM     88  CZ2 TRP d   1      89.183  52.981 -19.852  0.00  0.00    -0.056 A 
ATOM     89  CE3 TRP d   1      88.070  53.905 -17.408  0.00  0.00    -0.070 A 
ATOM     90  CZ3 TRP d   1      88.070  54.697 -18.552  0.00  0.00    -0.082 A 
ATOM     91  H18 TRP d   1      87.642  54.272 -16.482  0.00  0.00     0.084 H 
ATOM     92  CH2 TRP d   1      88.624  54.229 -19.758  0.00  0.00    -0.081 A 
ATOM     93  H20 TRP d   1      87.637  55.690 -18.514  0.00  0.00     0.083 H 
ATOM     94  H21 TRP d   1      88.608  54.870 -20.632  0.00  0.00     0.083 H 
ATOM     95  H19 TRP d   1      89.609  52.624 -20.783  0.00  0.00     0.086 H 
ENDBRANCH  78  81
ENDBRANCH  24  78
BRANCH  18  96
ATOM     96  CB  SER d   1      87.379  47.263 -18.002  0.00  0.00     0.044 C 
ATOM     97  H9  SER d   1      88.319  46.747 -17.758  0.00  0.00     0.077 H 
ATOM     98  H10 SER d   1      87.603  48.229 -18.478  0.00  0.00     0.077 H 
BRANCH  96  99
ATOM     99  OG  SER d   1      86.635  46.466 -18.902  0.00  0.00    -0.398 OA
ATOM    100  H11 SER d   1      87.142  46.327 -19.693  0.00  0.00     0.209 HD
ENDBRANCH  96  99
ENDBRANCH  18  96
BRANCH  30 101
ATOM    101  CB  ARG d   1      88.944  51.653  -9.885  0.00  0.00    -0.036 C 
ATOM    102  H24 ARG d   1      88.510  51.791  -8.884  0.00  0.00     0.036 H 
ATOM    103  H25 ARG d   1      89.307  52.620 -10.263  0.00  0.00     0.036 H 
BRANCH 101 104
ATOM    104  CG  ARG d   1      90.134  50.733  -9.750  0.00  0.00    -0.048 C 
ATOM    105  H26 ARG d   1      89.823  49.702  -9.972  0.00  0.00     0.035 H 
ATOM    106  H27 ARG d   1      90.520  50.786  -8.721  0.00  0.00     0.035 H 
BRANCH 104 107
ATOM    107  CD  ARG d   1      91.218  51.144 -10.710  0.00  0.00     0.009 C 
ATOM    108  H28 ARG d   1      90.876  52.022 -11.277  0.00  0.00     0.064 H 
ATOM    109  H29 ARG d   1      91.413  50.313 -11.403  0.00  0.00     0.064 H 
BRANCH 107 110
ATOM    110  NE  ARG d   1      92.453  51.481 -10.021  0.00  0.00    -0.227 N 
ATOM    111  CZ  ARG d   1      93.558  51.892 -10.631  0.00  0.00     0.665 C 
ATOM    112  NH1 ARG d   1      93.584  52.023 -11.950  0.00  0.00    -0.235 N 
ATOM    113  NH2 ARG d   1      94.641  52.164  -9.917  0.00  0.00    -0.235 N 
ATOM    114  H31 ARG d   1      94.444  52.342 -12.419  0.00  0.00     0.174 HD
ATOM    115  H32 ARG d   1      92.745  51.806 -12.506  0.00  0.00     0.174 HD
ATOM    116  H33 ARG d   1      94.621  52.062  -8.892  0.00  0.00     0.174 HD
ATOM    117  H34 ARG d   1      95.502  52.477 -10.387  0.00  0.00     0.174 HD
ATOM    118  H30 ARG d   1      92.472  51.395  -8.995  0.00  0.00     0.177 HD
ENDBRANCH 107 110
ENDBRANCH 104 107
ENDBRANCH 101 104
ENDBRANCH  30 101
BRANCH   1 119
ATOM    119  N   CYS d   1      83.509  50.126 -17.576  0.00  0.00    -0.066 N 
ATOM    120  H1  CYS d   1      82.703  50.684 -17.809  0.00  0.00     0.275 HD
ATOM    121  H2  CYS d   1      83.951  49.803 -18.423  0.00  0.00     0.275 HD
ATOM    122  H3  CYS d   1      84.162  50.683 -17.048  0.00  0.00     0.275 HD
ENDBRANCH   1 119
BRANCH  49 123
ATOM    123  CB  LEU d   1      82.225  51.042 -13.610  0.00  0.00    -0.035 C 
ATOM    124  H40 LEU d   1      81.414  50.397 -13.978  0.00  0.00     0.037 H 
ATOM    125  H41 LEU d   1      83.193  50.638 -13.941  0.00  0.00     0.037 H 
BRANCH 123 126
ATOM    126  CG  LEU d   1      82.051  52.422 -14.253  0.00  0.00    -0.059 C 
ATOM    127  H42 LEU d   1      82.847  53.090 -13.892  0.00  0.00     0.038 H 
BRANCH 126 128
ATOM    128  CD1 LEU d   1      82.157  52.300 -15.767  0.00  0.00    -0.073 C 
ATOM    129  H43 LEU d   1      82.032  53.292 -16.224  0.00  0.00     0.028 H 
ATOM    130  H44 LEU d   1      81.372  51.624 -16.136  0.00  0.00     0.028 H 
ATOM    131  H45 LEU d   1      83.144  51.895 -16.034  0.00  0.00     0.028 H 
ENDBRANCH 126 128
BRANCH 126 132
ATOM    132  CD2 LEU d   1      80.703  53.004 -13.861  0.00  0.00    -0.073 C 
ATOM    133  H46 LEU d   1      80.643  53.085 -12.766  0.00  0.00     0.028 H 
ATOM    134  H47 LEU d   1      79.900  52.346 -14.224  0.00  0.00     0.028 H 
ATOM    135  H48 LEU d   1      80.590  54.002 -14.309  0.00  0.00     0.028 H 
ENDBRANCH 126 132
ENDBRANCH 123 126
ENDBRANCH  49 123
BRANCH   7 136
ATOM    136  C   CYS d   1      77.019  45.672 -16.510  0.00  0.00     0.197 C 
ATOM    137  O   CYS d   1      76.979  44.974 -17.545  0.00  0.00    -0.646 OA
ATOM    138  OXT CYS d   1      76.602  45.290 -15.396  0.00  0.00    -0.646 OA
ENDBRANCH   7 136
BRANCH  55 139
ATOM    139  CB  GLU d   1      83.208  47.255  -9.075  0.00  0.00    -0.029 C 
ATOM    140  H51 GLU d   1      83.994  46.731  -9.639  0.00  0.00     0.037 H 
ATOM    141  H52 GLU d   1      82.708  46.546  -8.399  0.00  0.00     0.037 H 
BRANCH 139 142
ATOM    142  CG  GLU d   1      83.879  48.319  -8.220  0.00  0.00     0.018 C 
ATOM    143  H53 GLU d   1      84.225  47.850  -7.287  0.00  0.00     0.049 H 
ATOM    144  H54 GLU d   1      83.138  49.098  -7.987  0.00  0.00     0.049 H 
BRANCH 142 145
ATOM    145  CD  GLU d   1      85.075  48.977  -8.904  0.00  0.00     0.172 C 
ATOM    146  OE1 GLU d   1      86.178  48.392  -8.929  0.00  0.00    -0.648 OA
ATOM    147  OE2 GLU d   1      84.909  50.090  -9.422  0.00  0.00    -0.648 OA
ENDBRANCH 142 145
ENDBRANCH 139 142
ENDBRANCH  55 139
BRANCH  73 148
ATOM    148  CB  MET d   1      75.302  50.886 -16.840  0.00  0.00    -0.030 C 
ATOM    149  H83 MET d   1      74.669  51.654 -16.372  0.00  0.00     0.037 H 
ATOM    150  H84 MET d   1      75.301  51.025 -17.931  0.00  0.00     0.037 H 
BRANCH 148 151
ATOM    151  CG  MET d   1      76.725  51.072 -16.338  0.00  0.00    -0.021 C 
ATOM    152  H85 MET d   1      77.320  50.192 -16.623  0.00  0.00     0.049 H 
ATOM    153  H86 MET d   1      76.706  51.162 -15.242  0.00  0.00     0.049 H 
BRANCH 151 154
ATOM    154  SD  MET d   1      77.500  52.546 -17.028  0.00  0.00    -0.173 SA
BRANCH 154 155
ATOM    155  CE  MET d   1      78.305  51.857 -18.479  0.00  0.00    -0.035 C 
ATOM    156  H87 MET d   1      78.834  52.656 -19.019  0.00  0.00     0.041 H 
ATOM    157  H88 MET d   1      77.549  51.407 -19.139  0.00  0.00     0.041 H 
ATOM    158  H89 MET d   1      79.025  51.086 -18.168  0.00  0.00     0.041 H 
ENDBRANCH 154 155
ENDBRANCH 151 154
ENDBRANCH 148 151
ENDBRANCH  73 148
BRANCH  61 159
ATOM    159  CB  ASN d   1      78.756  46.562  -7.511  0.00  0.00     0.036 C 
ATOM    160  H57 ASN d   1      79.061  47.563  -7.172  0.00  0.00     0.051 H 
ATOM    161  H58 ASN d   1      79.501  45.821  -7.185  0.00  0.00     0.051 H 
BRANCH 159 162
ATOM    162  CG  ASN d   1      77.420  46.220  -6.874  0.00  0.00     0.217 C 
ATOM    163  OD1 ASN d   1      76.763  45.251  -7.261  0.00  0.00    -0.274 OA
ATOM    164  ND2 ASN d   1      77.017  47.010  -5.881  0.00  0.00    -0.370 N 
ATOM    165  H59 ASN d   1      76.145  46.833  -5.424  0.00  0.00     0.159 HD
ATOM    166  H60 ASN d   1      77.586  47.780  -5.592  0.00  0.00     0.159 HD
ENDBRANCH 159 162
ENDBRANCH  61 159
BRANCH  34 167
ATOM    167  CB  ARG d   1      72.437  48.857 -12.772  0.00  0.00    -0.036 C 
ATOM    168  H70 ARG d   1      72.641  49.933 -12.672  0.00  0.00     0.036 H 
ATOM    169  H71 ARG d   1      72.066  48.463 -11.814  0.00  0.00     0.036 H 
BRANCH 167 170
ATOM    170  CG  ARG d   1      71.342  48.677 -13.815  0.00  0.00    -0.048 C 
ATOM    171  H72 ARG d   1      71.331  47.628 -14.146  0.00  0.00     0.035 H 
ATOM    172  H73 ARG d   1      71.554  49.331 -14.674  0.00  0.00     0.035 H 
BRANCH 170 173
ATOM    173  CD  ARG d   1      69.979  49.031 -13.248  0.00  0.00     0.009 C 
ATOM    174  H74 ARG d   1      69.267  49.154 -14.077  0.00  0.00     0.064 H 
ATOM    175  H75 ARG d   1      70.058  49.975 -12.689  0.00  0.00     0.064 H 
BRANCH 173 176
ATOM    176  NE  ARG d   1      69.490  47.988 -12.352  0.00  0.00    -0.227 N 
ATOM    177  CZ  ARG d   1      68.428  48.111 -11.562  0.00  0.00     0.665 C 
ATOM    178  NH1 ARG d   1      67.735  49.243 -11.549  0.00  0.00    -0.235 N 
ATOM    179  NH2 ARG d   1      68.056  47.099 -10.789  0.00  0.00    -0.235 N 
ATOM    180  H77 ARG d   1      66.912  49.336 -10.936  0.00  0.00     0.174 HD
ATOM    181  H78 ARG d   1      68.020  50.028 -12.152  0.00  0.00     0.174 HD
ATOM    182  H79 ARG d   1      68.593  46.220 -10.798  0.00  0.00     0.174 HD
ATOM    183  H80 ARG d   1      67.231  47.192 -10.180  0.00  0.00     0.174 HD
ATOM    184  H76 ARG d   1      70.003  47.095 -12.330  0.00  0.00     0.177 HD
ENDBRANCH 173 176
ENDBRANCH 170 173
ENDBRANCH 167 170
ENDBRANCH  34 167
BRANCH  67 185
ATOM    185  CB  HIS d   1      77.946  50.064 -12.173  0.00  0.00     0.004 C 
ATOM    186  H63 HIS d   1      77.351  50.514 -12.981  0.00  0.00     0.046 H 
ATOM    187  H64 HIS d   1      78.817  49.547 -12.603  0.00  0.00     0.046 H 
BRANCH 185 188
ATOM    188  CG  HIS d   1      78.440  51.162 -11.281  0.00  0.00     0.053 A 
ATOM    189  ND1 HIS d   1      78.021  52.469 -11.409  0.00  0.00    -0.247 NA
ATOM    190  CE1 HIS d   1      78.593  53.206 -10.474  0.00  0.00     0.064 A 
ATOM    191  NE2 HIS d   1      79.370  52.425  -9.745  0.00  0.00    -0.359 N 
ATOM    192  H66 HIS d   1      78.449  54.276 -10.329  0.00  0.00     0.143 H 
ATOM    193  CD2 HIS d   1      79.293  51.142 -10.230  0.00  0.00     0.002 A 
ATOM    194  H67 HIS d   1      79.941  52.729  -8.943  0.00  0.00     0.166 HD
ATOM    195  H65 HIS d   1      79.820  50.272  -9.842  0.00  0.00     0.114 H 
ENDBRANCH 185 188
ENDBRANCH  67 185
TORSDOF 29
