REMARK  7 active torsions:
REMARK  status: ('A' for Active; 'I' for Inactive)
REMARK    1  A    between atoms: C1_6  and  C4_7 
REMARK    2  A    between atoms: C4_7  and  O2_8 
REMARK    3  A    between atoms: O2_8  and  C11_9 
REMARK    4  A    between atoms: C11_9  and  C9_10 
REMARK    5  A    between atoms: C11_9  and  C7_13 
REMARK    6  A    between atoms: C7_13  and  C10_14 
REMARK    7  A    between atoms: C7_13  and  N_17 
ROOT
ATOM      1  O2  TB1 d   1      10.467   3.334   6.586  0.00  0.00    -0.368 OA
ENDROOT
BRANCH   1   2
ATOM      2  C4  TB1 d   1      11.220   4.595   6.542  0.00  0.00     0.044 C 
ATOM      3  H6  TB1 d   1      10.769   5.189   5.733  0.00  0.00     0.081 H 
ATOM      4  H7  TB1 d   1      11.038   5.091   7.507  0.00  0.00     0.081 H 
BRANCH   2   5
ATOM      5  C1  TB1 d   1      12.615   4.650   6.334  0.00  0.00    -0.035 A 
ATOM      6  C2  TB1 d   1      13.138   4.462   5.056  0.00  0.00    -0.075 A 
ATOM      7  C5  TB1 d   1      14.514   4.524   4.851  0.00  0.00    -0.082 A 
ATOM      8  H1  TB1 d   1      12.474   4.268   4.222  0.00  0.00     0.084 H 
ATOM      9  C8  TB1 d   1      15.385   4.770   5.907  0.00  0.00    -0.083 A 
ATOM     10  H2  TB1 d   1      14.912   4.378   3.853  0.00  0.00     0.083 H 
ATOM     11  C6  TB1 d   1      14.873   4.960   7.182  0.00  0.00    -0.082 A 
ATOM     12  H3  TB1 d   1      16.454   4.813   5.735  0.00  0.00     0.083 H 
ATOM     13  C3  TB1 d   1      13.495   4.905   7.392  0.00  0.00    -0.075 A 
ATOM     14  H4  TB1 d   1      15.542   5.151   8.013  0.00  0.00     0.083 H 
ATOM     15  H5  TB1 d   1      13.100   5.062   8.389  0.00  0.00     0.084 H 
ENDBRANCH   2   5
ENDBRANCH   1   2
BRANCH   1  16
ATOM     16  C11 TB1 d   1      10.984   2.454   7.628  0.00  0.00     0.159 C 
ATOM     17  H8  TB1 d   1      11.981   2.824   7.910  0.00  0.00     0.104 H 
BRANCH  16  18
ATOM     18  C9  TB1 d   1      11.112   1.027   7.131  0.00  0.00     0.205 C 
ATOM     19  O5  TB1 d   1      12.317   0.565   7.104  0.00  0.00    -0.646 OA
ATOM     20  O1  TB1 d   1      10.006   0.400   6.795  0.00  0.00    -0.646 OA
ENDBRANCH  16  18
BRANCH  16  21
ATOM     21  C7  TB1 d   1      10.114   2.408   8.882  0.00  0.00     0.216 C 
ATOM     22  H9  TB1 d   1      10.045   1.372   9.244  0.00  0.00     0.106 H 
BRANCH  21  23
ATOM     23  C10 TB1 d   1      10.767   3.276   9.950  0.00  0.00     0.207 C 
ATOM     24  O4  TB1 d   1      11.345   2.676  10.883  0.00  0.00    -0.646 OA
ATOM     25  O3  TB1 d   1      10.671   4.517   9.810  0.00  0.00    -0.646 OA
ENDBRANCH  21  23
BRANCH  21  26
ATOM     26  N   TB1 d   1       8.768   2.901   8.576  0.00  0.00    -0.062 N 
ATOM     27  H10 TB1 d   1       8.201   2.867   9.408  0.00  0.00     0.275 HD
ATOM     28  H11 TB1 d   1       8.352   2.323   7.863  0.00  0.00     0.275 HD
ATOM     29  H12 TB1 d   1       8.825   3.852   8.247  0.00  0.00     0.275 HD
ENDBRANCH  21  26
ENDBRANCH  16  21
ENDBRANCH   1  16
TORSDOF 7
