REMARK WARNING: 32 MAX_TORS EXCEEDED!!!
REMARK  33 active torsions:
REMARK  status: ('A' for Active; 'I' for Inactive)
REMARK    1  A    between atoms: CA_2  and  N_1 
REMARK    2  A    between atoms: CA_2  and  CB_5 
REMARK    3  A    between atoms: C_3  and  CA_2 
REMARK       I    between atoms: N_6  and  C_3 
REMARK    4  A    between atoms: CA_7  and  N_6 
REMARK    5  A    between atoms: CA_7  and  CB_10 
REMARK    6  A    between atoms: C_8  and  CA_7 
REMARK       I    between atoms: N_11  and  C_8 
REMARK    7  A    between atoms: CA_12  and  N_11 
REMARK    8  A    between atoms: CA_12  and  CB_15 
REMARK    9  A    between atoms: C_13  and  CA_12 
REMARK       I    between atoms: N_19  and  C_13 
REMARK   10  A    between atoms: CB_15  and  CG2_17 
REMARK   11  A    between atoms: CB_15  and  CG1_16 
REMARK   12  A    between atoms: CG1_16  and  CD1_18 
REMARK   13  A    between atoms: CA_20  and  N_19 
REMARK   14  A    between atoms: CA_20  and  CB_23 
REMARK   15  A    between atoms: C_21  and  CA_20 
REMARK       I    between atoms: N_30  and  C_21 
REMARK   16  A    between atoms: CB_23  and  CG_24 
REMARK   17  A    between atoms: CA_31  and  N_30 
REMARK   18  A    between atoms: CA_31  and  CB_34 
REMARK   19  A    between atoms: C_32  and  CA_31 
REMARK       I    between atoms: N_42  and  C_32 
REMARK   20  A    between atoms: CB_34  and  CG_35 
REMARK   21  A    between atoms: CZ_40  and  OH_41 
REMARK   22  A    between atoms: CA_43  and  N_42 
REMARK   23  A    between atoms: CA_43  and  CB_46 
REMARK   24  A    between atoms: C_44  and  CA_43 
REMARK       I    between atoms: N_50  and  C_44 
REMARK   25  A    between atoms: CB_46  and  CG_47 
REMARK   26  A    between atoms: CG_47  and  CD1_48 
REMARK   27  A    between atoms: CG_47  and  CD2_49 
REMARK   28  A    between atoms: CA_51  and  N_50 
REMARK   29  A    between atoms: CA_51  and  CB_54 
REMARK   30  A    between atoms: C_52  and  CA_51 
REMARK       I    between atoms: C_52  and  N_55 
REMARK   31  A    between atoms: N_55  and  CA_56 
REMARK   32  A    between atoms: CA_56  and  C_57 
REMARK   33  A    between atoms: C_57  and  O1_59 
ROOT
ATOM      1  C   PHE d   1      19.768  -0.649  16.326  0.00  0.00     0.241 C 
ATOM      2  O   PHE d   1      19.008  -0.503  15.374  0.00  0.00    -0.271 OA
ATOM      3  N   TYR d   1      20.824  -1.453  16.292  0.00  0.00    -0.346 N 
ATOM      4  H33 TYR d   1      21.597  -1.266  16.899  0.00  0.00     0.163 HD
ENDROOT
BRANCH   1   5
ATOM      5  CA  PHE d   1      19.573   0.102  17.641  0.00  0.00     0.093 C 
ATOM      6  H25 PHE d   1      19.481  -0.660  18.429  0.00  0.00     0.088 H 
BRANCH   5   7
ATOM      7  N   PHE d   1      20.721   0.942  17.986  0.00  0.00    -0.346 N 
ATOM      8  C   ILE d   1      21.639   0.551  18.867  0.00  0.00     0.241 C 
ATOM      9  O   ILE d   1      21.617  -0.558  19.406  0.00  0.00    -0.271 OA
ATOM     10  H24 PHE d   1      20.818   1.835  17.547  0.00  0.00     0.163 HD
BRANCH   8  11
ATOM     11  CA  ILE d   1      22.753   1.559  19.183  0.00  0.00     0.092 C 
ATOM     12  H14 ILE d   1      22.771   2.317  18.387  0.00  0.00     0.088 H 
BRANCH  11  13
ATOM     13  N   ILE d   1      22.482   2.226  20.450  0.00  0.00    -0.346 N 
ATOM     14  C   ASP d   1      22.440   3.547  20.589  0.00  0.00     0.240 C 
ATOM     15  O   ASP d   1      22.491   4.330  19.644  0.00  0.00    -0.271 OA
ATOM     16  H13 ILE d   1      22.319   1.660  21.258  0.00  0.00     0.163 HD
BRANCH  14  17
ATOM     17  CA  ASP d   1      22.334   4.048  22.029  0.00  0.00     0.086 C 
ATOM     18  H9  ASP d   1      22.369   3.172  22.694  0.00  0.00     0.086 H 
BRANCH  17  19
ATOM     19  N   ASP d   1      23.452   4.922  22.376  0.00  0.00    -0.346 N 
ATOM     20  C   ALA d   1      24.266   4.641  23.394  0.00  0.00     0.248 C 
ATOM     21  O   ALA d   1      24.161   3.607  24.067  0.00  0.00    -0.271 OA
ATOM     22  H8  ASP d   1      23.610   5.750  21.838  0.00  0.00     0.163 HD
BRANCH  20  23
ATOM     23  CA  ALA d   1      25.362   5.666  23.708  0.00  0.00     0.172 C 
ATOM     24  H4  ALA d   1      26.241   5.419  23.095  0.00  0.00     0.098 H 
BRANCH  23  25
ATOM     25  N   ALA d   1      24.943   7.065  23.373  0.00  0.00    -0.067 N 
ATOM     26  H1  ALA d   1      25.692   7.702  23.595  0.00  0.00     0.275 HD
ATOM     27  H2  ALA d   1      24.125   7.308  23.909  0.00  0.00     0.275 HD
ATOM     28  H3  ALA d   1      24.731   7.126  22.390  0.00  0.00     0.275 HD
ENDBRANCH  23  25
BRANCH  23  29
ATOM     29  CB  ALA d   1      25.764   5.579  25.183  0.00  0.00    -0.042 C 
ATOM     30  H5  ALA d   1      26.070   4.549  25.419  0.00  0.00     0.030 H 
ATOM     31  H6  ALA d   1      24.908   5.861  25.814  0.00  0.00     0.030 H 
ATOM     32  H7  ALA d   1      26.603   6.264  25.375  0.00  0.00     0.030 H 
ENDBRANCH  23  29
ENDBRANCH  20  23
ENDBRANCH  17  19
BRANCH  17  33
ATOM     33  CB  ASP d   1      21.022   4.757  22.257  0.00  0.00    -0.049 C 
ATOM     34  H10 ASP d   1      20.192   4.086  21.991  0.00  0.00     0.030 H 
ATOM     35  H11 ASP d   1      20.979   5.660  21.630  0.00  0.00     0.030 H 
ATOM     36  H12 ASP d   1      20.939   5.042  23.316  0.00  0.00     0.030 H 
ENDBRANCH  17  33
ENDBRANCH  14  17
ENDBRANCH  11  13
BRANCH  11  37
ATOM     37  CB  ILE d   1      24.135   0.861  19.222  0.00  0.00    -0.030 C 
ATOM     38  H15 ILE d   1      24.233   0.340  20.186  0.00  0.00     0.043 H 
BRANCH  37  39
ATOM     39  CG2 ILE d   1      24.272  -0.171  18.092  0.00  0.00    -0.071 C 
ATOM     40  H18 ILE d   1      23.466  -0.915  18.175  0.00  0.00     0.028 H 
ATOM     41  H19 ILE d   1      25.246  -0.676  18.172  0.00  0.00     0.028 H 
ATOM     42  H20 ILE d   1      24.202   0.339  17.120  0.00  0.00     0.028 H 
ENDBRANCH  37  39
BRANCH  37  43
ATOM     43  CG1 ILE d   1      25.263   1.899  19.103  0.00  0.00    -0.063 C 
ATOM     44  H16 ILE d   1      25.010   2.585  18.282  0.00  0.00     0.033 H 
ATOM     45  H17 ILE d   1      26.194   1.365  18.861  0.00  0.00     0.033 H 
BRANCH  43  46
ATOM     46  CD1 ILE d   1      25.505   2.725  20.347  0.00  0.00    -0.076 C 
ATOM     47  H21 ILE d   1      26.326   3.434  20.163  0.00  0.00     0.027 H 
ATOM     48  H22 ILE d   1      25.775   2.061  21.181  0.00  0.00     0.027 H 
ATOM     49  H23 ILE d   1      24.591   3.281  20.602  0.00  0.00     0.027 H 
ENDBRANCH  43  46
ENDBRANCH  37  43
ENDBRANCH  11  37
ENDBRANCH   8  11
ENDBRANCH   5   7
BRANCH   5  50
ATOM     50  CB  PHE d   1      18.285   0.928  17.661  0.00  0.00    -0.014 C 
ATOM     51  H26 PHE d   1      17.429   0.249  17.536  0.00  0.00     0.043 H 
ATOM     52  H27 PHE d   1      18.311   1.642  16.825  0.00  0.00     0.043 H 
BRANCH  50  53
ATOM     53  CG  PHE d   1      18.110   1.692  18.940  0.00  0.00    -0.056 A 
ATOM     54  CD1 PHE d   1      18.182   3.074  18.956  0.00  0.00    -0.077 A 
ATOM     55  CE1 PHE d   1      18.064   3.780  20.142  0.00  0.00    -0.082 A 
ATOM     56  H28 PHE d   1      18.333   3.612  18.027  0.00  0.00     0.084 H 
ATOM     57  CZ  PHE d   1      17.912   3.099  21.339  0.00  0.00    -0.083 A 
ATOM     58  H30 PHE d   1      18.090   4.864  20.134  0.00  0.00     0.083 H 
ATOM     59  CE2 PHE d   1      17.864   1.712  21.336  0.00  0.00    -0.082 A 
ATOM     60  H32 PHE d   1      17.831   3.646  22.271  0.00  0.00     0.083 H 
ATOM     61  CD2 PHE d   1      17.973   1.018  20.141  0.00  0.00    -0.077 A 
ATOM     62  H31 PHE d   1      17.741   1.172  22.268  0.00  0.00     0.083 H 
ATOM     63  H29 PHE d   1      17.951  -0.066  20.147  0.00  0.00     0.084 H 
ENDBRANCH  50  53
ENDBRANCH   5  50
ENDBRANCH   1   5
BRANCH   3  64
ATOM     64  CA  TYR d   1      20.888  -2.601  15.394  0.00  0.00     0.093 C 
ATOM     65  H34 TYR d   1      20.715  -2.267  14.360  0.00  0.00     0.088 H 
BRANCH  64  66
ATOM     66  CB  TYR d   1      22.285  -3.240  15.477  0.00  0.00    -0.014 C 
ATOM     67  H35 TYR d   1      22.587  -3.258  16.535  0.00  0.00     0.043 H 
ATOM     68  H36 TYR d   1      22.982  -2.607  14.907  0.00  0.00     0.043 H 
BRANCH  66  69
ATOM     69  CG  TYR d   1      22.388  -4.650  14.938  0.00  0.00    -0.056 A 
ATOM     70  CD1 TYR d   1      22.493  -4.886  13.573  0.00  0.00    -0.074 A 
ATOM     71  CE1 TYR d   1      22.579  -6.172  13.070  0.00  0.00    -0.051 A 
ATOM     72  H37 TYR d   1      22.508  -4.046  12.888  0.00  0.00     0.084 H 
ATOM     73  CZ  TYR d   1      22.570  -7.247  13.935  0.00  0.00     0.065 A 
ATOM     74  H39 TYR d   1      22.653  -6.334  12.001  0.00  0.00     0.087 H 
ATOM     75  CE2 TYR d   1      22.469  -7.038  15.302  0.00  0.00    -0.051 A 
ATOM     76  CD2 TYR d   1      22.392  -5.744  15.796  0.00  0.00    -0.074 A 
ATOM     77  H40 TYR d   1      22.450  -7.882  15.982  0.00  0.00     0.087 H 
ATOM     78  H38 TYR d   1      22.334  -5.583  16.866  0.00  0.00     0.084 H 
BRANCH  73  79
ATOM     79  OH  TYR d   1      22.665  -8.527  13.424  0.00  0.00    -0.361 OA
ATOM     80  H41 TYR d   1      22.726  -8.485  12.477  0.00  0.00     0.217 HD
ENDBRANCH  73  79
ENDBRANCH  66  69
ENDBRANCH  64  66
BRANCH  64  81
ATOM     81  C   TYR d   1      19.773  -3.584  15.792  0.00  0.00     0.241 C 
ATOM     82  O   TYR d   1      19.460  -3.752  16.979  0.00  0.00    -0.271 OA
ATOM     83  N   LEU d   1      19.143  -4.191  14.792  0.00  0.00    -0.346 N 
ATOM     84  H42 LEU d   1      19.358  -3.925  13.852  0.00  0.00     0.163 HD
BRANCH  83  85
ATOM     85  CA  LEU d   1      18.144  -5.238  15.022  0.00  0.00     0.089 C 
ATOM     86  H43 LEU d   1      18.339  -5.683  16.009  0.00  0.00     0.087 H 
BRANCH  85  87
ATOM     87  CB  LEU d   1      16.722  -4.660  15.039  0.00  0.00    -0.035 C 
ATOM     88  H44 LEU d   1      16.807  -3.602  14.750  0.00  0.00     0.037 H 
ATOM     89  H45 LEU d   1      16.364  -4.729  16.077  0.00  0.00     0.037 H 
BRANCH  87  90
ATOM     90  CG  LEU d   1      15.627  -5.274  14.152  0.00  0.00    -0.059 C 
ATOM     91  H46 LEU d   1      15.973  -5.242  13.108  0.00  0.00     0.038 H 
BRANCH  90  92
ATOM     92  CD1 LEU d   1      15.307  -6.727  14.496  0.00  0.00    -0.073 C 
ATOM     93  H47 LEU d   1      14.519  -7.098  13.824  0.00  0.00     0.028 H 
ATOM     94  H48 LEU d   1      14.960  -6.789  15.538  0.00  0.00     0.028 H 
ATOM     95  H49 LEU d   1      16.212  -7.341  14.374  0.00  0.00     0.028 H 
ENDBRANCH  90  92
BRANCH  90  96
ATOM     96  CD2 LEU d   1      14.375  -4.425  14.281  0.00  0.00    -0.073 C 
ATOM     97  H50 LEU d   1      14.613  -3.380  14.032  0.00  0.00     0.028 H 
ATOM     98  H51 LEU d   1      14.000  -4.479  15.314  0.00  0.00     0.028 H 
ATOM     99  H52 LEU d   1      13.605  -4.800  13.591  0.00  0.00     0.028 H 
ENDBRANCH  90  96
ENDBRANCH  87  90
ENDBRANCH  85  87
BRANCH  85 100
ATOM    100  C   LEU d   1      18.278  -6.339  13.973  0.00  0.00     0.241 C 
ATOM    101  O   LEU d   1      18.179  -6.089  12.769  0.00  0.00    -0.271 OA
ATOM    102  N   ASP d   1      18.541  -7.549  14.455  0.00  0.00    -0.346 N 
ATOM    103  H53 ASP d   1      18.761  -7.638  15.427  0.00  0.00     0.163 HD
BRANCH 102 104
ATOM    104  CA  ASP d   1      18.524  -8.753  13.632  0.00  0.00     0.086 C 
ATOM    105  H54 ASP d   1      18.636  -8.466  12.576  0.00  0.00     0.086 H 
BRANCH 104 106
ATOM    106  CB  ASP d   1      19.679  -9.679  14.014  0.00  0.00    -0.049 C 
ATOM    107  H55 ASP d   1      19.650 -10.580  13.384  0.00  0.00     0.030 H 
ATOM    108  H56 ASP d   1      19.583  -9.967  15.071  0.00  0.00     0.030 H 
ATOM    109  H57 ASP d   1      20.634  -9.156  13.862  0.00  0.00     0.030 H 
ENDBRANCH 104 106
BRANCH 104 110
ATOM    110  C   ASP d   1      17.184  -9.465  13.814  0.00  0.00     0.240 C 
ATOM    111  O   ASP d   1      16.937 -10.107  14.840  0.00  0.00    -0.271 OA
ATOM    112  N   GLY d   1      16.311  -9.301  12.825  0.00  0.00    -0.349 N 
ATOM    113  H58 GLY d   1      16.516  -8.640  12.103  0.00  0.00     0.163 HD
BRANCH 112 114
ATOM    114  CA  GLY d   1      15.068 -10.052  12.759  0.00  0.00     0.072 C 
ATOM    115  H59 GLY d   1      14.336  -9.477  12.173  0.00  0.00     0.080 H 
ATOM    116  H60 GLY d   1      14.686 -10.199  13.780  0.00  0.00     0.080 H 
BRANCH 114 117
ATOM    117  C   GLY d   1      15.261 -11.408  12.108  0.00  0.00     0.158 C 
ATOM    118  O   GLY d   1      16.156 -11.580  11.280  0.00  0.00    -0.649 OA
BRANCH 117 119
ATOM    119  O1  GLY d   1      14.459 -12.418  12.433  0.00  0.00    -0.775 OA
ATOM    120  H61 GLY d   1      14.976 -13.128  12.795  0.00  0.00     0.167 HD
ENDBRANCH 117 119
ENDBRANCH 114 117
ENDBRANCH 112 114
ENDBRANCH 104 110
ENDBRANCH 102 104
ENDBRANCH  85 100
ENDBRANCH  83  85
ENDBRANCH  64  81
ENDBRANCH   3  64
TORSDOF 33
