REMARK WARNING: 32 MAX_TORS EXCEEDED!!!
REMARK  36 active torsions:
REMARK  status: ('A' for Active; 'I' for Inactive)
REMARK    1  A    between atoms: N_1  and  CA_2 
REMARK    2  A    between atoms: CA_2  and  C_3 
REMARK    3  A    between atoms: CA_2  and  CB_5 
REMARK       I    between atoms: C_3  and  N_6 
REMARK    4  A    between atoms: N_6  and  CA_7 
REMARK    5  A    between atoms: CA_7  and  C_8 
REMARK    6  A    between atoms: CA_7  and  CB_10 
REMARK       I    between atoms: C_8  and  N_15 
REMARK    7  A    between atoms: CB_10  and  CG_11 
REMARK    8  A    between atoms: CG_11  and  CD_12 
REMARK    9  A    between atoms: N_15  and  CA_16 
REMARK   10  A    between atoms: CA_16  and  C_17 
REMARK   11  A    between atoms: CA_16  and  CB_19 
REMARK       I    between atoms: C_17  and  N_22 
REMARK   12  A    between atoms: CB_19  and  CG1_20 
REMARK   13  A    between atoms: CB_19  and  CG2_21 
REMARK   14  A    between atoms: N_22  and  CA_23 
REMARK   15  A    between atoms: CA_23  and  C_24 
REMARK   16  A    between atoms: CA_23  and  CB_26 
REMARK       I    between atoms: C_24  and  N_33 
REMARK   17  A    between atoms: CB_26  and  CG_27 
REMARK   18  A    between atoms: N_33  and  CA_34 
REMARK   19  A    between atoms: CA_34  and  C_35 
REMARK   20  A    between atoms: CA_34  and  CB_37 
REMARK       I    between atoms: C_35  and  N_45 
REMARK   21  A    between atoms: CB_37  and  CG_38 
REMARK   22  A    between atoms: CZ_43  and  OH_44 
REMARK   23  A    between atoms: N_45  and  CA_46 
REMARK   24  A    between atoms: CA_46  and  C_47 
REMARK   25  A    between atoms: CA_46  and  CB_49 
REMARK       I    between atoms: C_47  and  N_52 
REMARK   26  A    between atoms: CB_49  and  CG1_50 
REMARK   27  A    between atoms: CB_49  and  CG2_51 
REMARK   28  A    between atoms: N_52  and  CA_53 
REMARK   29  A    between atoms: CA_53  and  C_54 
REMARK   30  A    between atoms: CA_53  and  CB_56 
REMARK       I    between atoms: C_54  and  N_60 
REMARK   31  A    between atoms: CB_56  and  CG_57 
REMARK   32  A    between atoms: N_60  and  CA_61 
REMARK   33  A    between atoms: CA_61  and  C_62 
REMARK       I    between atoms: C_62  and  N_64 
REMARK   34  A    between atoms: N_64  and  CA_65 
REMARK   35  A    between atoms: CA_65  and  C_66 
REMARK   36  A    between atoms: CA_65  and  CB_68 
ROOT
ATOM      1  C   PHE d   1      19.566  -0.685  16.224  0.00  0.00     0.241 C 
ATOM      2  O   PHE d   1      18.776  -0.686  15.275  0.00  0.00    -0.271 OA
ATOM      3  N   TYR d   1      20.637  -1.469  16.246  0.00  0.00    -0.346 N 
ATOM      4  H32 TYR d   1      21.396  -1.252  16.860  0.00  0.00     0.163 HD
ENDROOT
BRANCH   3   5
ATOM      5  CA  TYR d   1      20.718  -2.647  15.382  0.00  0.00     0.093 C 
ATOM      6  H33 TYR d   1      20.689  -2.312  14.335  0.00  0.00     0.088 H 
BRANCH   5   7
ATOM      7  C   TYR d   1      19.531  -3.599  15.604  0.00  0.00     0.241 C 
ATOM      8  O   TYR d   1      19.116  -3.864  16.734  0.00  0.00    -0.271 OA
ATOM      9  N   VAL d   1      18.979  -4.108  14.511  0.00  0.00    -0.346 N 
ATOM     10  H41 VAL d   1      19.293  -3.791  13.616  0.00  0.00     0.163 HD
BRANCH   9  11
ATOM     11  CA  VAL d   1      17.927  -5.117  14.577  0.00  0.00     0.092 C 
ATOM     12  H42 VAL d   1      17.948  -5.550  15.588  0.00  0.00     0.088 H 
BRANCH  11  13
ATOM     13  C   VAL d   1      18.204  -6.250  13.581  0.00  0.00     0.241 C 
ATOM     14  O   VAL d   1      18.283  -6.076  12.368  0.00  0.00    -0.271 OA
ATOM     15  N   ASP d   1      18.357  -7.432  14.160  0.00  0.00    -0.345 N 
ATOM     16  H50 ASP d   1      18.286  -7.473  15.157  0.00  0.00     0.163 HD
BRANCH  15  17
ATOM     17  CA  ASP d   1      18.621  -8.676  13.450  0.00  0.00     0.098 C 
ATOM     18  H51 ASP d   1      19.069  -8.478  12.465  0.00  0.00     0.088 H 
BRANCH  17  19
ATOM     19  C   ASP d   1      17.287  -9.403  13.293  0.00  0.00     0.241 C 
ATOM     20  O   ASP d   1      16.736  -9.942  14.251  0.00  0.00    -0.271 OA
ATOM     21  N   GLY d   1      16.792  -9.453  12.066  0.00  0.00    -0.351 N 
ATOM     22  H54 GLY d   1      17.322  -9.065  11.312  0.00  0.00     0.163 HD
BRANCH  21  23
ATOM     23  CA  GLY d   1      15.497 -10.058  11.784  0.00  0.00     0.069 C 
ATOM     24  H55 GLY d   1      15.216  -9.766  10.761  0.00  0.00     0.078 H 
ATOM     25  H56 GLY d   1      14.776  -9.633  12.498  0.00  0.00     0.078 H 
BRANCH  23  26
ATOM     26  C   GLY d   1      15.378 -11.568  11.869  0.00  0.00     0.236 C 
ATOM     27  O   GLY d   1      14.279 -12.086  11.673  0.00  0.00    -0.272 OA
ATOM     28  N   ALA d   1      16.462 -12.290  12.152  0.00  0.00    -0.346 N 
ATOM     29  H57 ALA d   1      17.351 -11.839  12.233  0.00  0.00     0.163 HD
BRANCH  28  30
ATOM     30  CA  ALA d   1      16.363 -13.741  12.346  0.00  0.00     0.093 C 
ATOM     31  H58 ALA d   1      15.823 -14.171  11.490  0.00  0.00     0.089 H 
BRANCH  30  32
ATOM     32  C   ALA d   1      15.572 -14.031  13.619  0.00  0.00     0.196 C 
ATOM     33  O   ALA d   1      15.705 -13.326  14.632  0.00  0.00    -0.646 OA
ATOM     34  OXT ALA d   1      14.760 -14.956  13.626  0.00  0.00    -0.646 OA
ENDBRANCH  30  32
BRANCH  30  35
ATOM     35  CB  ALA d   1      17.737 -14.389  12.418  0.00  0.00    -0.048 C 
ATOM     36  H59 ALA d   1      17.624 -15.473  12.563  0.00  0.00     0.030 H 
ATOM     37  H60 ALA d   1      18.300 -13.963  13.262  0.00  0.00     0.030 H 
ATOM     38  H61 ALA d   1      18.281 -14.200  11.481  0.00  0.00     0.030 H 
ENDBRANCH  30  35
ENDBRANCH  28  30
ENDBRANCH  23  26
ENDBRANCH  21  23
ENDBRANCH  17  19
BRANCH  17  39
ATOM     39  CB  ASP d   1      19.575  -9.514  14.310  0.00  0.00     0.043 C 
ATOM     40  H52 ASP d   1      19.176  -9.553  15.335  0.00  0.00     0.052 H 
ATOM     41  H53 ASP d   1      20.559  -9.022  14.318  0.00  0.00     0.052 H 
BRANCH  39  42
ATOM     42  CG  ASP d   1      19.753 -10.934  13.811  0.00  0.00     0.175 C 
ATOM     43  OD1 ASP d   1      19.142 -11.307  12.785  0.00  0.00    -0.648 OA
ATOM     44  OD2 ASP d   1      20.508 -11.675  14.480  0.00  0.00    -0.648 OA
ENDBRANCH  39  42
ENDBRANCH  17  39
ENDBRANCH  15  17
ENDBRANCH  11  13
BRANCH  11  45
ATOM     45  CB  VAL d   1      16.526  -4.515  14.367  0.00  0.00    -0.033 C 
ATOM     46  H43 VAL d   1      16.515  -3.996  13.397  0.00  0.00     0.042 H 
BRANCH  45  47
ATOM     47  CG1 VAL d   1      15.459  -5.597  14.339  0.00  0.00    -0.071 C 
ATOM     48  H44 VAL d   1      14.472  -5.135  14.188  0.00  0.00     0.028 H 
ATOM     49  H45 VAL d   1      15.466  -6.143  15.294  0.00  0.00     0.028 H 
ATOM     50  H46 VAL d   1      15.667  -6.296  13.515  0.00  0.00     0.028 H 
ENDBRANCH  45  47
BRANCH  45  51
ATOM     51  CG2 VAL d   1      16.221  -3.498  15.462  0.00  0.00    -0.071 C 
ATOM     52  H47 VAL d   1      17.001  -2.722  15.470  0.00  0.00     0.028 H 
ATOM     53  H48 VAL d   1      16.199  -4.005  16.438  0.00  0.00     0.028 H 
ATOM     54  H49 VAL d   1      15.243  -3.033  15.268  0.00  0.00     0.028 H 
ENDBRANCH  45  51
ENDBRANCH  11  45
ENDBRANCH   9  11
ENDBRANCH   5   7
BRANCH   5  55
ATOM     55  CB  TYR d   1      22.054  -3.347  15.628  0.00  0.00    -0.014 C 
ATOM     56  H34 TYR d   1      22.181  -3.461  16.715  0.00  0.00     0.043 H 
ATOM     57  H35 TYR d   1      22.852  -2.702  15.231  0.00  0.00     0.043 H 
BRANCH  55  58
ATOM     58  CG  TYR d   1      22.204  -4.707  15.000  0.00  0.00    -0.056 A 
ATOM     59  CD1 TYR d   1      22.330  -4.861  13.618  0.00  0.00    -0.074 A 
ATOM     60  CE1 TYR d   1      22.469  -6.121  13.045  0.00  0.00    -0.051 A 
ATOM     61  H36 TYR d   1      22.319  -3.984  12.981  0.00  0.00     0.084 H 
ATOM     62  CZ  TYR d   1      22.515  -7.235  13.866  0.00  0.00     0.065 A 
ATOM     63  H38 TYR d   1      22.540  -6.229  11.969  0.00  0.00     0.087 H 
ATOM     64  CE2 TYR d   1      22.407  -7.095  15.229  0.00  0.00    -0.051 A 
ATOM     65  CD2 TYR d   1      22.254  -5.842  15.794  0.00  0.00    -0.074 A 
ATOM     66  H39 TYR d   1      22.442  -7.972  15.865  0.00  0.00     0.087 H 
ATOM     67  H37 TYR d   1      22.172  -5.746  16.871  0.00  0.00     0.084 H 
BRANCH  62  68
ATOM     68  OH  TYR d   1      22.654  -8.511  13.355  0.00  0.00    -0.361 OA
ATOM     69  H40 TYR d   1      23.442  -8.908  13.708  0.00  0.00     0.217 HD
ENDBRANCH  62  68
ENDBRANCH  55  58
ENDBRANCH   5  55
ENDBRANCH   3   5
BRANCH   1  70
ATOM     70  CA  PHE d   1      19.391   0.212  17.462  0.00  0.00     0.093 C 
ATOM     71  H24 PHE d   1      19.208  -0.470  18.305  0.00  0.00     0.088 H 
BRANCH  70  72
ATOM     72  N   PHE d   1      20.572   0.994  17.803  0.00  0.00    -0.346 N 
ATOM     73  C   VAL d   1      21.483   0.562  18.672  0.00  0.00     0.241 C 
ATOM     74  O   VAL d   1      21.447  -0.542  19.209  0.00  0.00    -0.271 OA
ATOM     75  H23 PHE d   1      20.703   1.886  17.369  0.00  0.00     0.163 HD
BRANCH  73  76
ATOM     76  CA  VAL d   1      22.608   1.541  18.987  0.00  0.00     0.092 C 
ATOM     77  H15 VAL d   1      22.659   2.298  18.191  0.00  0.00     0.088 H 
BRANCH  76  78
ATOM     78  N   VAL d   1      22.319   2.187  20.242  0.00  0.00    -0.346 N 
ATOM     79  C   GLU d   1      22.322   3.503  20.400  0.00  0.00     0.241 C 
ATOM     80  O   GLU d   1      22.527   4.310  19.493  0.00  0.00    -0.271 OA
ATOM     81  H14 VAL d   1      22.105   1.614  21.033  0.00  0.00     0.163 HD
BRANCH  79  82
ATOM     82  CA  GLU d   1      22.081   3.927  21.842  0.00  0.00     0.090 C 
ATOM     83  H9  GLU d   1      22.362   3.070  22.471  0.00  0.00     0.087 H 
BRANCH  82  84
ATOM     84  N   GLU d   1      22.901   5.048  22.270  0.00  0.00    -0.346 N 
ATOM     85  C   ALA d   1      23.525   5.013  23.443  0.00  0.00     0.248 C 
ATOM     86  O   ALA d   1      23.677   3.975  24.103  0.00  0.00    -0.271 OA
ATOM     87  H8  GLU d   1      22.996   5.849  21.679  0.00  0.00     0.163 HD
BRANCH  85  88
ATOM     88  CA  ALA d   1      24.014   6.359  23.965  0.00  0.00     0.172 C 
ATOM     89  H4  ALA d   1      23.163   7.056  23.967  0.00  0.00     0.098 H 
BRANCH  88  90
ATOM     90  N   ALA d   1      24.517   6.236  25.369  0.00  0.00    -0.067 N 
ATOM     91  H1  ALA d   1      24.834   7.136  25.692  0.00  0.00     0.275 HD
ATOM     92  H2  ALA d   1      25.282   5.581  25.395  0.00  0.00     0.275 HD
ATOM     93  H3  ALA d   1      23.773   5.908  25.965  0.00  0.00     0.275 HD
ENDBRANCH  88  90
BRANCH  88  94
ATOM     94  CB  ALA d   1      25.077   6.920  23.063  0.00  0.00    -0.042 C 
ATOM     95  H5  ALA d   1      24.684   7.001  22.039  0.00  0.00     0.030 H 
ATOM     96  H6  ALA d   1      25.952   6.253  23.068  0.00  0.00     0.030 H 
ATOM     97  H7  ALA d   1      25.373   7.917  23.421  0.00  0.00     0.030 H 
ENDBRANCH  88  94
ENDBRANCH  85  88
ENDBRANCH  82  84
BRANCH  82  98
ATOM     98  CB  GLU d   1      20.606   4.216  22.106  0.00  0.00    -0.029 C 
ATOM     99  H10 GLU d   1      19.998   3.478  21.561  0.00  0.00     0.037 H 
ATOM    100  H11 GLU d   1      20.372   5.226  21.739  0.00  0.00     0.037 H 
BRANCH  98 101
ATOM    101  CG  GLU d   1      20.259   4.140  23.584  0.00  0.00     0.018 C 
ATOM    102  H12 GLU d   1      20.922   4.826  24.131  0.00  0.00     0.049 H 
ATOM    103  H13 GLU d   1      20.432   3.110  23.928  0.00  0.00     0.049 H 
BRANCH 101 104
ATOM    104  CD  GLU d   1      18.818   4.514  23.897  0.00  0.00     0.172 C 
ATOM    105  OE1 GLU d   1      18.355   5.579  23.430  0.00  0.00    -0.648 OA
ATOM    106  OE2 GLU d   1      18.153   3.737  24.621  0.00  0.00    -0.648 OA
ENDBRANCH 101 104
ENDBRANCH  98 101
ENDBRANCH  82  98
ENDBRANCH  79  82
ENDBRANCH  76  78
BRANCH  76 107
ATOM    107  CB  VAL d   1      23.949   0.829  19.074  0.00  0.00    -0.033 C 
ATOM    108  H16 VAL d   1      23.915   0.139  19.930  0.00  0.00     0.042 H 
BRANCH 107 109
ATOM    109  CG1 VAL d   1      24.203  -0.011  17.818  0.00  0.00    -0.071 C 
ATOM    110  H17 VAL d   1      25.177  -0.515  17.905  0.00  0.00     0.028 H 
ATOM    111  H18 VAL d   1      24.206   0.643  16.934  0.00  0.00     0.028 H 
ATOM    112  H19 VAL d   1      23.408  -0.764  17.714  0.00  0.00     0.028 H 
ENDBRANCH 107 109
BRANCH 107 113
ATOM    113  CG2 VAL d   1      25.049   1.849  19.347  0.00  0.00    -0.071 C 
ATOM    114  H20 VAL d   1      24.806   2.416  20.258  0.00  0.00     0.028 H 
ATOM    115  H21 VAL d   1      25.127   2.541  18.495  0.00  0.00     0.028 H 
ATOM    116  H22 VAL d   1      26.007   1.327  19.485  0.00  0.00     0.028 H 
ENDBRANCH 107 113
ENDBRANCH  76 107
ENDBRANCH  73  76
ENDBRANCH  70  72
BRANCH  70 117
ATOM    117  CB  PHE d   1      18.185   1.140  17.374  0.00  0.00    -0.014 C 
ATOM    118  H25 PHE d   1      17.306   0.544  17.086  0.00  0.00     0.043 H 
ATOM    119  H26 PHE d   1      18.383   1.897  16.601  0.00  0.00     0.043 H 
BRANCH 117 120
ATOM    120  CG  PHE d   1      17.879   1.848  18.671  0.00  0.00    -0.056 A 
ATOM    121  CD1 PHE d   1      17.969   3.234  18.770  0.00  0.00    -0.077 A 
ATOM    122  CE1 PHE d   1      17.703   3.882  19.982  0.00  0.00    -0.082 A 
ATOM    123  H27 PHE d   1      18.248   3.817  17.900  0.00  0.00     0.084 H 
ATOM    124  CZ  PHE d   1      17.306   3.145  21.092  0.00  0.00    -0.083 A 
ATOM    125  H29 PHE d   1      17.807   4.959  20.055  0.00  0.00     0.083 H 
ATOM    126  CE2 PHE d   1      17.218   1.765  20.993  0.00  0.00    -0.082 A 
ATOM    127  H31 PHE d   1      17.068   3.644  22.024  0.00  0.00     0.083 H 
ATOM    128  CD2 PHE d   1      17.502   1.126  19.793  0.00  0.00    -0.077 A 
ATOM    129  H30 PHE d   1      16.926   1.181  21.858  0.00  0.00     0.083 H 
ATOM    130  H28 PHE d   1      17.428   0.046  19.733  0.00  0.00     0.084 H 
ENDBRANCH 117 120
ENDBRANCH  70 117
ENDBRANCH   1  70
TORSDOF 36
