REMARK WARNING: 32 MAX_TORS EXCEEDED!!!
REMARK  34 active torsions:
REMARK  status: ('A' for Active; 'I' for Inactive)
REMARK    1  A    between atoms: CA_2  and  N_1 
REMARK    2  A    between atoms: CA_2  and  CB_5 
REMARK    3  A    between atoms: C_3  and  CA_2 
REMARK       I    between atoms: N_6  and  C_3 
REMARK    4  A    between atoms: CA_7  and  N_6 
REMARK    5  A    between atoms: CA_7  and  CB_10 
REMARK    6  A    between atoms: C_8  and  CA_7 
REMARK       I    between atoms: N_15  and  C_8 
REMARK    7  A    between atoms: CB_10  and  CG_11 
REMARK    8  A    between atoms: CG_11  and  CD_12 
REMARK       I    between atoms: CD_12  and  NE2_14 
REMARK    9  A    between atoms: CA_16  and  N_15 
REMARK   10  A    between atoms: CA_16  and  CB_19 
REMARK   11  A    between atoms: C_17  and  CA_16 
REMARK       I    between atoms: N_22  and  C_17 
REMARK   12  A    between atoms: CB_19  and  CG2_21 
REMARK   13  A    between atoms: CB_19  and  OG1_20 
REMARK   14  A    between atoms: CA_23  and  N_22 
REMARK   15  A    between atoms: CA_23  and  CB_26 
REMARK   16  A    between atoms: C_24  and  CA_23 
REMARK       I    between atoms: N_33  and  C_24 
REMARK   17  A    between atoms: CB_26  and  CG_27 
REMARK   18  A    between atoms: CA_34  and  N_33 
REMARK   19  A    between atoms: CA_34  and  CB_37 
REMARK   20  A    between atoms: C_35  and  CA_34 
REMARK       I    between atoms: N_45  and  C_35 
REMARK   21  A    between atoms: CB_37  and  CG_38 
REMARK   22  A    between atoms: CZ_43  and  OH_44 
REMARK   23  A    between atoms: CA_46  and  N_45 
REMARK   24  A    between atoms: CA_46  and  CB_49 
REMARK   25  A    between atoms: C_47  and  CA_46 
REMARK       I    between atoms: N_52  and  C_47 
REMARK   26  A    between atoms: CB_49  and  CG2_51 
REMARK   27  A    between atoms: CB_49  and  CG1_50 
REMARK   28  A    between atoms: CA_53  and  N_52 
REMARK   29  A    between atoms: CA_53  and  CB_56 
REMARK   30  A    between atoms: C_54  and  CA_53 
REMARK       I    between atoms: C_54  and  N_60 
REMARK   31  A    between atoms: CB_56  and  CG_57 
REMARK   32  A    between atoms: N_60  and  CA_61 
REMARK   33  A    between atoms: CA_61  and  C_62 
REMARK   34  A    between atoms: C_62  and  O1_64 
ROOT
ATOM      1  CA  PHE d   1       6.027   0.224  13.510  0.00  0.00     0.093 C 
ATOM      2  H24 PHE d   1       6.163  -0.473  12.670  0.00  0.00     0.088 H 
ENDROOT
BRANCH   1   3
ATOM      3  N   PHE d   1       4.827   1.011  13.208  0.00  0.00    -0.346 N 
ATOM      4  C   THR d   1       3.972   0.641  12.257  0.00  0.00     0.243 C 
ATOM      5  O   THR d   1       4.003  -0.476  11.743  0.00  0.00    -0.271 OA
ATOM      6  H23 PHE d   1       4.647   1.845  13.729  0.00  0.00     0.163 HD
BRANCH   4   7
ATOM      7  CA  THR d   1       2.966   1.708  11.779  0.00  0.00     0.113 C 
ATOM      8  H17 THR d   1       2.856   2.447  12.586  0.00  0.00     0.091 H 
BRANCH   7   9
ATOM      9  N   THR d   1       3.471   2.389  10.592  0.00  0.00    -0.344 N 
ATOM     10  C   GLN d   1       3.384   3.705  10.420  0.00  0.00     0.241 C 
ATOM     11  O   GLN d   1       3.258   4.503  11.351  0.00  0.00    -0.271 OA
ATOM     12  H16 THR d   1       3.902   1.841   9.875  0.00  0.00     0.163 HD
BRANCH  10  13
ATOM     13  CA  GLN d   1       3.497   4.167   8.957  0.00  0.00     0.090 C 
ATOM     14  H9  GLN d   1       3.261   3.281   8.350  0.00  0.00     0.087 H 
BRANCH  13  15
ATOM     15  N   GLN d   1       2.539   5.197   8.537  0.00  0.00    -0.346 N 
ATOM     16  C   ALA d   1       1.818   5.031   7.429  0.00  0.00     0.248 C 
ATOM     17  O   ALA d   1       1.816   3.972   6.784  0.00  0.00    -0.271 OA
ATOM     18  H8  GLN d   1       2.427   6.026   9.085  0.00  0.00     0.163 HD
BRANCH  16  19
ATOM     19  CA  ALA d   1       0.986   6.226   6.953  0.00  0.00     0.172 C 
ATOM     20  H4  ALA d   1       1.684   6.988   6.577  0.00  0.00     0.098 H 
BRANCH  19  21
ATOM     21  N   ALA d   1       0.058   5.863   5.834  0.00  0.00    -0.067 N 
ATOM     22  H1  ALA d   1      -0.467   6.677   5.555  0.00  0.00     0.275 HD
ATOM     23  H2  ALA d   1      -0.577   5.144   6.144  0.00  0.00     0.275 HD
ATOM     24  H3  ALA d   1       0.593   5.523   5.050  0.00  0.00     0.275 HD
ENDBRANCH  19  21
BRANCH  19  25
ATOM     25  CB  ALA d   1       0.203   6.831   8.097  0.00  0.00    -0.042 C 
ATOM     26  H5  ALA d   1       0.891   7.094   8.914  0.00  0.00     0.030 H 
ATOM     27  H6  ALA d   1      -0.536   6.102   8.461  0.00  0.00     0.030 H 
ATOM     28  H7  ALA d   1      -0.316   7.736   7.748  0.00  0.00     0.030 H 
ENDBRANCH  19  25
ENDBRANCH  16  19
ENDBRANCH  13  15
BRANCH  13  29
ATOM     29  CB  GLN d   1       4.937   4.562   8.604  0.00  0.00    -0.030 C 
ATOM     30  H10 GLN d   1       5.602   3.761   8.960  0.00  0.00     0.037 H 
ATOM     31  H11 GLN d   1       5.170   5.496   9.137  0.00  0.00     0.037 H 
BRANCH  29  32
ATOM     32  CG  GLN d   1       5.226   4.785   7.125  0.00  0.00     0.011 C 
ATOM     33  H12 GLN d   1       6.166   5.349   7.034  0.00  0.00     0.047 H 
ATOM     34  H13 GLN d   1       4.403   5.373   6.693  0.00  0.00     0.047 H 
BRANCH  32  35
ATOM     35  CD  GLN d   1       5.361   3.491   6.336  0.00  0.00     0.215 C 
ATOM     36  NE2 GLN d   1       4.918   3.517   5.080  0.00  0.00    -0.370 N 
ATOM     37  H14 GLN d   1       4.980   2.697   4.511  0.00  0.00     0.159 HD
ATOM     38  H15 GLN d   1       4.524   4.356   4.706  0.00  0.00     0.159 HD
ATOM     39  OE1 GLN d   1       5.879   2.490   6.834  0.00  0.00    -0.274 OA
ENDBRANCH  32  35
ENDBRANCH  29  32
ENDBRANCH  13  29
ENDBRANCH  10  13
ENDBRANCH   7   9
BRANCH   7  40
ATOM     40  CB  THR d   1       1.566   1.133  11.464  0.00  0.00     0.060 C 
ATOM     41  H18 THR d   1       1.675   0.287  10.770  0.00  0.00     0.086 H 
BRANCH  40  42
ATOM     42  CG2 THR d   1       0.865   0.655  12.716  0.00  0.00    -0.050 C 
ATOM     43  H20 THR d   1      -0.125   0.254  12.452  0.00  0.00     0.031 H 
ATOM     44  H21 THR d   1       0.745   1.497  13.413  0.00  0.00     0.031 H 
ATOM     45  H22 THR d   1       1.465  -0.134  13.193  0.00  0.00     0.031 H 
ENDBRANCH  40  42
BRANCH  40  46
ATOM     46  OG1 THR d   1       0.769   2.157  10.851  0.00  0.00    -0.393 OA
ATOM     47  H19 THR d   1       1.201   2.464  10.063  0.00  0.00     0.210 HD
ENDBRANCH  40  46
ENDBRANCH   7  40
ENDBRANCH   4   7
ENDBRANCH   1   3
BRANCH   1  48
ATOM     48  CB  PHE d   1       7.277   1.109  13.549  0.00  0.00    -0.014 C 
ATOM     49  H25 PHE d   1       8.162   0.459  13.616  0.00  0.00     0.043 H 
ATOM     50  H26 PHE d   1       7.223   1.748  14.443  0.00  0.00     0.043 H 
BRANCH  48  51
ATOM     51  CG  PHE d   1       7.427   1.994  12.340  0.00  0.00    -0.056 A 
ATOM     52  CD1 PHE d   1       7.113   3.352  12.411  0.00  0.00    -0.077 A 
ATOM     53  CE1 PHE d   1       7.225   4.174  11.294  0.00  0.00    -0.082 A 
ATOM     54  H27 PHE d   1       6.777   3.773  13.351  0.00  0.00     0.084 H 
ATOM     55  CZ  PHE d   1       7.674   3.646  10.092  0.00  0.00    -0.083 A 
ATOM     56  H29 PHE d   1       6.962   5.223  11.363  0.00  0.00     0.083 H 
ATOM     57  CE2 PHE d   1       7.994   2.292  10.011  0.00  0.00    -0.082 A 
ATOM     58  H31 PHE d   1       7.775   4.283   9.221  0.00  0.00     0.083 H 
ATOM     59  CD2 PHE d   1       7.863   1.471  11.125  0.00  0.00    -0.077 A 
ATOM     60  H30 PHE d   1       8.347   1.877   9.074  0.00  0.00     0.083 H 
ATOM     61  H28 PHE d   1       8.102   0.416  11.048  0.00  0.00     0.084 H 
ENDBRANCH  48  51
ENDBRANCH   1  48
BRANCH   1  62
ATOM     62  C   PHE d   1       5.874  -0.641  14.761  0.00  0.00     0.241 C 
ATOM     63  O   PHE d   1       6.735  -0.705  15.653  0.00  0.00    -0.271 OA
ATOM     64  N   TYR d   1       4.748  -1.335  14.800  0.00  0.00    -0.346 N 
ATOM     65  H32 TYR d   1       3.979  -1.063  14.222  0.00  0.00     0.163 HD
BRANCH  64  66
ATOM     66  CA  TYR d   1       4.617  -2.483  15.670  0.00  0.00     0.093 C 
ATOM     67  H33 TYR d   1       4.694  -2.145  16.714  0.00  0.00     0.088 H 
BRANCH  66  68
ATOM     68  CB  TYR d   1       3.241  -3.116  15.472  0.00  0.00    -0.014 C 
ATOM     69  H34 TYR d   1       3.053  -3.208  14.392  0.00  0.00     0.043 H 
ATOM     70  H35 TYR d   1       2.486  -2.454  15.921  0.00  0.00     0.043 H 
BRANCH  68  71
ATOM     71  CG  TYR d   1       3.109  -4.477  16.094  0.00  0.00    -0.056 A 
ATOM     72  CD1 TYR d   1       2.993  -4.617  17.469  0.00  0.00    -0.074 A 
ATOM     73  CE1 TYR d   1       2.878  -5.860  18.047  0.00  0.00    -0.051 A 
ATOM     74  H36 TYR d   1       2.993  -3.734  18.098  0.00  0.00     0.084 H 
ATOM     75  CZ  TYR d   1       2.892  -6.985  17.254  0.00  0.00     0.065 A 
ATOM     76  H38 TYR d   1       2.777  -5.953  19.122  0.00  0.00     0.087 H 
ATOM     77  CE2 TYR d   1       3.018  -6.881  15.884  0.00  0.00    -0.051 A 
ATOM     78  CD2 TYR d   1       3.119  -5.622  15.310  0.00  0.00    -0.074 A 
ATOM     79  H39 TYR d   1       3.038  -7.771  15.265  0.00  0.00     0.087 H 
ATOM     80  H37 TYR d   1       3.207  -5.531  14.233  0.00  0.00     0.084 H 
BRANCH  75  81
ATOM     81  OH  TYR d   1       2.764  -8.216  17.842  0.00  0.00    -0.361 OA
ATOM     82  H40 TYR d   1       2.688  -8.110  18.783  0.00  0.00     0.217 HD
ENDBRANCH  75  81
ENDBRANCH  68  71
ENDBRANCH  66  68
BRANCH  66  83
ATOM     83  C   TYR d   1       5.755  -3.478  15.404  0.00  0.00     0.241 C 
ATOM     84  O   TYR d   1       6.027  -3.869  14.260  0.00  0.00    -0.271 OA
ATOM     85  N   VAL d   1       6.456  -3.837  16.471  0.00  0.00    -0.346 N 
ATOM     86  H41 VAL d   1       6.288  -3.379  17.344  0.00  0.00     0.163 HD
BRANCH  85  87
ATOM     87  CA  VAL d   1       7.468  -4.886  16.398  0.00  0.00     0.092 C 
ATOM     88  H42 VAL d   1       7.421  -5.317  15.387  0.00  0.00     0.088 H 
BRANCH  87  89
ATOM     89  CB  VAL d   1       8.920  -4.368  16.601  0.00  0.00    -0.033 C 
ATOM     90  H43 VAL d   1       8.911  -3.643  17.428  0.00  0.00     0.042 H 
BRANCH  89  91
ATOM     91  CG2 VAL d   1       9.416  -3.650  15.343  0.00  0.00    -0.071 C 
ATOM     92  H47 VAL d   1       8.722  -2.835  15.088  0.00  0.00     0.028 H 
ATOM     93  H48 VAL d   1       9.464  -4.364  14.508  0.00  0.00     0.028 H 
ATOM     94  H49 VAL d   1      10.417  -3.234  15.529  0.00  0.00     0.028 H 
ENDBRANCH  89  91
BRANCH  89  95
ATOM     95  CG1 VAL d   1       9.866  -5.508  16.980  0.00  0.00    -0.071 C 
ATOM     96  H44 VAL d   1      10.883  -5.111  17.116  0.00  0.00     0.028 H 
ATOM     97  H45 VAL d   1       9.871  -6.262  16.179  0.00  0.00     0.028 H 
ATOM     98  H46 VAL d   1       9.525  -5.971  17.917  0.00  0.00     0.028 H 
ENDBRANCH  89  95
ENDBRANCH  87  89
BRANCH  87  99
ATOM     99  C   VAL d   1       7.124  -5.985  17.386  0.00  0.00     0.241 C 
ATOM    100  O   VAL d   1       6.941  -5.752  18.592  0.00  0.00    -0.271 OA
ATOM    101  N   ASP d   1       7.026  -7.187  16.833  0.00  0.00    -0.345 N 
ATOM    102  H50 ASP d   1       7.155  -7.270  15.845  0.00  0.00     0.163 HD
BRANCH 101 103
ATOM    103  CA  ASP d   1       6.740  -8.385  17.595  0.00  0.00     0.098 C 
ATOM    104  H51 ASP d   1       6.459  -8.107  18.622  0.00  0.00     0.088 H 
BRANCH 103 105
ATOM    105  CB  ASP d   1       5.552  -9.110  16.951  0.00  0.00     0.043 C 
ATOM    106  H52 ASP d   1       5.599  -8.957  15.863  0.00  0.00     0.052 H 
ATOM    107  H53 ASP d   1       4.622  -8.672  17.343  0.00  0.00     0.052 H 
BRANCH 105 108
ATOM    108  CG  ASP d   1       5.535 -10.601  17.227  0.00  0.00     0.175 C 
ATOM    109  OD1 ASP d   1       5.998 -11.020  18.312  0.00  0.00    -0.648 OA
ATOM    110  OD2 ASP d   1       5.042 -11.347  16.348  0.00  0.00    -0.648 OA
ENDBRANCH 105 108
ENDBRANCH 103 105
BRANCH 103 111
ATOM    111  C   ASP d   1       8.022  -9.226  17.654  0.00  0.00     0.241 C 
ATOM    112  O   ASP d   1       8.476  -9.772  16.641  0.00  0.00    -0.271 OA
ATOM    113  N   GLY d   1       8.584  -9.319  18.860  0.00  0.00    -0.349 N 
ATOM    114  H54 GLY d   1       8.070  -8.992  19.653  0.00  0.00     0.163 HD
BRANCH 113 115
ATOM    115  CA  GLY d   1       9.914  -9.877  19.073  0.00  0.00     0.072 C 
ATOM    116  H55 GLY d   1      10.461  -9.215  19.761  0.00  0.00     0.080 H 
ATOM    117  H56 GLY d   1      10.434  -9.911  18.105  0.00  0.00     0.080 H 
BRANCH 115 118
ATOM    118  C   GLY d   1       9.908 -11.275  19.660  0.00  0.00     0.158 C 
ATOM    119  O   GLY d   1      10.951 -11.788  20.083  0.00  0.00    -0.649 OA
BRANCH 118 120
ATOM    120  O1  GLY d   1       8.768 -11.957  19.721  0.00  0.00    -0.775 OA
ATOM    121  H57 GLY d   1       8.065 -11.431  19.359  0.00  0.00     0.167 HD
ENDBRANCH 118 120
ENDBRANCH 115 118
ENDBRANCH 113 115
ENDBRANCH 103 111
ENDBRANCH 101 103
ENDBRANCH  87  99
ENDBRANCH  85  87
ENDBRANCH  66  83
ENDBRANCH  64  66
ENDBRANCH   1  62
TORSDOF 34
