REMARK  18 active torsions:
REMARK  status: ('A' for Active; 'I' for Inactive)
REMARK    1  A    between atoms: S31_2  and  C22_5 
REMARK    2  A    between atoms: C11_7  and  S17_8 
REMARK    3  A    between atoms: C15_14  and  S21_15 
REMARK    4  A    between atoms: C3_22  and  N1_23 
REMARK       I    between atoms: N1_23  and  C2_24 
REMARK    5  A    between atoms: C2_24  and  C5_26 
REMARK    6  A    between atoms: C20_30  and  C27_31 
REMARK    7  A    between atoms: C13_32  and  N19_33 
REMARK       I    between atoms: N19_33  and  C26_34 
REMARK    8  A    between atoms: C26_34  and  C33_36 
REMARK    9  A    between atoms: C39_41  and  N41_42 
REMARK       I    between atoms: N41_42  and  C43_43 
REMARK       I    between atoms: C43_43  and  N44_45 
REMARK   10  A    between atoms: N44_45  and  C46_46 
REMARK   11  A    between atoms: C49_51  and  C51_52 
REMARK       I    between atoms: C51_52  and  N53_54 
REMARK   12  A    between atoms: N53_54  and  C55_55 
REMARK   13  A    between atoms: C57_57  and  C59_58 
REMARK   14  A    between atoms: C58_61  and  C61_62 
REMARK       I    between atoms: C61_62  and  N63_64 
REMARK   15  A    between atoms: N63_64  and  C65_65 
REMARK   16  A    between atoms: C71_68  and  S75_69 
REMARK   17  A    between atoms: C69_76  and  S73_77 
REMARK   18  A    between atoms: C76_82  and  S83_83 
ROOT
ATOM      1  N41 SVR d   1       9.591 -14.476   8.076  0.00  0.00    -0.309 N 
ATOM      2  C43 SVR d   1       8.979 -14.634   9.249  0.00  0.00     0.325 C 
ATOM      3  O45 SVR d   1       9.496 -15.106  10.242  0.00  0.00    -0.247 OA
ATOM      4  N44 SVR d   1       7.708 -14.243   9.200  0.00  0.00    -0.309 N 
ATOM      5  H17 SVR d   1       9.013 -14.109   7.347  0.00  0.00     0.170 HD
ATOM      6  H18 SVR d   1       7.401 -13.907   8.309  0.00  0.00     0.170 HD
ENDROOT
BRANCH   1   7
ATOM      7  C39 SVR d   1      10.909 -14.740   7.701  0.00  0.00     0.037 A 
ATOM      8  C37 SVR d   1      11.786 -15.496   8.465  0.00  0.00    -0.042 A 
ATOM      9  C33 SVR d   1      13.089 -15.699   8.013  0.00  0.00     0.034 A 
ATOM     10  H13 SVR d   1      11.461 -15.925   9.406  0.00  0.00     0.088 H 
ATOM     11  C38 SVR d   1      13.510 -15.137   6.807  0.00  0.00    -0.068 A 
ATOM     12  C40 SVR d   1      12.639 -14.375   6.043  0.00  0.00    -0.080 A 
ATOM     13  H14 SVR d   1      14.526 -15.297   6.465  0.00  0.00     0.085 H 
ATOM     14  C42 SVR d   1      11.338 -14.174   6.494  0.00  0.00    -0.057 A 
ATOM     15  H15 SVR d   1      12.968 -13.941   5.106  0.00  0.00     0.083 H 
ATOM     16  H16 SVR d   1      10.652 -13.575   5.907  0.00  0.00     0.086 H 
BRANCH   9  17
ATOM     17  C26 SVR d   1      14.047 -16.524   8.820  0.00  0.00     0.256 C 
ATOM     18  N19 SVR d   1      13.553 -17.349   9.749  0.00  0.00    -0.322 N 
ATOM     19  H12 SVR d   1      12.562 -17.380   9.877  0.00  0.00     0.169 HD
ATOM     20  O32 SVR d   1      15.243 -16.408   8.615  0.00  0.00    -0.267 OA
BRANCH  18  21
ATOM     21  C13 SVR d   1      14.354 -18.174  10.553  0.00  0.00     0.042 A 
ATOM     22  C8  SVR d   1      14.340 -19.541  10.276  0.00  0.00    -0.041 A 
ATOM     23  C5  SVR d   1      15.073 -20.437  11.052  0.00  0.00     0.034 A 
ATOM     24  H6  SVR d   1      13.751 -19.912   9.445  0.00  0.00     0.088 H 
ATOM     25  C9  SVR d   1      15.869 -19.952  12.092  0.00  0.00    -0.067 A 
ATOM     26  C14 SVR d   1      15.885 -18.581  12.374  0.00  0.00    -0.074 A 
ATOM     27  H7  SVR d   1      16.472 -20.635  12.679  0.00  0.00     0.085 H 
ATOM     28  C20 SVR d   1      15.131 -17.690  11.610  0.00  0.00    -0.035 A 
ATOM     29  H8  SVR d   1      16.489 -18.208  13.194  0.00  0.00     0.084 H 
BRANCH  23  30
ATOM     30  C2  SVR d   1      15.044 -21.893  10.682  0.00  0.00     0.256 C 
ATOM     31  N1  SVR d   1      15.934 -22.705  11.259  0.00  0.00    -0.322 N 
ATOM     32  H5  SVR d   1      16.490 -22.291  11.980  0.00  0.00     0.169 HD
ATOM     33  O4  SVR d   1      14.209 -22.270   9.872  0.00  0.00    -0.267 OA
BRANCH  31  34
ATOM     34  C3  SVR d   1      16.199 -24.066  10.993  0.00  0.00     0.047 A 
ATOM     35  C7  SVR d   1      16.194 -24.338   9.625  0.00  0.00    -0.055 A 
ATOM     36  C12 SVR d   1      16.486 -25.589   9.115  0.00  0.00    -0.056 A 
ATOM     37  H4  SVR d   1      15.952 -23.538   8.935  0.00  0.00     0.087 H 
ATOM     38  C15 SVR d   1      16.867 -26.613   9.962  0.00  0.00     0.091 A 
ATOM     39  H3  SVR d   1      16.416 -25.768   8.048  0.00  0.00     0.086 H 
ATOM     40  C10 SVR d   1      16.891 -26.365  11.353  0.00  0.00     0.004 A 
ATOM     41  C16 SVR d   1      17.254 -27.425  12.181  0.00  0.00    -0.047 A 
ATOM     42  C6  SVR d   1      16.592 -25.082  11.915  0.00  0.00     0.027 A 
ATOM     43  C22 SVR d   1      17.332 -27.285  13.555  0.00  0.00     0.083 A 
ATOM     44  H2  SVR d   1      17.482 -28.387  11.736  0.00  0.00     0.087 H 
ATOM     45  C18 SVR d   1      17.041 -26.049  14.114  0.00  0.00    -0.035 A 
ATOM     46  C11 SVR d   1      16.707 -24.936  13.334  0.00  0.00     0.095 A 
ATOM     47  H1  SVR d   1      17.073 -25.942  15.192  0.00  0.00     0.088 H 
BRANCH  38  48
ATOM     48  S21 SVR d   1      17.099 -28.070   9.278  0.00  0.00     0.138 S 
ATOM     49  O28 SVR d   1      18.550 -28.382   9.382  0.00  0.00    -0.591 OA
ATOM     50  O29 SVR d   1      16.292 -29.046   9.938  0.00  0.00    -0.591 OA
ATOM     51  O30 SVR d   1      16.732 -27.919   7.848  0.00  0.00    -0.591 OA
ENDBRANCH  38  48
BRANCH  43  52
ATOM     52  S31 SVR d   1      17.771 -28.532  14.464  0.00  0.00     0.137 S 
ATOM     53  O35 SVR d   1      18.312 -29.595  13.587  0.00  0.00    -0.591 OA
ATOM     54  O36 SVR d   1      18.770 -28.092  15.426  0.00  0.00    -0.591 OA
ATOM     55  O34 SVR d   1      16.562 -29.033  15.168  0.00  0.00    -0.591 OA
ENDBRANCH  43  52
BRANCH  46  56
ATOM     56  S17 SVR d   1      16.320 -23.679  14.264  0.00  0.00     0.138 S 
ATOM     57  O23 SVR d   1      16.743 -23.911  15.653  0.00  0.00    -0.591 OA
ATOM     58  O24 SVR d   1      16.991 -22.488  13.713  0.00  0.00    -0.591 OA
ATOM     59  O25 SVR d   1      14.859 -23.522  14.178  0.00  0.00    -0.591 OA
ENDBRANCH  46  56
ENDBRANCH  31  34
ENDBRANCH  23  30
BRANCH  28  60
ATOM     60  C27 SVR d   1      15.175 -16.217  11.953  0.00  0.00    -0.049 C 
ATOM     61  H9  SVR d   1      15.844 -16.060  12.812  0.00  0.00     0.033 H 
ATOM     62  H10 SVR d   1      14.163 -15.870  12.208  0.00  0.00     0.033 H 
ATOM     63  H11 SVR d   1      15.550 -15.650  11.088  0.00  0.00     0.033 H 
ENDBRANCH  28  60
ENDBRANCH  18  21
ENDBRANCH   9  17
ENDBRANCH   1   7
BRANCH   4  64
ATOM     64  C46 SVR d   1       6.741 -14.231  10.203  0.00  0.00     0.037 A 
ATOM     65  C47 SVR d   1       5.869 -13.169  10.098  0.00  0.00    -0.042 A 
ATOM     66  C49 SVR d   1       4.849 -12.971  11.009  0.00  0.00     0.034 A 
ATOM     67  H19 SVR d   1       5.987 -12.470   9.278  0.00  0.00     0.088 H 
ATOM     68  C52 SVR d   1       4.657 -13.880  12.052  0.00  0.00    -0.068 A 
ATOM     69  C50 SVR d   1       5.541 -14.963  12.167  0.00  0.00    -0.080 A 
ATOM     70  H22 SVR d   1       3.843 -13.751  12.757  0.00  0.00     0.085 H 
ATOM     71  C48 SVR d   1       6.587 -15.152  11.246  0.00  0.00    -0.057 A 
ATOM     72  H21 SVR d   1       5.416 -15.668  12.981  0.00  0.00     0.083 H 
ATOM     73  H20 SVR d   1       7.261 -15.995  11.342  0.00  0.00     0.086 H 
BRANCH  66  74
ATOM     74  C51 SVR d   1       3.973 -11.787  10.738  0.00  0.00     0.256 C 
ATOM     75  O54 SVR d   1       3.918 -11.376   9.582  0.00  0.00    -0.267 OA
ATOM     76  N53 SVR d   1       3.255 -11.198  11.675  0.00  0.00    -0.322 N 
ATOM     77  H23 SVR d   1       3.273 -11.485  12.633  0.00  0.00     0.169 HD
BRANCH  76  78
ATOM     78  C55 SVR d   1       2.463 -10.133  11.214  0.00  0.00     0.042 A 
ATOM     79  C56 SVR d   1       3.001  -8.853  11.117  0.00  0.00    -0.041 A 
ATOM     80  C58 SVR d   1       2.208  -7.807  10.654  0.00  0.00     0.034 A 
ATOM     81  H24 SVR d   1       4.032  -8.672  11.400  0.00  0.00     0.088 H 
ATOM     82  C62 SVR d   1       0.880  -8.042  10.287  0.00  0.00    -0.067 A 
ATOM     83  C60 SVR d   1       0.342  -9.323  10.368  0.00  0.00    -0.074 A 
ATOM     84  H29 SVR d   1       0.265  -7.221   9.937  0.00  0.00     0.085 H 
ATOM     85  C57 SVR d   1       1.134 -10.370  10.828  0.00  0.00    -0.035 A 
ATOM     86  H28 SVR d   1      -0.686  -9.503  10.075  0.00  0.00     0.084 H 
BRANCH  80  87
ATOM     87  C61 SVR d   1       2.788  -6.424  10.580  0.00  0.00     0.256 C 
ATOM     88  O64 SVR d   1       3.957  -6.263  10.920  0.00  0.00    -0.267 OA
ATOM     89  N63 SVR d   1       1.987  -5.441  10.151  0.00  0.00    -0.322 N 
ATOM     90  H30 SVR d   1       1.053  -5.685   9.889  0.00  0.00     0.169 HD
BRANCH  89  91
ATOM     91  C65 SVR d   1       2.362  -4.094  10.042  0.00  0.00     0.047 A 
ATOM     92  C67 SVR d   1       2.780  -3.524  11.244  0.00  0.00    -0.055 A 
ATOM     93  C70 SVR d   1       3.170  -2.196  11.311  0.00  0.00    -0.056 A 
ATOM     94  H31 SVR d   1       2.800  -4.131  12.142  0.00  0.00     0.087 H 
ATOM     95  C71 SVR d   1       3.163  -1.398  10.175  0.00  0.00     0.091 A 
ATOM     96  H32 SVR d   1       3.484  -1.776  12.260  0.00  0.00     0.086 H 
ATOM     97  C68 SVR d   1       2.709  -1.949   8.958  0.00  0.00     0.004 A 
ATOM     98  C66 SVR d   1       2.305  -3.317   8.852  0.00  0.00     0.027 A 
ATOM     99  C72 SVR d   1       2.694  -1.121   7.831  0.00  0.00    -0.047 A 
ATOM    100  C69 SVR d   1       1.901  -3.804   7.567  0.00  0.00     0.095 A 
ATOM    101  C74 SVR d   1       1.888  -2.922   6.482  0.00  0.00    -0.035 A 
ATOM    102  C76 SVR d   1       2.263  -1.589   6.598  0.00  0.00     0.083 A 
ATOM    103  H34 SVR d   1       1.573  -3.292   5.513  0.00  0.00     0.088 H 
ATOM    104  H33 SVR d   1       3.026  -0.093   7.923  0.00  0.00     0.087 H 
BRANCH  95 105
ATOM    105  S75 SVR d   1       3.572   0.151  10.425  0.00  0.00     0.138 S 
ATOM    106  O80 SVR d   1       3.885   0.290  11.907  0.00  0.00    -0.591 OA
ATOM    107  O81 SVR d   1       4.783   0.438   9.666  0.00  0.00    -0.591 OA
ATOM    108  O82 SVR d   1       2.474   1.015  10.074  0.00  0.00    -0.591 OA
ENDBRANCH  95 105
BRANCH 100 109
ATOM    109  S73 SVR d   1       1.335  -5.277   7.157  0.00  0.00     0.138 S 
ATOM    110  O77 SVR d   1       1.007  -5.252   5.735  0.00  0.00    -0.591 OA
ATOM    111  O78 SVR d   1       0.209  -5.624   7.983  0.00  0.00    -0.591 OA
ATOM    112  O79 SVR d   1       2.453  -6.293   7.379  0.00  0.00    -0.591 OA
ENDBRANCH 100 109
BRANCH 102 113
ATOM    113  S83 SVR d   1       2.303  -0.612   5.315  0.00  0.00     0.137 S 
ATOM    114  O85 SVR d   1       3.116   0.581   5.587  0.00  0.00    -0.591 OA
ATOM    115  O86 SVR d   1       2.925  -1.389   4.197  0.00  0.00    -0.591 OA
ATOM    116  O84 SVR d   1       0.931  -0.264   4.966  0.00  0.00    -0.591 OA
ENDBRANCH 102 113
ENDBRANCH  89  91
ENDBRANCH  80  87
BRANCH  85 117
ATOM    117  C59 SVR d   1       0.527 -11.751  10.903  0.00  0.00    -0.049 C 
ATOM    118  H25 SVR d   1      -0.516 -11.712  10.556  0.00  0.00     0.033 H 
ATOM    119  H26 SVR d   1       0.554 -12.107  11.943  0.00  0.00     0.033 H 
ATOM    120  H27 SVR d   1       1.101 -12.439  10.265  0.00  0.00     0.033 H 
ENDBRANCH  85 117
ENDBRANCH  76  78
ENDBRANCH  66  74
ENDBRANCH   4  64
TORSDOF 18
