REMARK  2 active torsions:
REMARK  status: ('A' for Active; 'I' for Inactive)
REMARK    1  A    between atoms: P1_2  and  OPP_5 
REMARK    2  A    between atoms: OPP_5  and  P2_6 
ROOT
ATOM      1  OPP NON d   1     -24.539   0.501  65.010  0.00  0.00    -0.166 OA
ENDROOT
BRANCH   1   2
ATOM      2  P1  NON d   1     -25.727   1.474  65.578  0.00  0.00     0.432 P 
ATOM      3  O11 NON d   1     -26.759   0.512  66.111  0.00  0.00    -0.616 OA
ATOM      4  O21 NON d   1     -26.175   2.314  64.405  0.00  0.00    -0.616 OA
ATOM      5  O31 NON d   1     -25.118   2.249  66.722  0.00  0.00    -0.616 OA
ENDBRANCH   1   2
BRANCH   1   6
ATOM      6  P2  NON d   1     -23.824   0.425  63.543  0.00  0.00     0.432 P 
ATOM      7  O12 NON d   1     -23.917   1.784  62.898  0.00  0.00    -0.616 OA
ATOM      8  O22 NON d   1     -24.507  -0.655  62.760  0.00  0.00    -0.616 OA
ATOM      9  O32 NON d   1     -22.418   0.018  63.894  0.00  0.00    -0.616 OA
ENDBRANCH   1   6
TORSDOF 2
