REMARK  9 active torsions:
REMARK  status: ('A' for Active; 'I' for Inactive)
REMARK    1  A    between atoms: O3A_8  and  PB_1 
REMARK    2  A    between atoms: PA_5  and  O3A_8 
REMARK    3  A    between atoms: PA_5  and  O5'_9 
REMARK    4  A    between atoms: O5'_9  and  C5'_10 
REMARK    5  A    between atoms: C5'_10  and  C4'_11 
REMARK    6  A    between atoms: C3'_13  and  O3'_14 
REMARK    7  A    between atoms: C2'_15  and  O2'_16 
REMARK    8  A    between atoms: C1'_17  and  N9_18 
REMARK    9  A    between atoms: C6_22  and  N6_23 
ROOT
ATOM      1  C4' ADP d   1      16.652  19.161  52.310  0.00  0.00     0.089 C 
ATOM      2  O4' ADP d   1      17.075  18.506  53.551  0.00  0.00    -0.353 OA
ATOM      3  C3' ADP d   1      16.937  20.643  52.546  0.00  0.00     0.091 C 
ATOM      4  C2' ADP d   1      16.445  20.771  53.988  0.00  0.00     0.105 C 
ATOM      5  C1' ADP d   1      16.980  19.477  54.625  0.00  0.00     0.139 C 
ATOM      6  H3  ADP d   1      15.571  19.025  52.162  0.00  0.00     0.090 H 
ATOM      7  H4  ADP d   1      18.002  20.896  52.441  0.00  0.00     0.091 H 
ATOM      8  H6  ADP d   1      16.843  21.672  54.477  0.00  0.00     0.093 H 
ATOM      9  H8  ADP d   1      16.304  19.128  55.420  0.00  0.00     0.122 H 
ENDROOT
BRANCH   5  10
ATOM     10  N9  ADP d   1      18.339  19.682  55.160  0.00  0.00    -0.294 N 
ATOM     11  C8  ADP d   1      19.465  19.144  54.686  0.00  0.00     0.071 A 
ATOM     12  N7  ADP d   1      20.497  19.563  55.419  0.00  0.00    -0.236 NA
ATOM     13  H9  ADP d   1      19.530  18.469  53.834  0.00  0.00     0.144 H 
ATOM     14  C5  ADP d   1      20.025  20.378  56.364  0.00  0.00     0.149 A 
ATOM     15  C6  ADP d   1      20.603  21.104  57.406  0.00  0.00     0.155 A 
ATOM     16  C4  ADP d   1      18.651  20.448  56.200  0.00  0.00     0.167 A 
ATOM     17  N1  ADP d   1      19.805  21.834  58.192  0.00  0.00    -0.222 NA
ATOM     18  C2  ADP d   1      18.495  21.886  58.001  0.00  0.00     0.091 A 
ATOM     19  N3  ADP d   1      17.914  21.207  57.030  0.00  0.00    -0.222 NA
ATOM     20  H12 ADP d   1      17.887  22.500  58.656  0.00  0.00     0.146 H 
BRANCH  15  21
ATOM     21  N6  ADP d   1      21.916  21.087  57.634  0.00  0.00    -0.382 N 
ATOM     22  H10 ADP d   1      22.311  21.634  58.412  0.00  0.00     0.157 HD
ATOM     23  H11 ADP d   1      22.536  20.526  57.032  0.00  0.00     0.157 HD
ENDBRANCH  15  21
ENDBRANCH   5  10
BRANCH   4  24
ATOM     24  O2' ADP d   1      15.002  20.758  54.050  0.00  0.00    -0.388 OA
ATOM     25  H7  ADP d   1      14.658  21.486  53.546  0.00  0.00     0.210 HD
ENDBRANCH   4  24
BRANCH   1  26
ATOM     26  C5' ADP d   1      17.375  18.533  51.106  0.00  0.00     0.058 C 
ATOM     27  H1  ADP d   1      17.290  17.439  51.183  0.00  0.00     0.079 H 
ATOM     28  H2  ADP d   1      16.878  18.875  50.187  0.00  0.00     0.079 H 
BRANCH  26  29
ATOM     29  O5' ADP d   1      18.775  18.875  51.020  0.00  0.00    -0.287 OA
BRANCH  29  30
ATOM     30  PA  ADP d   1      19.448  18.671  49.559  0.00  0.00     0.418 P 
ATOM     31  O1A ADP d   1      19.184  17.261  49.167  0.00  0.00    -0.624 OA
ATOM     32  O2A ADP d   1      20.832  19.203  49.499  0.00  0.00    -0.624 OA
BRANCH  30  33
ATOM     33  O3A ADP d   1      18.415  19.556  48.672  0.00  0.00    -0.173 OA
BRANCH  33  34
ATOM     34  PB  ADP d   1      18.429  21.149  48.596  0.00  0.00     0.431 P 
ATOM     35  O1B ADP d   1      17.463  21.775  49.514  0.00  0.00    -0.616 OA
ATOM     36  O2B ADP d   1      18.108  21.499  47.053  0.00  0.00    -0.616 OA
ATOM     37  O3B ADP d   1      19.940  21.679  48.778  0.00  0.00    -0.616 OA
ENDBRANCH  33  34
ENDBRANCH  30  33
ENDBRANCH  29  30
ENDBRANCH  26  29
ENDBRANCH   1  26
BRANCH   3  38
ATOM     38  O3' ADP d   1      16.139  21.433  51.646  0.00  0.00    -0.390 OA
ATOM     39  H5  ADP d   1      16.357  21.206  50.749  0.00  0.00     0.210 HD
ENDBRANCH   3  38
TORSDOF 9
