REMARK  14 active torsions:
REMARK  status: ('A' for Active; 'I' for Inactive)
REMARK    1  A    between atoms: C2_2  and  C7_7 
REMARK    2  A    between atoms: C2_2  and  C8_8 
REMARK    3  A    between atoms: N5_5  and  C9_9 
REMARK    4  A    between atoms: C12_12  and  C15_15 
REMARK       I    between atoms: C15_15  and  N17_17 
REMARK    5  A    between atoms: N17_17  and  S18_18 
REMARK    6  A    between atoms: S18_18  and  C19_19 
REMARK    7  A    between atoms: C21_21  and  N35_35 
REMARK    8  A    between atoms: C22_22  and  N25_25 
REMARK    9  A    between atoms: N25_25  and  C26_26 
REMARK   10  A    between atoms: C26_26  and  C27_27 
REMARK   11  A    between atoms: C26_26  and  C40_40 
REMARK   12  A    between atoms: C26_26  and  C41_41 
REMARK   13  A    between atoms: C27_27  and  S28_28 
REMARK   14  A    between atoms: S28_28  and  C29_29 
ROOT
ATOM      1  S18 LIU d   1       2.311  11.150   4.188  0.00  0.00     0.265 S 
ATOM      2  O38 LIU d   1       3.106  11.950   5.314  0.00  0.00    -0.200 OA
ATOM      3  O39 LIU d   1       0.833  11.705   4.017  0.00  0.00    -0.200 OA
ENDROOT
BRANCH   1   4
ATOM      4  N17 LIU d   1       2.025   9.571   4.759  0.00  0.00    -0.246 N 
ATOM      5  C15 LIU d   1       2.996   8.665   4.887  0.00  0.00     0.265 C 
ATOM      6  O16 LIU d   1       4.130   9.061   4.644  0.00  0.00    -0.267 OA
ATOM      7  H19 LIU d   1       1.092   9.313   5.008  0.00  0.00     0.182 HD
BRANCH   5   8
ATOM      8  C12 LIU d   1       2.711   7.217   5.303  0.00  0.00     0.033 A 
ATOM      9  C11 LIU d   1       3.815   6.349   5.384  0.00  0.00    -0.066 A 
ATOM     10  C10 LIU d   1       3.661   5.019   5.753  0.00  0.00    -0.056 A 
ATOM     11  H16 LIU d   1       4.805   6.726   5.154  0.00  0.00     0.085 H 
ATOM     12  C9  LIU d   1       2.400   4.491   6.056  0.00  0.00     0.030 A 
ATOM     13  H15 LIU d   1       4.533   4.378   5.808  0.00  0.00     0.086 H 
ATOM     14  C14 LIU d   1       1.287   5.351   5.976  0.00  0.00    -0.056 A 
ATOM     15  C13 LIU d   1       1.437   6.689   5.606  0.00  0.00    -0.066 A 
ATOM     16  H18 LIU d   1       0.299   4.968   6.205  0.00  0.00     0.086 H 
ATOM     17  H17 LIU d   1       0.565   7.330   5.551  0.00  0.00     0.085 H 
BRANCH  12  18
ATOM     18  N5  LIU d   1       2.260   3.061   6.456  0.00  0.00    -0.381 N 
ATOM     19  C4  LIU d   1       1.079   2.198   6.120  0.00  0.00    -0.004 C 
ATOM     20  C3  LIU d   1       1.502   0.879   5.426  0.00  0.00    -0.044 C 
ATOM     21  H5  LIU d   1       0.542   1.954   7.048  0.00  0.00     0.064 H 
ATOM     22  H6  LIU d   1       0.412   2.756   5.446  0.00  0.00     0.064 H 
ATOM     23  C2  LIU d   1       2.589   0.061   6.182  0.00  0.00    -0.045 C 
ATOM     24  H3  LIU d   1       0.609   0.246   5.322  0.00  0.00     0.036 H 
ATOM     25  H4  LIU d   1       1.893   1.128   4.429  0.00  0.00     0.036 H 
ATOM     26  C1  LIU d   1       3.744   1.025   6.570  0.00  0.00    -0.044 C 
ATOM     27  C6  LIU d   1       3.294   2.331   7.265  0.00  0.00    -0.004 C 
ATOM     28  H1  LIU d   1       4.287   1.296   5.652  0.00  0.00     0.036 H 
ATOM     29  H2  LIU d   1       4.421   0.490   7.252  0.00  0.00     0.036 H 
ATOM     30  H7  LIU d   1       4.169   2.984   7.398  0.00  0.00     0.064 H 
ATOM     31  H8  LIU d   1       2.868   2.083   8.248  0.00  0.00     0.064 H 
BRANCH  23  32
ATOM     32  C7  LIU d   1       3.133  -1.050   5.262  0.00  0.00    -0.069 C 
ATOM     33  H9  LIU d   1       3.901  -1.627   5.798  0.00  0.00     0.028 H 
ATOM     34  H10 LIU d   1       3.576  -0.597   4.363  0.00  0.00     0.028 H 
ATOM     35  H11 LIU d   1       2.310  -1.719   4.969  0.00  0.00     0.028 H 
ENDBRANCH  23  32
BRANCH  23  36
ATOM     36  C8  LIU d   1       2.003  -0.632   7.430  0.00  0.00    -0.069 C 
ATOM     37  H12 LIU d   1       1.602   0.128   8.117  0.00  0.00     0.028 H 
ATOM     38  H13 LIU d   1       2.794  -1.204   7.937  0.00  0.00     0.028 H 
ATOM     39  H14 LIU d   1       1.196  -1.314   7.125  0.00  0.00     0.028 H 
ENDBRANCH  23  36
ENDBRANCH  12  18
ENDBRANCH   5   8
ENDBRANCH   1   4
BRANCH   1  40
ATOM     40  C19 LIU d   1       3.171  11.127   2.647  0.00  0.00     0.082 A 
ATOM     41  C20 LIU d   1       2.453  11.122   1.456  0.00  0.00    -0.026 A 
ATOM     42  C21 LIU d   1       3.125  11.074   0.222  0.00  0.00     0.130 A 
ATOM     43  H20 LIU d   1       1.370  11.155   1.479  0.00  0.00     0.089 H 
ATOM     44  C22 LIU d   1       4.553  11.078   0.214  0.00  0.00     0.062 A 
ATOM     45  C23 LIU d   1       5.235  11.080   1.440  0.00  0.00    -0.053 A 
ATOM     46  C24 LIU d   1       4.553  11.123   2.642  0.00  0.00    -0.058 A 
ATOM     47  H21 LIU d   1       6.319  11.047   1.445  0.00  0.00     0.087 H 
ATOM     48  H22 LIU d   1       5.100  11.153   3.577  0.00  0.00     0.086 H 
BRANCH  42  49
ATOM     49  N35 LIU d   1       2.242  11.015  -1.015  0.00  0.00    -0.113 N 
ATOM     50  O36 LIU d   1       2.548  10.344  -1.992  0.00  0.00    -0.532 OA
ATOM     51  O37 LIU d   1       1.193  11.635  -1.087  0.00  0.00    -0.532 OA
ENDBRANCH  42  49
BRANCH  44  52
ATOM     52  N25 LIU d   1       5.278  11.041  -1.083  0.00  0.00    -0.379 N 
ATOM     53  H23 LIU d   1       4.621  11.049  -1.876  0.00  0.00     0.160 HD
BRANCH  52  54
ATOM     54  C26 LIU d   1       6.693  10.996  -1.558  0.00  0.00     0.032 C 
BRANCH  54  55
ATOM     55  C27 LIU d   1       7.131   9.542  -1.877  0.00  0.00     0.004 C 
ATOM     56  H24 LIU d   1       8.019   9.587  -2.525  0.00  0.00     0.053 H 
ATOM     57  H25 LIU d   1       6.309   9.048  -2.415  0.00  0.00     0.053 H 
BRANCH  55  58
ATOM     58  S28 LIU d   1       7.546   8.524  -0.415  0.00  0.00    -0.128 SA
BRANCH  58  59
ATOM     59  C29 LIU d   1       6.076   7.979   0.359  0.00  0.00     0.000 A 
ATOM     60  C30 LIU d   1       6.127   7.655   1.718  0.00  0.00    -0.067 A 
ATOM     61  C31 LIU d   1       4.940   7.380   2.395  0.00  0.00    -0.082 A 
ATOM     62  H26 LIU d   1       7.077   7.618   2.238  0.00  0.00     0.085 H 
ATOM     63  C32 LIU d   1       3.720   7.400   1.714  0.00  0.00    -0.083 A 
ATOM     64  H27 LIU d   1       4.963   7.150   3.454  0.00  0.00     0.083 H 
ATOM     65  C33 LIU d   1       3.687   7.690   0.344  0.00  0.00    -0.082 A 
ATOM     66  H28 LIU d   1       2.799   7.191   2.246  0.00  0.00     0.083 H 
ATOM     67  C34 LIU d   1       4.870   7.957  -0.345  0.00  0.00    -0.067 A 
ATOM     68  H29 LIU d   1       2.739   7.707  -0.182  0.00  0.00     0.083 H 
ATOM     69  H30 LIU d   1       4.854   8.145  -1.413  0.00  0.00     0.085 H 
ENDBRANCH  58  59
ENDBRANCH  55  58
ENDBRANCH  54  55
BRANCH  54  70
ATOM     70  C40 LIU d   1       6.704  11.838  -2.834  0.00  0.00    -0.053 C 
ATOM     71  H31 LIU d   1       7.721  11.857  -3.252  0.00  0.00     0.030 H 
ATOM     72  H32 LIU d   1       6.386  12.864  -2.599  0.00  0.00     0.030 H 
ATOM     73  H33 LIU d   1       6.013  11.399  -3.569  0.00  0.00     0.030 H 
ENDBRANCH  54  70
BRANCH  54  74
ATOM     74  C41 LIU d   1       7.678  11.689  -0.600  0.00  0.00    -0.053 C 
ATOM     75  H34 LIU d   1       8.697  11.619  -1.008  0.00  0.00     0.030 H 
ATOM     76  H35 LIU d   1       7.642  11.196   0.383  0.00  0.00     0.030 H 
ATOM     77  H36 LIU d   1       7.399  12.747  -0.489  0.00  0.00     0.030 H 
ENDBRANCH  54  74
ENDBRANCH  52  54
ENDBRANCH  44  52
ENDBRANCH   1  40
TORSDOF 14
