REMARK  2 active torsions:
REMARK  status: ('A' for Active; 'I' for Inactive)
REMARK    1  A    between atoms: C14_7  and  C13_8 
REMARK       I    between atoms: C13_8  and  N10_10 
REMARK    2  A    between atoms: N10_10  and  C5_11 
ROOT
ATOM      1  C5  738 d   1      21.310   9.322  32.260  0.00  0.00     0.098 A 
ATOM      2  C2  738 d   1      21.272   7.945  32.053  0.00  0.00     0.085 A 
ATOM      3  C6  738 d   1      20.262   7.091  32.584  0.00  0.00     0.103 C 
ATOM      4  N11 738 d   1      19.403   6.442  33.020  0.00  0.00    -0.191 NA
ATOM      5  S7  738 d   1      22.608   9.914  31.498  0.00  0.00    -0.075 SA
ATOM      6  C3  738 d   1      23.157   8.554  30.867  0.00  0.00    -0.007 A 
ATOM      7  C8  738 d   1      24.382   8.415  30.005  0.00  0.00    -0.034 C 
ATOM      8  C12 738 d   1      24.378   7.057  29.276  0.00  0.00    -0.061 C 
ATOM      9  C9  738 d   1      24.003   5.895  30.220  0.00  0.00    -0.061 C 
ATOM     10  C4  738 d   1      22.586   6.070  30.826  0.00  0.00    -0.038 C 
ATOM     11  C1  738 d   1      22.330   7.506  31.256  0.00  0.00    -0.021 A 
ATOM     12  H6  738 d   1      25.279   8.484  30.637  0.00  0.00     0.040 H 
ATOM     13  H7  738 d   1      24.395   9.225  29.261  0.00  0.00     0.040 H 
ATOM     14  H8  738 d   1      25.381   6.871  28.866  0.00  0.00     0.033 H 
ATOM     15  H9  738 d   1      23.648   7.097  28.455  0.00  0.00     0.033 H 
ATOM     16  H10 738 d   1      24.736   5.852  31.039  0.00  0.00     0.033 H 
ATOM     17  H11 738 d   1      24.032   4.953  29.652  0.00  0.00     0.033 H 
ATOM     18  H12 738 d   1      22.490   5.413  31.703  0.00  0.00     0.040 H 
ATOM     19  H13 738 d   1      21.838   5.785  30.071  0.00  0.00     0.040 H 
ENDROOT
BRANCH   1  20
ATOM     20  N10 738 d   1      20.378  10.082  33.027  0.00  0.00    -0.316 N 
ATOM     21  C13 738 d   1      20.290  11.467  33.184  0.00  0.00     0.259 C 
ATOM     22  O15 738 d   1      21.049  12.226  32.627  0.00  0.00    -0.267 OA
ATOM     23  H5  738 d   1      19.692   9.549  33.521  0.00  0.00     0.169 HD
BRANCH  21  24
ATOM     24  C14 738 d   1      19.223  12.028  34.045  0.00  0.00     0.070 A 
ATOM     25  C16 738 d   1      18.907  11.491  35.297  0.00  0.00     0.132 A 
ATOM     26  F19 738 d   1      19.545  10.426  35.794  0.00  0.00    -0.205 F 
ATOM     27  C18 738 d   1      17.899  12.062  36.052  0.00  0.00    -0.045 A 
ATOM     28  C21 738 d   1      17.192  13.153  35.579  0.00  0.00    -0.080 A 
ATOM     29  H1  738 d   1      17.660  11.650  37.026  0.00  0.00     0.088 H 
ATOM     30  C20 738 d   1      17.501  13.703  34.346  0.00  0.00    -0.082 A 
ATOM     31  H2  738 d   1      16.393  13.579  36.175  0.00  0.00     0.083 H 
ATOM     32  C17 738 d   1      18.517  13.142  33.579  0.00  0.00    -0.065 A 
ATOM     33  H3  738 d   1      16.955  14.565  33.981  0.00  0.00     0.083 H 
ATOM     34  H4  738 d   1      18.763  13.571  32.614  0.00  0.00     0.085 H 
ENDBRANCH  21  24
ENDBRANCH   1  20
TORSDOF 2
