REMARK  5 active torsions:
REMARK  status: ('A' for Active; 'I' for Inactive)
REMARK    1  A    between atoms: C6_6  and  O29_21 
REMARK    2  A    between atoms: C10_8  and  O27_20 
REMARK    3  A    between atoms: C11_9  and  C14_10 
REMARK    4  A    between atoms: C17_13  and  O24_19 
REMARK    5  A    between atoms: C18_14  and  O23_18 
ROOT
ATOM      1  C1  QUE d   1      74.079  40.468   1.927  0.00  0.00    -0.018 A 
ATOM      2  C2  QUE d   1      73.895  40.241   0.569  0.00  0.00     0.126 A 
ATOM      3  C3  QUE d   1      74.182  38.891   0.024  0.00  0.00     0.084 A 
ATOM      4  C4  QUE d   1      74.661  37.849   0.956  0.00  0.00     0.077 A 
ATOM      5  C5  QUE d   1      74.815  38.165   2.300  0.00  0.00     0.025 A 
ATOM      6  C6  QUE d   1      74.523  39.447   2.767  0.00  0.00     0.052 A 
ATOM      7  C9  QUE d   1      74.032  38.481  -1.397  0.00  0.00     0.223 A 
ATOM      8  C10 QUE d   1      74.364  37.106  -1.777  0.00  0.00     0.152 A 
ATOM      9  C11 QUE d   1      74.808  36.210  -0.882  0.00  0.00     0.123 A 
ATOM     10  O12 QUE d   1      74.946  36.595   0.505  0.00  0.00    -0.310 OA
ATOM     11  O13 QUE d   1      73.650  39.245  -2.252  0.00  0.00    -0.284 OA
ATOM     12  O30 QUE d   1      73.463  41.230  -0.187  0.00  0.00    -0.191 OA
ATOM     13  H1  QUE d   1      73.874  41.454   2.341  0.00  0.00     0.091 H 
ATOM     14  H2  QUE d   1      75.869  37.972   2.550  0.00  0.00     0.053 H 
ATOM     15  H3  QUE d   1      74.172  37.472   2.862  0.00  0.00     0.053 H 
ENDROOT
BRANCH   9  16
ATOM     16  C14 QUE d   1      75.156  34.763  -1.168  0.00  0.00     0.004 A 
ATOM     17  C15 QUE d   1      75.099  34.180  -2.440  0.00  0.00    -0.068 A 
ATOM     18  C16 QUE d   1      75.418  32.831  -2.619  0.00  0.00    -0.047 A 
ATOM     19  H4  QUE d   1      74.805  34.780  -3.293  0.00  0.00     0.085 H 
ATOM     20  C17 QUE d   1      75.789  32.033  -1.534  0.00  0.00     0.098 A 
ATOM     21  H5  QUE d   1      75.377  32.399  -3.612  0.00  0.00     0.087 H 
ATOM     22  C18 QUE d   1      75.856  32.642  -0.205  0.00  0.00     0.099 A 
ATOM     23  C19 QUE d   1      75.533  33.984  -0.055  0.00  0.00    -0.035 A 
ATOM     24  H6  QUE d   1      75.571  34.438   0.929  0.00  0.00     0.089 H 
BRANCH  20  25
ATOM     25  O24 QUE d   1      76.117  30.743  -1.646  0.00  0.00    -0.358 OA
ATOM     26  H8  QUE d   1      76.032  30.473  -2.553  0.00  0.00     0.217 HD
ENDBRANCH  20  25
BRANCH  22  27
ATOM     27  O23 QUE d   1      76.226  31.870   0.801  0.00  0.00    -0.358 OA
ATOM     28  H7  QUE d   1      76.399  30.993   0.479  0.00  0.00     0.217 HD
ENDBRANCH  22  27
ENDBRANCH   9  16
BRANCH   8  29
ATOM     29  O27 QUE d   1      74.211  36.810  -3.070  0.00  0.00    -0.355 OA
ATOM     30  H9  QUE d   1      73.889  37.575  -3.533  0.00  0.00     0.218 HD
ENDBRANCH   8  29
BRANCH   6  31
ATOM     31  O29 QUE d   1      74.693  39.716   4.064  0.00  0.00    -0.365 OA
ATOM     32  H10 QUE d   1      74.456  40.620   4.232  0.00  0.00     0.217 HD
ENDBRANCH   6  31
TORSDOF 5
