REMARK  9 active torsions:
REMARK  status: ('A' for Active; 'I' for Inactive)
REMARK    1  A    between atoms: C4_4  and  C10_10 
REMARK    2  A    between atoms: C12_12  and  C4_4 
REMARK    3  A    between atoms: C14_14  and  C5_5 
REMARK    4  A    between atoms: C6_6  and  C8_8 
REMARK    5  A    between atoms: C13_13  and  C6_6 
REMARK    6  A    between atoms: C8_8  and  O16_16 
REMARK    7  A    between atoms: C10_10  and  C9_9 
REMARK    8  A    between atoms: O16_16  and  C11_11 
REMARK    9  A    between atoms: C12_12  and  C13_13 
ROOT
ATOM      1  C6  AI7 d   1      54.109  64.936  -1.120  0.00  0.00    -0.045 C 
ATOM      2  H6  AI7 d   1      53.348  65.692  -0.877  0.00  0.00     0.036 H 
ATOM      3  H7  AI7 d   1      55.096  65.288  -0.786  0.00  0.00     0.036 H 
ENDROOT
BRANCH   1   4
ATOM      4  C8  AI7 d   1      54.139  64.724  -2.629  0.00  0.00     0.026 C 
ATOM      5  H9  AI7 d   1      53.687  65.589  -3.136  0.00  0.00     0.075 H 
ATOM      6  H10 AI7 d   1      53.580  63.813  -2.889  0.00  0.00     0.075 H 
BRANCH   4   7
ATOM      7  O16 AI7 d   1      55.488  64.587  -3.025  0.00  0.00    -0.351 OA
BRANCH   7   8
ATOM      8  C11 AI7 d   1      55.834  64.463  -4.356  0.00  0.00     0.069 A 
ATOM      9  C1  AI7 d   1      57.194  64.135  -4.646  0.00  0.00    -0.034 A 
ATOM     10  C14 AI7 d   1      57.688  63.975  -5.976  0.00  0.00     0.043 A 
ATOM     11  H1  AI7 d   1      57.882  64.002  -3.819  0.00  0.00     0.089 H 
ATOM     12  C3  AI7 d   1      56.790  64.150  -7.076  0.00  0.00    -0.066 A 
ATOM     13  C2  AI7 d   1      55.434  64.477  -6.827  0.00  0.00    -0.079 A 
ATOM     14  H3  AI7 d   1      57.145  64.033  -8.094  0.00  0.00     0.085 H 
ATOM     15  C7  AI7 d   1      54.966  64.630  -5.489  0.00  0.00    -0.051 A 
ATOM     16  H2  AI7 d   1      54.750  64.611  -7.657  0.00  0.00     0.083 H 
ATOM     17  H8  AI7 d   1      53.925  64.880  -5.321  0.00  0.00     0.087 H 
BRANCH  10  18
ATOM     18  C5  AI7 d   1      59.128  63.627  -6.229  0.00  0.00     0.209 C 
ATOM     19  O15 AI7 d   1      59.630  63.464  -7.464  0.00  0.00    -0.644 OA
ATOM     20  O17 AI7 d   1      59.922  63.472  -5.300  0.00  0.00    -0.644 OA
ENDBRANCH  10  18
ENDBRANCH   7   8
ENDBRANCH   4   7
ENDBRANCH   1   4
BRANCH   1  21
ATOM     21  C13 AI7 d   1      53.769  63.630  -0.392  0.00  0.00    -0.063 C 
ATOM     22  H18 AI7 d   1      54.683  63.023  -0.311  0.00  0.00     0.033 H 
ATOM     23  H19 AI7 d   1      53.017  63.084  -0.981  0.00  0.00     0.033 H 
BRANCH  21  24
ATOM     24  C12 AI7 d   1      53.210  63.870   1.020  0.00  0.00    -0.065 C 
ATOM     25  H16 AI7 d   1      53.425  62.989   1.642  0.00  0.00     0.033 H 
ATOM     26  H17 AI7 d   1      53.703  64.753   1.452  0.00  0.00     0.033 H 
BRANCH  24  27
ATOM     27  C4  AI7 d   1      51.692  64.108   1.002  0.00  0.00    -0.065 C 
ATOM     28  H4  AI7 d   1      51.478  64.990   0.381  0.00  0.00     0.033 H 
ATOM     29  H5  AI7 d   1      51.199  63.226   0.568  0.00  0.00     0.033 H 
BRANCH  27  30
ATOM     30  C10 AI7 d   1      51.135  64.345   2.410  0.00  0.00    -0.069 C 
ATOM     31  H14 AI7 d   1      51.624  65.230   2.843  0.00  0.00     0.032 H 
ATOM     32  H15 AI7 d   1      51.352  63.465   3.033  0.00  0.00     0.032 H 
BRANCH  30  33
ATOM     33  C9  AI7 d   1      49.620  64.576   2.384  0.00  0.00    -0.077 C 
ATOM     34  H11 AI7 d   1      49.257  64.742   3.409  0.00  0.00     0.027 H 
ATOM     35  H12 AI7 d   1      49.122  63.693   1.957  0.00  0.00     0.027 H 
ATOM     36  H13 AI7 d   1      49.394  65.459   1.768  0.00  0.00     0.027 H 
ENDBRANCH  30  33
ENDBRANCH  27  30
ENDBRANCH  24  27
ENDBRANCH  21  24
ENDBRANCH   1  21
TORSDOF 9
