REMARK  6 active torsions:
REMARK  status: ('A' for Active; 'I' for Inactive)
REMARK    1  A    between atoms: CAA_1  and  PAM_2 
REMARK    2  A    between atoms: PAM_2  and  N_5 
REMARK    3  A    between atoms: N_5  and  CA_6 
REMARK    4  A    between atoms: CA_6  and  C_7 
REMARK    5  A    between atoms: CA_6  and  CB_10 
REMARK    6  A    between atoms: CB_10  and  CG_11 
ROOT
ATOM      1  CA  AS9 d   1     -42.463   7.877 -42.976  0.00  0.00     0.106 C 
ATOM      2  H5  AS9 d   1     -43.040   8.688 -43.445  0.00  0.00     0.090 H 
ENDROOT
BRANCH   1   3
ATOM      3  N   AS9 d   1     -41.877   8.360 -41.709  0.00  0.00    -0.334 N 
ATOM      4  H4  AS9 d   1     -41.018   7.999 -41.347  0.00  0.00     0.164 HD
BRANCH   3   5
ATOM      5  PAM AS9 d   1     -42.718   9.512 -40.947  0.00  0.00     0.202 P 
ATOM      6  OAG AS9 d   1     -44.231   8.961 -40.800  0.00  0.00    -0.652 OA
ATOM      7  OAD AS9 d   1     -42.722  10.844 -41.563  0.00  0.00    -0.652 OA
BRANCH   5   8
ATOM      8  CAA AS9 d   1     -41.971   9.621 -39.320  0.00  0.00     0.013 C 
ATOM      9  H1  AS9 d   1     -41.965   8.626 -38.852  0.00  0.00     0.044 H 
ATOM     10  H2  AS9 d   1     -42.552  10.316 -38.696  0.00  0.00     0.044 H 
ATOM     11  H3  AS9 d   1     -40.938   9.988 -39.414  0.00  0.00     0.044 H 
ENDBRANCH   5   8
ENDBRANCH   3   5
ENDBRANCH   1   3
BRANCH   1  12
ATOM     12  C   AS9 d   1     -43.407   6.655 -42.757  0.00  0.00     0.197 C 
ATOM     13  OXT AS9 d   1     -44.422   6.584 -43.477  0.00  0.00    -0.646 OA
ATOM     14  O   AS9 d   1     -43.117   5.806 -41.883  0.00  0.00    -0.646 OA
ENDBRANCH   1  12
BRANCH   1  15
ATOM     15  CB  AS9 d   1     -41.284   7.489 -43.880  0.00  0.00     0.044 C 
ATOM     16  H6  AS9 d   1     -41.229   6.391 -43.922  0.00  0.00     0.053 H 
ATOM     17  H7  AS9 d   1     -40.361   7.885 -43.431  0.00  0.00     0.053 H 
BRANCH  15  18
ATOM     18  CG  AS9 d   1     -41.385   8.021 -45.320  0.00  0.00     0.175 C 
ATOM     19  OD2 AS9 d   1     -41.831   9.186 -45.504  0.00  0.00    -0.648 OA
ATOM     20  OD1 AS9 d   1     -40.990   7.232 -46.208  0.00  0.00    -0.648 OA
ENDBRANCH  15  18
ENDBRANCH   1  15
TORSDOF 6
