REMARK  15 active torsions:
REMARK  status: ('A' for Active; 'I' for Inactive)
REMARK    1  A    between atoms: C3_3  and  C20_20 
REMARK    2  A    between atoms: C4_4  and  O8_8 
REMARK    3  A    between atoms: C6_6  and  C9_9 
REMARK    4  A    between atoms: C6_6  and  C12_12 
REMARK    5  A    between atoms: C9_9  and  C10_10 
REMARK    6  A    between atoms: C10_10  and  C11_11 
REMARK    7  A    between atoms: C12_12  and  C13_13 
REMARK    8  A    between atoms: C13_13  and  C14_14 
REMARK    9  A    between atoms: C20_20  and  C21_21 
REMARK   10  A    between atoms: C20_20  and  C23_23 
REMARK   11  A    between atoms: C21_21  and  C22_22 
REMARK   12  A    between atoms: C27_27  and  N28_28 
REMARK   13  A    between atoms: N28_28  and  S30_30 
REMARK   14  A    between atoms: S30_30  and  C33_33 
REMARK   15  A    between atoms: C36_36  and  C39_39 
ROOT
ATOM      1  O1  TPV d   1      13.694  22.029  16.586  0.00  0.00    -0.306 OA
ATOM      2  C2  TPV d   1      12.445  21.345  16.810  0.00  0.00     0.293 C 
ATOM      3  C3  TPV d   1      12.460  20.039  17.477  0.00  0.00     0.055 C 
ATOM      4  C4  TPV d   1      13.686  19.500  17.784  0.00  0.00     0.059 C 
ATOM      5  C5  TPV d   1      15.015  20.174  17.484  0.00  0.00     0.009 C 
ATOM      6  C6  TPV d   1      14.904  21.689  17.254  0.00  0.00     0.077 C 
ATOM      7  O7  TPV d   1      11.436  21.893  16.414  0.00  0.00    -0.259 OA
ATOM      8  H1  TPV d   1      15.440  19.716  16.578  0.00  0.00     0.047 H 
ATOM      9  H2  TPV d   1      15.691  20.001  18.334  0.00  0.00     0.047 H 
ENDROOT
BRANCH   3  10
ATOM     10  C20 TPV d   1      11.099  19.394  17.714  0.00  0.00     0.005 C 
ATOM     11  H20 TPV d   1      10.372  20.218  17.661  0.00  0.00     0.055 H 
BRANCH  10  12
ATOM     12  C21 TPV d   1      10.872  18.723  19.091  0.00  0.00    -0.057 C 
ATOM     13  H21 TPV d   1      11.584  17.890  19.190  0.00  0.00     0.033 H 
ATOM     14  H22 TPV d   1       9.844  18.332  19.118  0.00  0.00     0.033 H 
BRANCH  12  15
ATOM     15  C22 TPV d   1      11.061  19.662  20.290  0.00  0.00    -0.076 C 
ATOM     16  H23 TPV d   1      10.882  19.107  21.222  0.00  0.00     0.027 H 
ATOM     17  H24 TPV d   1      10.348  20.497  20.218  0.00  0.00     0.027 H 
ATOM     18  H25 TPV d   1      12.088  20.055  20.289  0.00  0.00     0.027 H 
ENDBRANCH  12  15
ENDBRANCH  10  12
BRANCH  10  19
ATOM     19  C23 TPV d   1      10.749  18.441  16.624  0.00  0.00    -0.047 A 
ATOM     20  C24 TPV d   1      11.681  17.855  15.775  0.00  0.00    -0.076 A 
ATOM     21  C25 TPV d   1      11.271  16.974  14.766  0.00  0.00    -0.080 A 
ATOM     22  H26 TPV d   1      12.734  18.082  15.895  0.00  0.00     0.084 H 
ATOM     23  C26 TPV d   1       9.914  16.682  14.613  0.00  0.00    -0.057 A 
ATOM     24  H27 TPV d   1      12.003  16.521  14.107  0.00  0.00     0.083 H 
ATOM     25  C27 TPV d   1       8.963  17.254  15.456  0.00  0.00     0.043 A 
ATOM     26  H28 TPV d   1       9.597  16.003  13.830  0.00  0.00     0.086 H 
ATOM     27  C29 TPV d   1       9.395  18.133  16.443  0.00  0.00    -0.050 A 
ATOM     28  H30 TPV d   1       8.660  18.595  17.093  0.00  0.00     0.087 H 
BRANCH  25  29
ATOM     29  N28 TPV d   1       7.617  16.983  15.324  0.00  0.00    -0.279 N 
ATOM     30  H29 TPV d   1       7.019  17.643  14.870  0.00  0.00     0.179 HD
BRANCH  29  31
ATOM     31  S30 TPV d   1       7.006  15.613  15.895  0.00  0.00     0.280 S 
ATOM     32  O31 TPV d   1       7.835  14.503  15.440  0.00  0.00    -0.199 OA
ATOM     33  O32 TPV d   1       5.630  15.463  15.474  0.00  0.00    -0.199 OA
BRANCH  31  34
ATOM     34  C33 TPV d   1       7.115  15.860  17.494  0.00  0.00     0.171 A 
ATOM     35  N34 TPV d   1       8.199  15.439  18.202  0.00  0.00    -0.247 NA
ATOM     36  C35 TPV d   1       8.313  15.716  19.529  0.00  0.00     0.018 A 
ATOM     37  C36 TPV d   1       7.335  16.438  20.236  0.00  0.00     0.065 A 
ATOM     38  H31 TPV d   1       9.191  15.367  20.061  0.00  0.00     0.116 H 
ATOM     39  C37 TPV d   1       6.227  16.909  19.516  0.00  0.00    -0.064 A 
ATOM     40  C38 TPV d   1       6.138  16.619  18.152  0.00  0.00    -0.041 A 
ATOM     41  H32 TPV d   1       5.454  17.487  20.009  0.00  0.00     0.085 H 
ATOM     42  H33 TPV d   1       5.290  16.991  17.588  0.00  0.00     0.088 H 
BRANCH  37  43
ATOM     43  C39 TPV d   1       7.487  16.789  21.700  0.00  0.00     0.418 C 
ATOM     44  F40 TPV d   1       7.966  15.823  22.487  0.00  0.00    -0.166 F 
ATOM     45  F41 TPV d   1       6.348  17.233  22.187  0.00  0.00    -0.166 F 
ATOM     46  F42 TPV d   1       8.338  17.810  21.734  0.00  0.00    -0.166 F 
ENDBRANCH  37  43
ENDBRANCH  31  34
ENDBRANCH  29  31
ENDBRANCH  25  29
ENDBRANCH  10  19
ENDBRANCH   3  10
BRANCH   4  47
ATOM     47  O8  TPV d   1      13.816  18.320  18.355  0.00  0.00    -0.364 OA
ATOM     48  H3  TPV d   1      14.306  17.744  17.780  0.00  0.00     0.217 HD
ENDBRANCH   4  47
BRANCH   6  49
ATOM     49  C9  TPV d   1      14.837  22.282  18.683  0.00  0.00    -0.035 C 
ATOM     50  H4  TPV d   1      15.513  21.686  19.314  0.00  0.00     0.037 H 
ATOM     51  H5  TPV d   1      13.803  22.161  19.037  0.00  0.00     0.037 H 
BRANCH  49  52
ATOM     52  C10 TPV d   1      15.209  23.736  18.877  0.00  0.00    -0.066 C 
ATOM     53  H6  TPV d   1      14.487  24.379  18.353  0.00  0.00     0.032 H 
ATOM     54  H7  TPV d   1      16.218  23.919  18.480  0.00  0.00     0.032 H 
BRANCH  52  55
ATOM     55  C11 TPV d   1      15.179  24.035  20.365  0.00  0.00    -0.076 C 
ATOM     56  H8  TPV d   1      15.447  25.089  20.533  0.00  0.00     0.027 H 
ATOM     57  H9  TPV d   1      15.900  23.387  20.884  0.00  0.00     0.027 H 
ATOM     58  H10 TPV d   1      14.168  23.847  20.757  0.00  0.00     0.027 H 
ENDBRANCH  52  55
ENDBRANCH  49  52
ENDBRANCH   6  49
BRANCH   6  59
ATOM     59  C12 TPV d   1      16.053  22.210  16.385  0.00  0.00    -0.032 C 
ATOM     60  H11 TPV d   1      16.995  21.887  16.853  0.00  0.00     0.037 H 
ATOM     61  H12 TPV d   1      15.999  23.309  16.389  0.00  0.00     0.037 H 
BRANCH  59  62
ATOM     62  C13 TPV d   1      16.085  21.748  14.901  0.00  0.00    -0.038 C 
ATOM     63  H13 TPV d   1      15.120  21.972  14.423  0.00  0.00     0.040 H 
ATOM     64  H14 TPV d   1      16.274  20.665  14.854  0.00  0.00     0.040 H 
BRANCH  62  65
ATOM     65  C14 TPV d   1      17.211  22.502  14.173  0.00  0.00    -0.058 A 
ATOM     66  C15 TPV d   1      16.920  23.611  13.377  0.00  0.00    -0.077 A 
ATOM     67  C16 TPV d   1      17.973  24.274  12.728  0.00  0.00    -0.082 A 
ATOM     68  H15 TPV d   1      15.898  23.954  13.262  0.00  0.00     0.084 H 
ATOM     69  C17 TPV d   1      19.307  23.859  12.895  0.00  0.00    -0.083 A 
ATOM     70  H16 TPV d   1      17.755  25.120  12.087  0.00  0.00     0.083 H 
ATOM     71  C18 TPV d   1      19.600  22.760  13.692  0.00  0.00    -0.082 A 
ATOM     72  H17 TPV d   1      20.107  24.398  12.401  0.00  0.00     0.083 H 
ATOM     73  C19 TPV d   1      18.549  22.079  14.297  0.00  0.00    -0.077 A 
ATOM     74  H18 TPV d   1      20.625  22.440  13.839  0.00  0.00     0.083 H 
ATOM     75  H19 TPV d   1      18.767  21.194  14.883  0.00  0.00     0.084 H 
ENDBRANCH  62  65
ENDBRANCH  59  62
ENDBRANCH   6  59
TORSDOF 15
