REMARK  20 active torsions:
REMARK  status: ('A' for Active; 'I' for Inactive)
REMARK    1  A    between atoms: C10_13  and  N1_3 
REMARK    2  A    between atoms: C29_37  and  C4_6 
REMARK    3  A    between atoms: C11_14  and  C10_13 
REMARK    4  A    between atoms: C10_13  and  C13_17 
REMARK       I    between atoms: N3_15  and  C11_14 
REMARK    5  A    between atoms: C12_16  and  N3_15 
REMARK    6  A    between atoms: C12_16  and  C22_27 
REMARK    7  A    between atoms: C23_28  and  C12_16 
REMARK    8  A    between atoms: C13_17  and  C14_18 
REMARK    9  A    between atoms: C13_17  and  C15_19 
REMARK   10  A    between atoms: C22_27  and  C20_25 
REMARK   11  A    between atoms: C24_29  and  C23_28 
REMARK   12  A    between atoms: C25_30  and  C24_29 
REMARK   13  A    between atoms: C24_29  and  O4_36 
REMARK   14  A    between atoms: C25_30  and  N4_31 
REMARK   15  A    between atoms: C25_30  and  C29_37 
REMARK       I    between atoms: N4_31  and  C26_32 
REMARK   16  A    between atoms: C26_32  and  C27_33 
REMARK   17  A    between atoms: C27_33  and  O3_34 
REMARK   18  A    between atoms: O3_34  and  C28_35 
REMARK   19  A    between atoms: C30_39  and  C36_45 
REMARK   20  A    between atoms: C34_43  and  C35_44 
ROOT
ATOM      1  C23 AB1 d   1      12.807 -18.969 -19.504  0.00  0.00    -0.020 C 
ATOM      2  H28 AB1 d   1      12.876 -18.082 -20.151  0.00  0.00     0.040 H 
ATOM      3  H29 AB1 d   1      13.214 -19.842 -20.035  0.00  0.00     0.040 H 
ENDROOT
BRANCH   1   4
ATOM      4  C12 AB1 d   1      11.326 -19.237 -19.253  0.00  0.00     0.018 C 
ATOM      5  H13 AB1 d   1      11.185 -20.227 -18.795  0.00  0.00     0.073 H 
BRANCH   4   6
ATOM      6  N3  AB1 d   1      10.751 -18.174 -18.379  0.00  0.00    -0.354 N 
ATOM      7  C11 AB1 d   1      10.035 -18.413 -17.276  0.00  0.00     0.241 C 
ATOM      8  O2  AB1 d   1       9.779 -19.540 -16.836  0.00  0.00    -0.271 OA
ATOM      9  H12 AB1 d   1      10.912 -17.221 -18.635  0.00  0.00     0.162 HD
BRANCH   7  10
ATOM     10  C10 AB1 d   1       9.560 -17.176 -16.572  0.00  0.00     0.096 C 
ATOM     11  H11 AB1 d   1      10.150 -16.327 -16.948  0.00  0.00     0.088 H 
BRANCH  10  12
ATOM     12  N1  AB1 d   1       8.137 -16.912 -16.899  0.00  0.00    -0.320 N 
ATOM     13  C2  AB1 d   1       7.181 -17.906 -16.370  0.00  0.00     0.002 C 
ATOM     14  C37 AB1 d   1       5.842 -17.203 -16.117  0.00  0.00    -0.035 C 
ATOM     15  H3  AB1 d   1       7.564 -18.325 -15.428  0.00  0.00     0.064 H 
ATOM     16  H4  AB1 d   1       7.043 -18.715 -17.102  0.00  0.00     0.064 H 
ATOM     17  C1  AB1 d   1       5.355 -16.494 -17.388  0.00  0.00    -0.002 C 
ATOM     18  H47 AB1 d   1       5.094 -17.949 -15.810  0.00  0.00     0.037 H 
ATOM     19  H48 AB1 d   1       5.969 -16.461 -15.315  0.00  0.00     0.037 H 
ATOM     20  N2  AB1 d   1       6.444 -15.713 -17.960  0.00  0.00    -0.343 N 
ATOM     21  H1  AB1 d   1       5.019 -17.244 -18.119  0.00  0.00     0.064 H 
ATOM     22  H2  AB1 d   1       4.518 -15.826 -17.137  0.00  0.00     0.064 H 
ATOM     23  C3  AB1 d   1       7.766 -15.886 -17.700  0.00  0.00     0.319 C 
ATOM     24  H5  AB1 d   1       6.196 -14.986 -18.600  0.00  0.00     0.164 HD
ATOM     25  O1  AB1 d   1       8.599 -15.151 -18.207  0.00  0.00    -0.247 OA
ENDBRANCH  10  12
BRANCH  10  26
ATOM     26  C13 AB1 d   1       9.806 -17.271 -15.049  0.00  0.00    -0.033 C 
ATOM     27  H14 AB1 d   1       9.234 -18.139 -14.690  0.00  0.00     0.042 H 
BRANCH  26  28
ATOM     28  C14 AB1 d   1      11.273 -17.536 -14.711  0.00  0.00    -0.071 C 
ATOM     29  H15 AB1 d   1      11.393 -17.594 -13.619  0.00  0.00     0.028 H 
ATOM     30  H16 AB1 d   1      11.894 -16.718 -15.105  0.00  0.00     0.028 H 
ATOM     31  H17 AB1 d   1      11.588 -18.487 -15.166  0.00  0.00     0.028 H 
ENDBRANCH  26  28
BRANCH  26  32
ATOM     32  C15 AB1 d   1       9.270 -16.038 -14.296  0.00  0.00    -0.071 C 
ATOM     33  H18 AB1 d   1       8.215 -15.876 -14.562  0.00  0.00     0.028 H 
ATOM     34  H19 AB1 d   1       9.859 -15.152 -14.577  0.00  0.00     0.028 H 
ATOM     35  H20 AB1 d   1       9.354 -16.205 -13.212  0.00  0.00     0.028 H 
ENDBRANCH  26  32
ENDBRANCH  10  26
ENDBRANCH   7  10
ENDBRANCH   4   6
BRANCH   4  36
ATOM     36  C22 AB1 d   1      10.617 -19.152 -20.622  0.00  0.00    -0.022 C 
ATOM     37  H26 AB1 d   1      11.026 -19.941 -21.270  0.00  0.00     0.043 H 
ATOM     38  H27 AB1 d   1      10.835 -18.167 -21.061  0.00  0.00     0.043 H 
BRANCH  36  39
ATOM     39  C20 AB1 d   1       9.127 -19.319 -20.563  0.00  0.00    -0.056 A 
ATOM     40  C19 AB1 d   1       8.341 -18.172 -20.572  0.00  0.00    -0.077 A 
ATOM     41  C18 AB1 d   1       6.943 -18.312 -20.520  0.00  0.00    -0.082 A 
ATOM     42  H24 AB1 d   1       8.797 -17.190 -20.618  0.00  0.00     0.084 H 
ATOM     43  C17 AB1 d   1       6.353 -19.586 -20.444  0.00  0.00    -0.083 A 
ATOM     44  H23 AB1 d   1       6.314 -17.429 -20.539  0.00  0.00     0.083 H 
ATOM     45  C16 AB1 d   1       7.132 -20.743 -20.472  0.00  0.00    -0.082 A 
ATOM     46  H22 AB1 d   1       5.275 -19.671 -20.362  0.00  0.00     0.083 H 
ATOM     47  C21 AB1 d   1       8.545 -20.602 -20.519  0.00  0.00    -0.077 A 
ATOM     48  H21 AB1 d   1       6.671 -21.724 -20.458  0.00  0.00     0.083 H 
ATOM     49  H25 AB1 d   1       9.177 -21.483 -20.521  0.00  0.00     0.084 H 
ENDBRANCH  36  39
ENDBRANCH   4  36
ENDBRANCH   1   4
BRANCH   1  50
ATOM     50  C24 AB1 d   1      13.699 -18.718 -18.288  0.00  0.00     0.057 C 
ATOM     51  H30 AB1 d   1      13.240 -17.912 -17.697  0.00  0.00     0.086 H 
BRANCH  50  52
ATOM     52  C25 AB1 d   1      13.877 -19.923 -17.383  0.00  0.00     0.041 C 
ATOM     53  H31 AB1 d   1      12.898 -20.286 -17.038  0.00  0.00     0.076 H 
BRANCH  52  54
ATOM     54  N4  AB1 d   1      14.582 -20.991 -18.120  0.00  0.00    -0.352 N 
ATOM     55  C26 AB1 d   1      13.933 -22.159 -18.408  0.00  0.00     0.242 C 
ATOM     56  O5  AB1 d   1      12.768 -22.462 -18.153  0.00  0.00    -0.271 OA
ATOM     57  H32 AB1 d   1      15.531 -20.860 -18.407  0.00  0.00     0.163 HD
BRANCH  55  58
ATOM     58  C27 AB1 d   1      14.730 -23.224 -19.120  0.00  0.00     0.099 C 
ATOM     59  H33 AB1 d   1      14.222 -23.483 -20.060  0.00  0.00     0.089 H 
ATOM     60  H34 AB1 d   1      14.791 -24.115 -18.478  0.00  0.00     0.089 H 
BRANCH  58  61
ATOM     61  O3  AB1 d   1      16.056 -22.771 -19.416  0.00  0.00    -0.341 OA
BRANCH  61  62
ATOM     62  C28 AB1 d   1      16.946 -23.758 -19.740  0.00  0.00     0.081 A 
ATOM     63  C30 AB1 d   1      16.849 -24.383 -20.993  0.00  0.00    -0.028 A 
ATOM     64  C31 AB1 d   1      17.739 -25.406 -21.298  0.00  0.00    -0.074 A 
ATOM     65  C32 AB1 d   1      18.708 -25.836 -20.388  0.00  0.00    -0.082 A 
ATOM     66  H38 AB1 d   1      17.680 -25.884 -22.269  0.00  0.00     0.084 H 
ATOM     67  C33 AB1 d   1      18.783 -25.235 -19.140  0.00  0.00    -0.074 A 
ATOM     68  H39 AB1 d   1      19.395 -26.631 -20.655  0.00  0.00     0.083 H 
ATOM     69  C34 AB1 d   1      17.908 -24.181 -18.811  0.00  0.00    -0.028 A 
ATOM     70  H40 AB1 d   1      19.515 -25.577 -18.418  0.00  0.00     0.084 H 
BRANCH  63  71
ATOM     71  C36 AB1 d   1      15.833 -23.985 -22.058  0.00  0.00    -0.049 C 
ATOM     72  H44 AB1 d   1      15.202 -23.169 -21.676  0.00  0.00     0.033 H 
ATOM     73  H45 AB1 d   1      15.202 -24.852 -22.305  0.00  0.00     0.033 H 
ATOM     74  H46 AB1 d   1      16.362 -23.647 -22.961  0.00  0.00     0.033 H 
ENDBRANCH  63  71
BRANCH  69  75
ATOM     75  C35 AB1 d   1      17.973 -23.537 -17.446  0.00  0.00    -0.049 C 
ATOM     76  H41 AB1 d   1      17.217 -22.740 -17.380  0.00  0.00     0.033 H 
ATOM     77  H42 AB1 d   1      18.974 -23.107 -17.291  0.00  0.00     0.033 H 
ATOM     78  H43 AB1 d   1      17.775 -24.295 -16.673  0.00  0.00     0.033 H 
ENDBRANCH  69  75
ENDBRANCH  61  62
ENDBRANCH  58  61
ENDBRANCH  55  58
ENDBRANCH  52  54
BRANCH  52  79
ATOM     79  C29 AB1 d   1      14.738 -19.501 -16.191  0.00  0.00    -0.020 C 
ATOM     80  H36 AB1 d   1      15.698 -19.113 -16.561  0.00  0.00     0.043 H 
ATOM     81  H37 AB1 d   1      14.215 -18.711 -15.632  0.00  0.00     0.043 H 
BRANCH  79  82
ATOM     82  C4  AB1 d   1      15.001 -20.672 -15.264  0.00  0.00    -0.056 A 
ATOM     83  C5  AB1 d   1      16.297 -21.136 -15.191  0.00  0.00    -0.077 A 
ATOM     84  C6  AB1 d   1      16.620 -22.215 -14.363  0.00  0.00    -0.082 A 
ATOM     85  H6  AB1 d   1      17.072 -20.660 -15.781  0.00  0.00     0.084 H 
ATOM     86  C7  AB1 d   1      15.609 -22.813 -13.619  0.00  0.00    -0.083 A 
ATOM     87  H7  AB1 d   1      17.639 -22.579 -14.302  0.00  0.00     0.083 H 
ATOM     88  C8  AB1 d   1      14.290 -22.349 -13.689  0.00  0.00    -0.082 A 
ATOM     89  H8  AB1 d   1      15.846 -23.652 -12.975  0.00  0.00     0.083 H 
ATOM     90  C9  AB1 d   1      13.977 -21.264 -14.518  0.00  0.00    -0.077 A 
ATOM     91  H9  AB1 d   1      13.513 -22.828 -13.104  0.00  0.00     0.083 H 
ATOM     92  H10 AB1 d   1      12.961 -20.891 -14.580  0.00  0.00     0.084 H 
ENDBRANCH  79  82
ENDBRANCH  52  79
ENDBRANCH  50  52
BRANCH  50  93
ATOM     93  O4  AB1 d   1      14.996 -18.299 -18.719  0.00  0.00    -0.393 OA
ATOM     94  H35 AB1 d   1      14.911 -17.544 -19.289  0.00  0.00     0.210 HD
ENDBRANCH  50  93
ENDBRANCH   1  50
TORSDOF 20
