REMARK  10 active torsions:
REMARK  status: ('A' for Active; 'I' for Inactive)
REMARK    1  A    between atoms: C1_1  and  C6_6 
REMARK    2  A    between atoms: C4_4  and  C8_8 
REMARK    3  A    between atoms: C6_6  and  C7_7 
REMARK    4  A    between atoms: C12_12  and  N15_15 
REMARK    5  A    between atoms: N15_15  and  C16_16 
REMARK    6  A    between atoms: C16_16  and  C17_17 
REMARK    7  A    between atoms: C16_16  and  C21_21 
REMARK       I    between atoms: C17_17  and  N19_19 
REMARK    8  A    between atoms: N19_19  and  S20_20 
REMARK    9  A    between atoms: S20_20  and  C30_30 
REMARK   10  A    between atoms: C33_33  and  N36_36 
ROOT
ATOM      1  C16 VR1 d   1       6.915  36.527  74.670  0.00  0.00     0.115 C 
ATOM      2  H10 VR1 d   1       7.543  35.892  75.313  0.00  0.00     0.095 H 
ENDROOT
BRANCH   1   3
ATOM      3  N15 VR1 d   1       5.969  35.648  73.953  0.00  0.00    -0.352 N 
ATOM      4  H9  VR1 d   1       4.975  35.913  73.996  0.00  0.00     0.162 HD
BRANCH   3   5
ATOM      5  C12 VR1 d   1       6.276  34.490  73.218  0.00  0.00     0.172 A 
ATOM      6  N11 VR1 d   1       5.279  33.799  72.665  0.00  0.00    -0.184 NA
ATOM      7  C10 VR1 d   1       5.745  32.699  71.969  0.00  0.00     0.286 A 
ATOM      8  C9  VR1 d   1       7.225  32.624  72.053  0.00  0.00     0.081 A 
ATOM      9  O14 VR1 d   1       5.042  31.898  71.366  0.00  0.00    -0.265 OA
ATOM     10  C8  VR1 d   1       8.005  31.651  71.458  0.00  0.00    -0.028 C 
ATOM     11  S13 VR1 d   1       7.879  33.921  72.987  0.00  0.00    -0.047 SA
ATOM     12  H8  VR1 d   1       7.449  30.831  71.006  0.00  0.00     0.090 H 
BRANCH  10  13
ATOM     13  C4  VR1 d   1       9.499  31.546  71.336  0.00  0.00     0.077 A 
ATOM     14  C3  VR1 d   1      10.491  32.406  71.822  0.00  0.00    -0.048 A 
ATOM     15  C2  VR1 d   1      11.711  31.902  71.435  0.00  0.00    -0.052 A 
ATOM     16  H2  VR1 d   1      10.326  33.312  72.403  0.00  0.00     0.087 H 
ATOM     17  C1  VR1 d   1      11.486  30.727  70.696  0.00  0.00     0.053 A 
ATOM     18  H1  VR1 d   1      12.683  32.338  71.662  0.00  0.00     0.087 H 
ATOM     19  O5  VR1 d   1      10.116  30.526  70.648  0.00  0.00    -0.315 OA
BRANCH  17  20
ATOM     20  C6  VR1 d   1      12.501  29.826  70.039  0.00  0.00    -0.024 C 
ATOM     21  H3  VR1 d   1      12.032  28.857  69.816  0.00  0.00     0.042 H 
ATOM     22  H4  VR1 d   1      13.347  29.674  70.726  0.00  0.00     0.042 H 
BRANCH  20  23
ATOM     23  C7  VR1 d   1      13.020  30.451  68.727  0.00  0.00    -0.071 C 
ATOM     24  H5  VR1 d   1      13.758  29.777  68.267  0.00  0.00     0.028 H 
ATOM     25  H6  VR1 d   1      13.494  31.420  68.945  0.00  0.00     0.028 H 
ATOM     26  H7  VR1 d   1      12.179  30.602  68.035  0.00  0.00     0.028 H 
ENDBRANCH  20  23
ENDBRANCH  17  20
ENDBRANCH  10  13
ENDBRANCH   3   5
ENDBRANCH   1   3
BRANCH   1  27
ATOM     27  C17 VR1 d   1       6.152  37.506  75.546  0.00  0.00     0.258 C 
ATOM     28  O18 VR1 d   1       5.278  38.286  75.092  0.00  0.00    -0.270 OA
ATOM     29  N19 VR1 d   1       6.454  37.505  76.823  0.00  0.00    -0.248 N 
ATOM     30  H11 VR1 d   1       7.152  36.876  77.165  0.00  0.00     0.182 HD
BRANCH  29  31
ATOM     31  S20 VR1 d   1       5.681  38.548  77.892  0.00  0.00     0.265 S 
ATOM     32  O28 VR1 d   1       6.492  38.509  79.300  0.00  0.00    -0.200 OA
ATOM     33  O29 VR1 d   1       5.701  40.024  77.215  0.00  0.00    -0.200 OA
BRANCH  31  34
ATOM     34  C30 VR1 d   1       4.022  37.963  78.042  0.00  0.00     0.080 A 
ATOM     35  C31 VR1 d   1       2.953  38.809  77.668  0.00  0.00    -0.058 A 
ATOM     36  C32 VR1 d   1       1.621  38.342  77.794  0.00  0.00    -0.050 A 
ATOM     37  H16 VR1 d   1       3.150  39.805  77.289  0.00  0.00     0.086 H 
ATOM     38  C33 VR1 d   1       1.340  37.023  78.294  0.00  0.00     0.102 A 
ATOM     39  H17 VR1 d   1       0.800  38.990  77.509  0.00  0.00     0.087 H 
ATOM     40  C34 VR1 d   1       2.453  36.184  78.663  0.00  0.00    -0.050 A 
ATOM     41  C35 VR1 d   1       3.791  36.644  78.541  0.00  0.00    -0.058 A 
ATOM     42  H18 VR1 d   1       2.265  35.185  79.040  0.00  0.00     0.087 H 
ATOM     43  H19 VR1 d   1       4.622  36.006  78.821  0.00  0.00     0.086 H 
BRANCH  38  44
ATOM     44  N36 VR1 d   1      -0.092  36.530  78.429  0.00  0.00    -0.116 N 
ATOM     45  O37 VR1 d   1      -1.044  37.240  78.118  0.00  0.00    -0.532 OA
ATOM     46  O38 VR1 d   1      -0.342  35.404  78.855  0.00  0.00    -0.532 OA
ENDBRANCH  38  44
ENDBRANCH  31  34
ENDBRANCH  29  31
ENDBRANCH   1  27
BRANCH   1  47
ATOM     47  C21 VR1 d   1       7.858  37.335  73.718  0.00  0.00    -0.026 A 
ATOM     48  C22 VR1 d   1       7.359  38.309  72.720  0.00  0.00    -0.071 A 
ATOM     49  C23 VR1 d   1       8.281  39.025  71.887  0.00  0.00    -0.045 A 
ATOM     50  H12 VR1 d   1       6.293  38.481  72.619  0.00  0.00     0.084 H 
ATOM     51  C24 VR1 d   1       9.698  38.792  72.025  0.00  0.00     0.116 A 
ATOM     52  H13 VR1 d   1       7.915  39.738  71.157  0.00  0.00     0.088 H 
ATOM     53  C25 VR1 d   1      10.201  37.847  72.987  0.00  0.00    -0.045 A 
ATOM     54  F   VR1 d   1      10.571  39.469  71.245  0.00  0.00    -0.206 F 
ATOM     55  C26 VR1 d   1       9.285  37.124  73.829  0.00  0.00    -0.071 A 
ATOM     56  H14 VR1 d   1      11.268  37.680  73.077  0.00  0.00     0.088 H 
ATOM     57  H15 VR1 d   1       9.668  36.414  74.553  0.00  0.00     0.084 H 
ENDBRANCH   1  47
TORSDOF 10
