REMARK  8 active torsions:
REMARK  status: ('A' for Active; 'I' for Inactive)
REMARK    1  A    between atoms: C4_2  and  O34_34 
REMARK    2  A    between atoms: C1_6  and  C18_18 
REMARK       I    between atoms: C18_18  and  N19_19 
REMARK    3  A    between atoms: N19_19  and  C20_20 
REMARK    4  A    between atoms: C20_20  and  C21_21 
REMARK    5  A    between atoms: C21_21  and  C22_22 
REMARK    6  A    between atoms: C25_25  and  N28_28 
REMARK    7  A    between atoms: N28_28  and  S29_29 
REMARK    8  A    between atoms: S29_29  and  C30_30 
ROOT
ATOM      1  C18 HBM d   1      10.913  30.335  -7.208  0.00  0.00     0.254 C 
ATOM      2  N19 HBM d   1       9.842  29.689  -7.930  0.00  0.00    -0.356 N 
ATOM      3  O33 HBM d   1      11.303  30.002  -6.071  0.00  0.00    -0.268 OA
ATOM      4  H7  HBM d   1       9.243  30.244  -8.508  0.00  0.00     0.162 HD
ENDROOT
BRANCH   1   5
ATOM      5  C1  HBM d   1      11.622  31.491  -7.837  0.00  0.00     0.063 A 
ATOM      6  C2  HBM d   1      12.694  32.120  -7.091  0.00  0.00    -0.063 A 
ATOM      7  C3  HBM d   1      13.452  33.239  -7.592  0.00  0.00    -0.048 A 
ATOM      8  H1  HBM d   1      12.937  31.730  -6.109  0.00  0.00     0.085 H 
ATOM      9  C4  HBM d   1      13.186  33.808  -8.892  0.00  0.00     0.094 A 
ATOM     10  H3  HBM d   1      14.239  33.663  -6.979  0.00  0.00     0.087 H 
ATOM     11  C5  HBM d   1      12.125  33.238  -9.706  0.00  0.00     0.097 A 
ATOM     12  C6  HBM d   1      11.345  32.061  -9.155  0.00  0.00     0.104 A 
ATOM     13  N9  HBM d   1      11.543  33.458 -10.970  0.00  0.00    -0.336 N 
ATOM     14  N7  HBM d   1      10.425  31.680 -10.034  0.00  0.00    -0.227 NA
ATOM     15  C8  HBM d   1      10.510  32.503 -11.155  0.00  0.00     0.141 A 
ATOM     16  C10 HBM d   1       9.705  32.419 -12.308  0.00  0.00     0.032 A 
ATOM     17  C11 HBM d   1      10.244  32.829 -13.651  0.00  0.00    -0.066 A 
ATOM     18  C15 HBM d   1       8.209  31.912 -12.358  0.00  0.00     0.049 A 
ATOM     19  C12 HBM d   1       9.486  32.769 -14.850  0.00  0.00    -0.061 A 
ATOM     20  H2  HBM d   1      11.265  33.189 -13.706  0.00  0.00     0.085 H 
ATOM     21  C13 HBM d   1       8.097  32.288 -14.826  0.00  0.00     0.035 A 
ATOM     22  H5  HBM d   1       9.934  33.079 -15.787  0.00  0.00     0.086 H 
ATOM     23  C14 HBM d   1       7.472  31.863 -13.589  0.00  0.00    -0.040 A 
ATOM     24 CL16 HBM d   1       7.204  32.226 -16.291  0.00  0.00    -0.084 Cl
ATOM     25  H6  HBM d   1       6.448  31.508 -13.594  0.00  0.00     0.088 H 
ATOM     26 CL17 HBM d   1       7.318  31.367 -10.962  0.00  0.00    -0.083 Cl
ATOM     27  H4  HBM d   1      11.820  34.186 -11.644  0.00  0.00     0.168 HD
BRANCH   9  28
ATOM     28  O34 HBM d   1      14.037  34.851  -9.131  0.00  0.00    -0.358 OA
ATOM     29  H20 HBM d   1      14.615  34.964  -8.386  0.00  0.00     0.217 HD
ENDBRANCH   9  28
ENDBRANCH   1   5
BRANCH   2  30
ATOM     30  C20 HBM d   1       9.605  28.241  -7.841  0.00  0.00    -0.001 C 
ATOM     31  H8  HBM d   1       8.694  28.047  -7.256  0.00  0.00     0.064 H 
ATOM     32  H9  HBM d   1      10.463  27.751  -7.357  0.00  0.00     0.064 H 
BRANCH  30  33
ATOM     33  C21 HBM d   1       9.432  27.696  -9.283  0.00  0.00    -0.026 C 
ATOM     34  H10 HBM d   1      10.268  27.008  -9.476  0.00  0.00     0.042 H 
ATOM     35  H11 HBM d   1       9.499  28.554  -9.968  0.00  0.00     0.042 H 
BRANCH  33  36
ATOM     36  C22 HBM d   1       8.103  26.926  -9.625  0.00  0.00    -0.057 A 
ATOM     37  C23 HBM d   1       6.875  27.625 -10.162  0.00  0.00    -0.075 A 
ATOM     38  C24 HBM d   1       5.643  26.888 -10.474  0.00  0.00    -0.056 A 
ATOM     39  H12 HBM d   1       6.904  28.697 -10.321  0.00  0.00     0.084 H 
ATOM     40  C25 HBM d   1       5.584  25.404 -10.262  0.00  0.00     0.042 A 
ATOM     41  H13 HBM d   1       4.777  27.416 -10.857  0.00  0.00     0.087 H 
ATOM     42  C26 HBM d   1       6.787  24.710  -9.737  0.00  0.00    -0.056 A 
ATOM     43  C27 HBM d   1       8.004  25.446  -9.429  0.00  0.00    -0.075 A 
ATOM     44  H14 HBM d   1       6.758  23.638  -9.581  0.00  0.00     0.087 H 
ATOM     45  H15 HBM d   1       8.863  24.907  -9.047  0.00  0.00     0.084 H 
BRANCH  40  46
ATOM     46  N28 HBM d   1       4.412  24.644 -10.545  0.00  0.00    -0.285 N 
ATOM     47  H16 HBM d   1       3.666  24.572  -9.883  0.00  0.00     0.178 HD
BRANCH  46  48
ATOM     48  S29 HBM d   1       4.331  23.847 -12.089  0.00  0.00     0.227 S 
ATOM     49  O31 HBM d   1       4.951  24.694 -13.095  0.00  0.00    -0.206 OA
ATOM     50  O32 HBM d   1       4.769  22.435 -11.983  0.00  0.00    -0.206 OA
BRANCH  48  51
ATOM     51  C30 HBM d   1       2.570  23.735 -12.602  0.00  0.00     0.033 C 
ATOM     52  H17 HBM d   1       2.504  23.232 -13.578  0.00  0.00     0.051 H 
ATOM     53  H18 HBM d   1       2.146  24.747 -12.681  0.00  0.00     0.051 H 
ATOM     54  H19 HBM d   1       2.006  23.159 -11.854  0.00  0.00     0.051 H 
ENDBRANCH  48  51
ENDBRANCH  46  48
ENDBRANCH  40  46
ENDBRANCH  33  36
ENDBRANCH  30  33
ENDBRANCH   2  30
TORSDOF 8
