REMARK  7 active torsions:
REMARK  status: ('A' for Active; 'I' for Inactive)
REMARK    1  A    between atoms: C2_2  and  O30_23 
REMARK    2  A    between atoms: C6_6  and  O29_22 
REMARK    3  A    between atoms: C10_8  and  O27_21 
REMARK    4  A    between atoms: C11_9  and  C14_10 
REMARK    5  A    between atoms: C16_12  and  O25_20 
REMARK    6  A    between atoms: C17_13  and  O24_19 
REMARK    7  A    between atoms: C18_14  and  O23_18 
ROOT
ATOM      1  C1  MYC d   1      76.176  33.073  -1.502  0.00  0.00    -0.018 A 
ATOM      2  C2  MYC d   1      75.695  34.164  -2.214  0.00  0.00     0.085 A 
ATOM      3  C3  MYC d   1      75.511  35.425  -1.493  0.00  0.00     0.084 A 
ATOM      4  C4  MYC d   1      75.819  35.480  -0.067  0.00  0.00     0.096 A 
ATOM      5  C5  MYC d   1      76.280  34.354   0.573  0.00  0.00    -0.017 A 
ATOM      6  C6  MYC d   1      76.442  33.169  -0.135  0.00  0.00     0.071 A 
ATOM      7  C9  MYC d   1      75.016  36.639  -2.164  0.00  0.00     0.223 A 
ATOM      8  C10 MYC d   1      74.860  37.844  -1.371  0.00  0.00     0.152 A 
ATOM      9  C11 MYC d   1      75.136  37.838  -0.059  0.00  0.00     0.123 A 
ATOM     10  O12 MYC d   1      75.631  36.641   0.602  0.00  0.00    -0.306 OA
ATOM     11  O13 MYC d   1      74.769  36.622  -3.360  0.00  0.00    -0.284 OA
ATOM     12  H1  MYC d   1      76.347  32.134  -2.015  0.00  0.00     0.092 H 
ATOM     13  H2  MYC d   1      76.517  34.390   1.630  0.00  0.00     0.092 H 
ENDROOT
BRANCH   9  14
ATOM     14  C14 MYC d   1      75.012  39.028   0.859  0.00  0.00     0.006 A 
ATOM     15  C15 MYC d   1      74.523  40.273   0.435  0.00  0.00    -0.035 A 
ATOM     16  C16 MYC d   1      74.447  41.348   1.325  0.00  0.00     0.102 A 
ATOM     17  H3  MYC d   1      74.201  40.402  -0.592  0.00  0.00     0.089 H 
ATOM     18  C17 MYC d   1      74.885  41.175   2.719  0.00  0.00     0.132 A 
ATOM     19  C18 MYC d   1      75.383  39.840   3.133  0.00  0.00     0.102 A 
ATOM     20  C19 MYC d   1      75.418  38.817   2.192  0.00  0.00    -0.035 A 
ATOM     21  H4  MYC d   1      75.766  37.835   2.490  0.00  0.00     0.089 H 
BRANCH  16  22
ATOM     22  O25 MYC d   1      73.994  42.547   0.960  0.00  0.00    -0.358 OA
ATOM     23  H7  MYC d   1      74.677  43.195   1.089  0.00  0.00     0.217 HD
ENDBRANCH  16  22
BRANCH  18  24
ATOM     24  O24 MYC d   1      74.813  42.192   3.576  0.00  0.00    -0.356 OA
ATOM     25  H6  MYC d   1      74.472  42.958   3.129  0.00  0.00     0.218 HD
ENDBRANCH  18  24
BRANCH  19  26
ATOM     26  O23 MYC d   1      75.785  39.649   4.388  0.00  0.00    -0.358 OA
ATOM     27  H5  MYC d   1      75.687  40.457   4.877  0.00  0.00     0.217 HD
ENDBRANCH  19  26
ENDBRANCH   9  14
BRANCH   8  28
ATOM     28  O27 MYC d   1      74.410  38.918  -2.010  0.00  0.00    -0.355 OA
ATOM     29  H8  MYC d   1      74.280  38.708  -2.927  0.00  0.00     0.218 HD
ENDBRANCH   8  28
BRANCH   2  30
ATOM     30  O30 MYC d   1      75.413  34.107  -3.516  0.00  0.00    -0.360 OA
ATOM     31  H10 MYC d   1      75.582  33.229  -3.837  0.00  0.00     0.217 HD
ENDBRANCH   2  30
BRANCH   6  32
ATOM     32  O29 MYC d   1      76.896  32.109   0.529  0.00  0.00    -0.361 OA
ATOM     33  H9  MYC d   1      76.961  31.369  -0.064  0.00  0.00     0.217 HD
ENDBRANCH   6  32
TORSDOF 7
