REMARK  6 active torsions:
REMARK  status: ('A' for Active; 'I' for Inactive)
REMARK    1  A    between atoms: C1_4  and  O21_5 
REMARK    2  A    between atoms: C3_7  and  O20_8 
REMARK    3  A    between atoms: C9_12  and  C11_14 
REMARK    4  A    between atoms: C13_16  and  O19_17 
REMARK    5  A    between atoms: C14_18  and  O18_19 
REMARK    6  A    between atoms: C15_20  and  O17_22 
ROOT
ATOM      1  O22 MYF d   1      75.005  36.157  -2.571  0.00  0.00    -0.287 OA
ATOM      2  C7  MYF d   1      75.312  35.723  -1.482  0.00  0.00     0.190 A 
ATOM      3  C6  MYF d   1      75.784  34.313  -1.284  0.00  0.00     0.081 A 
ATOM      4  C1  MYF d   1      75.925  33.287  -2.365  0.00  0.00     0.085 A 
ATOM      5  C2  MYF d   1      76.386  32.001  -2.043  0.00  0.00    -0.018 A 
ATOM      6  C3  MYF d   1      76.708  31.664  -0.721  0.00  0.00     0.071 A 
ATOM      7  C5  MYF d   1      76.151  33.901   0.094  0.00  0.00     0.095 A 
ATOM      8  C4  MYF d   1      76.582  32.581   0.325  0.00  0.00    -0.017 A 
ATOM      9  O10 MYF d   1      76.052  34.812   1.130  0.00  0.00    -0.309 OA
ATOM     10  C9  MYF d   1      75.607  36.169   0.881  0.00  0.00     0.090 A 
ATOM     11  C8  MYF d   1      75.228  36.618  -0.329  0.00  0.00    -0.000 A 
ATOM     12  H2  MYF d   1      76.494  31.259  -2.826  0.00  0.00     0.092 H 
ATOM     13  H4  MYF d   1      76.821  32.270   1.335  0.00  0.00     0.092 H 
ATOM     14  H5  MYF d   1      74.863  37.637  -0.449  0.00  0.00     0.094 H 
ENDROOT
BRANCH  10  15
ATOM     15  C11 MYF d   1      75.462  37.019   2.078  0.00  0.00     0.003 A 
ATOM     16  C12 MYF d   1      75.292  38.397   1.926  0.00  0.00    -0.035 A 
ATOM     17  C13 MYF d   1      75.092  39.213   3.038  0.00  0.00     0.102 A 
ATOM     18  H6  MYF d   1      75.316  38.835   0.935  0.00  0.00     0.089 H 
ATOM     19  C14 MYF d   1      75.026  38.597   4.406  0.00  0.00     0.132 A 
ATOM     20  C15 MYF d   1      75.168  37.102   4.514  0.00  0.00     0.102 A 
ATOM     21  C16 MYF d   1      75.374  36.374   3.327  0.00  0.00    -0.035 A 
ATOM     22  H9  MYF d   1      75.467  35.295   3.375  0.00  0.00     0.089 H 
BRANCH  17  23
ATOM     23  O19 MYF d   1      74.969  40.525   2.832  0.00  0.00    -0.358 OA
ATOM     24  H7  MYF d   1      74.838  40.964   3.664  0.00  0.00     0.217 HD
ENDBRANCH  17  23
BRANCH  19  25
ATOM     25  O18 MYF d   1      74.833  39.372   5.476  0.00  0.00    -0.356 OA
ATOM     26  H8  MYF d   1      74.816  38.832   6.258  0.00  0.00     0.218 HD
ENDBRANCH  19  25
BRANCH  20  27
ATOM     27  O17 MYF d   1      75.091  36.474   5.704  0.00  0.00    -0.358 OA
ATOM     28  H10 MYF d   1      74.951  37.115   6.391  0.00  0.00     0.217 HD
ENDBRANCH  20  27
ENDBRANCH  10  15
BRANCH   4  29
ATOM     29  O21 MYF d   1      75.635  33.570  -3.634  0.00  0.00    -0.360 OA
ATOM     30  H1  MYF d   1      75.785  32.801  -4.171  0.00  0.00     0.217 HD
ENDBRANCH   4  29
BRANCH   6  31
ATOM     31  O20 MYF d   1      77.132  30.442  -0.421  0.00  0.00    -0.361 OA
ATOM     32  H3  MYF d   1      77.303  30.387   0.512  0.00  0.00     0.217 HD
ENDBRANCH   6  31
TORSDOF 6
