REMARK  2 active torsions:
REMARK  status: ('A' for Active; 'I' for Inactive)
REMARK    1  A    between atoms: P10_2  and  C8'_5 
REMARK    2  A    between atoms: C8'_5  and  N11_8 
ROOT
ATOM      1  C8' PMI d   1      19.836  12.419  36.727  0.00  0.00     0.242 C 
ATOM      2  C9' PMI d   1      19.524  13.910  37.014  0.00  0.00     0.004 C 
ATOM      3  C2' PMI d   1      20.806  14.609  36.662  0.00  0.00    -0.049 A 
ATOM      4  C7' PMI d   1      21.365  12.212  36.516  0.00  0.00     0.004 C 
ATOM      5  C1' PMI d   1      21.881  13.618  36.364  0.00  0.00    -0.049 A 
ATOM      6  C6' PMI d   1      23.173  14.048  36.009  0.00  0.00    -0.076 A 
ATOM      7  C5' PMI d   1      23.407  15.452  35.931  0.00  0.00    -0.082 A 
ATOM      8  C4' PMI d   1      22.375  16.405  36.217  0.00  0.00    -0.082 A 
ATOM      9  C3' PMI d   1      21.065  15.989  36.577  0.00  0.00    -0.076 A 
ATOM     10  H1  PMI d   1      19.271  14.062  38.074  0.00  0.00     0.044 H 
ATOM     11  H2  PMI d   1      18.696  14.267  36.384  0.00  0.00     0.044 H 
ATOM     12  H6  PMI d   1      21.562  11.619  35.611  0.00  0.00     0.044 H 
ATOM     13  H7  PMI d   1      21.820  11.716  37.386  0.00  0.00     0.044 H 
ATOM     14  H8  PMI d   1      23.963  13.336  35.802  0.00  0.00     0.084 H 
ATOM     15  H9  PMI d   1      24.391  15.808  35.648  0.00  0.00     0.083 H 
ATOM     16  H10 PMI d   1      22.599  17.464  36.157  0.00  0.00     0.083 H 
ATOM     17  H11 PMI d   1      20.286  16.715  36.781  0.00  0.00     0.084 H 
ENDROOT
BRANCH   1  18
ATOM     18  P10 PMI d   1      19.293  11.423  38.142  0.00  0.00     0.297 P 
ATOM     19  O14 PMI d   1      17.876  11.854  38.449  0.00  0.00    -0.638 OA
ATOM     20  O12 PMI d   1      20.277  11.693  39.255  0.00  0.00    -0.638 OA
ATOM     21  O13 PMI d   1      19.354   9.974  37.704  0.00  0.00    -0.638 OA
ENDBRANCH   1  18
BRANCH   1  22
ATOM     22  N11 PMI d   1      19.056  11.937  35.546  0.00  0.00    -0.057 N 
ATOM     23  H3  PMI d   1      19.324  12.463  34.729  0.00  0.00     0.276 HD
ATOM     24  H4  PMI d   1      18.071  12.064  35.719  0.00  0.00     0.276 HD
ATOM     25  H5  PMI d   1      19.247  10.959  35.393  0.00  0.00     0.276 HD
ENDBRANCH   1  22
TORSDOF 2
