REMARK  3 active torsions:
REMARK  status: ('A' for Active; 'I' for Inactive)
REMARK    1  A    between atoms: C29_23  and  C1_1 
REMARK    2  A    between atoms: C13_5  and  C17_18 
REMARK    3  A    between atoms: C32_12  and  C29_23 
ROOT
ATOM      1  C1  2O7 d   1       2.656  22.397  -5.069  0.00  0.00     0.077 A 
ATOM      2  C3  2O7 d   1       2.416  24.661  -4.106  0.00  0.00    -0.001 C 
ATOM      3  C9  2O7 d   1       1.720  22.290  -3.833  0.00  0.00    -0.035 C 
ATOM      4  C12 2O7 d   1       4.611  23.663  -4.787  0.00  0.00     0.257 A 
ATOM      5  C13 2O7 d   1       5.019  22.244  -5.024  0.00  0.00     0.061 A 
ATOM      6  C14 2O7 d   1       3.885  21.492  -5.160  0.00  0.00     0.067 A 
ATOM      7  C15 2O7 d   1       3.738  20.063  -5.434  0.00  0.00     0.099 C 
ATOM      8  O28 2O7 d   1       5.310  24.661  -4.619  0.00  0.00    -0.267 OA
ATOM      9  N2  2O7 d   1       3.276  23.680  -4.763  0.00  0.00    -0.333 N 
ATOM     10  C6  2O7 d   1       1.350  23.753  -3.460  0.00  0.00    -0.047 C 
ATOM     11  N16 2O7 d   1       3.688  18.930  -5.650  0.00  0.00    -0.192 NA
ATOM     12  H1  2O7 d   1       1.967  25.353  -4.834  0.00  0.00     0.064 H 
ATOM     13  H2  2O7 d   1       2.968  25.235  -3.347  0.00  0.00     0.064 H 
ATOM     14  H3  2O7 d   1       2.242  21.801  -2.997  0.00  0.00     0.037 H 
ATOM     15  H4  2O7 d   1       0.815  21.718  -4.085  0.00  0.00     0.037 H 
ATOM     16  H9  2O7 d   1       0.353  24.003  -3.851  0.00  0.00     0.035 H 
ATOM     17  H10 2O7 d   1       1.357  23.878  -2.367  0.00  0.00     0.035 H 
ENDROOT
BRANCH   1  18
ATOM     18  C29 2O7 d   1       1.805  22.482  -6.370  0.00  0.00    -0.013 C 
ATOM     19  H12 2O7 d   1       1.043  23.262  -6.225  0.00  0.00     0.044 H 
ATOM     20  H13 2O7 d   1       1.312  21.510  -6.515  0.00  0.00     0.044 H 
BRANCH  18  21
ATOM     21  C32 2O7 d   1       2.569  22.808  -7.632  0.00  0.00    -0.055 A 
ATOM     22  C33 2O7 d   1       2.974  21.781  -8.512  0.00  0.00    -0.075 A 
ATOM     23  C35 2O7 d   1       3.793  22.065  -9.615  0.00  0.00    -0.062 A 
ATOM     24  H7  2O7 d   1       2.649  20.762  -8.334  0.00  0.00     0.084 H 
ATOM     25  C37 2O7 d   1       4.186  23.385  -9.854  0.00  0.00     0.044 A 
ATOM     26  H8  2O7 d   1       4.118  21.269 -10.275  0.00  0.00     0.085 H 
ATOM     27  C38 2O7 d   1       3.750  24.431  -9.032  0.00  0.00    -0.062 A 
ATOM     28  C42 2O7 d   1       5.029  23.692 -10.963  0.00  0.00     0.099 C 
ATOM     29  C40 2O7 d   1       2.931  24.132  -7.935  0.00  0.00    -0.075 A 
ATOM     30  H14 2O7 d   1       4.041  25.454  -9.241  0.00  0.00     0.085 H 
ATOM     31  H15 2O7 d   1       2.569  24.938  -7.307  0.00  0.00     0.084 H 
ATOM     32  N43 2O7 d   1       5.680  23.947 -11.888  0.00  0.00    -0.191 NA
ENDBRANCH  18  21
ENDBRANCH   1  18
BRANCH   5  33
ATOM     33  C17 2O7 d   1       6.469  21.829  -5.071  0.00  0.00    -0.016 A 
ATOM     34  C24 2O7 d   1       7.421  22.722  -5.597  0.00  0.00    -0.051 A 
ATOM     35  C23 2O7 d   1       8.759  22.325  -5.668  0.00  0.00     0.036 A 
ATOM     36  H6  2O7 d   1       7.120  23.705  -5.942  0.00  0.00     0.087 H 
ATOM     37  C21 2O7 d   1       9.211  21.066  -5.266  0.00  0.00    -0.041 A 
ATOM     38 CL26 2O7 d   1       9.929  23.420  -6.260  0.00  0.00    -0.084 Cl
ATOM     39  C20 2O7 d   1       8.265  20.194  -4.732  0.00  0.00     0.036 A 
ATOM     40  H5  2O7 d   1      10.252  20.780  -5.365  0.00  0.00     0.088 H 
ATOM     41  C18 2O7 d   1       6.922  20.568  -4.608  0.00  0.00    -0.051 A 
ATOM     42 CL27 2O7 d   1       8.764  18.638  -4.265  0.00  0.00    -0.084 Cl
ATOM     43  H11 2O7 d   1       6.217  19.883  -4.151  0.00  0.00     0.087 H 
ENDBRANCH   5  33
TORSDOF 3
