REMARK  3 active torsions:
REMARK  status: ('A' for Active; 'I' for Inactive)
REMARK    1  A    between atoms: C1_1  and  C2_4 
REMARK    2  A    between atoms: C2_4  and  O3_5 
REMARK    3  A    between atoms: C2_4  and  C3_6 
ROOT
ATOM      1  C2  PYR d   1       8.651   1.368 -33.256  0.00  0.00     0.115 C 
ATOM      2  H1  PYR d   1       8.982   0.712 -32.438  0.00  0.00     0.099 H 
ENDROOT
BRANCH   1   3
ATOM      3  C1  PYR d   1       8.979   0.640 -34.560  0.00  0.00     0.202 C 
ATOM      4  O1  PYR d   1       9.682   1.220 -35.398  0.00  0.00    -0.646 OA
ATOM      5  O2  PYR d   1       8.497  -0.488 -34.769  0.00  0.00    -0.646 OA
ENDBRANCH   1   3
BRANCH   1   6
ATOM      6  O3  PYR d   1       9.463   2.548 -33.183  0.00  0.00    -0.385 OA
ATOM      7  H2  PYR d   1       9.272   3.013 -32.377  0.00  0.00     0.210 HD
ENDBRANCH   1   6
BRANCH   1   8
ATOM      8  C3  PYR d   1       7.127   1.591 -33.011  0.00  0.00    -0.043 C 
ATOM      9  H3  PYR d   1       6.982   2.118 -32.056  0.00  0.00     0.031 H 
ATOM     10  H4  PYR d   1       6.615   0.618 -32.974  0.00  0.00     0.031 H 
ATOM     11  H5  PYR d   1       6.708   2.194 -33.830  0.00  0.00     0.031 H 
ENDBRANCH   1   8
TORSDOF 3
