REMARK  9 active torsions:
REMARK  status: ('A' for Active; 'I' for Inactive)
REMARK    1  A    between atoms: S12_2  and  C01_4 
REMARK    2  A    between atoms: S12_2  and  N15_10 
REMARK    3  A    between atoms: N15_10  and  C16_11 
REMARK    4  A    between atoms: N15_10  and  C23_16 
REMARK    5  A    between atoms: C16_11  and  C19_12 
REMARK    6  A    between atoms: C26_21  and  C33_22 
REMARK    7  A    between atoms: C33_22  and  C34_23 
REMARK    8  A    between atoms: C33_22  and  O42_27 
REMARK    9  A    between atoms: C33_22  and  C38_28 
ROOT
ATOM      1  N15 444 d   1      11.968  34.456  26.026  0.00  0.00    -0.164 NA
ENDROOT
BRANCH   1   2
ATOM      2  S12 444 d   1      12.555  33.308  26.988  0.00  0.00     0.248 S 
ATOM      3  O13 444 d   1      12.808  33.876  28.465  0.00  0.00    -0.205 OA
ATOM      4  O14 444 d   1      11.465  32.161  27.192  0.00  0.00    -0.205 OA
BRANCH   2   5
ATOM      5  C01 444 d   1      13.990  32.306  26.519  0.00  0.00     0.075 A 
ATOM      6  C02 444 d   1      15.126  32.197  27.513  0.00  0.00    -0.061 A 
ATOM      7  C03 444 d   1      16.322  31.386  27.148  0.00  0.00    -0.082 A 
ATOM      8  H1  444 d   1      15.071  32.699  28.472  0.00  0.00     0.085 H 
ATOM      9  C04 444 d   1      16.402  30.687  25.828  0.00  0.00    -0.083 A 
ATOM     10  H2  444 d   1      17.145  31.302  27.849  0.00  0.00     0.083 H 
ATOM     11  C05 444 d   1      15.273  30.807  24.865  0.00  0.00    -0.082 A 
ATOM     12  H3  444 d   1      17.276  30.097  25.574  0.00  0.00     0.083 H 
ATOM     13  C06 444 d   1      14.082  31.603  25.202  0.00  0.00    -0.061 A 
ATOM     14  H4  444 d   1      15.329  30.303  23.907  0.00  0.00     0.083 H 
ATOM     15  H5  444 d   1      13.267  31.680  24.492  0.00  0.00     0.085 H 
ENDBRANCH   2   5
ENDBRANCH   1   2
BRANCH   1  16
ATOM     16  C16 444 d   1      13.123  35.466  25.929  0.00  0.00     0.089 C 
ATOM     17  H6  444 d   1      13.904  34.977  25.328  0.00  0.00     0.071 H 
ATOM     18  H7  444 d   1      13.487  35.610  26.957  0.00  0.00     0.071 H 
BRANCH  16  19
ATOM     19  C19 444 d   1      12.953  36.872  25.339  0.00  0.00     0.400 C 
ATOM     20  F22 444 d   1      13.053  36.867  23.986  0.00  0.00    -0.170 F 
ATOM     21  F21 444 d   1      11.737  37.395  25.685  0.00  0.00    -0.170 F 
ATOM     22  F20 444 d   1      13.942  37.686  25.822  0.00  0.00    -0.170 F 
ENDBRANCH  16  19
ENDBRANCH   1  16
BRANCH   1  23
ATOM     23  C23 444 d   1      11.314  33.948  24.615  0.00  0.00     0.025 A 
ATOM     24  C24 444 d   1      12.250  33.983  23.395  0.00  0.00    -0.061 A 
ATOM     25  C25 444 d   1      11.786  33.563  22.116  0.00  0.00    -0.072 A 
ATOM     26  H8  444 d   1      13.271  34.330  23.510  0.00  0.00     0.086 H 
ATOM     27  C26 444 d   1      10.371  33.066  21.911  0.00  0.00    -0.006 A 
ATOM     28  H9  444 d   1      12.462  33.600  21.269  0.00  0.00     0.084 H 
ATOM     29  C27 444 d   1       9.467  33.041  23.129  0.00  0.00    -0.072 A 
ATOM     30  C28 444 d   1       9.933  33.464  24.417  0.00  0.00    -0.061 A 
ATOM     31  H11 444 d   1       8.445  32.695  23.023  0.00  0.00     0.084 H 
ATOM     32  H10 444 d   1       9.257  33.428  25.264  0.00  0.00     0.086 H 
BRANCH  27  33
ATOM     33  C33 444 d   1       9.880  32.601  20.409  0.00  0.00     0.281 C 
BRANCH  33  34
ATOM     34  C34 444 d   1      10.551  31.313  19.806  0.00  0.00     0.431 C 
ATOM     35  F36 444 d   1       9.977  30.877  18.686  0.00  0.00    -0.167 F 
ATOM     36  F37 444 d   1      11.839  31.559  19.535  0.00  0.00    -0.167 F 
ATOM     37  F35 444 d   1      10.524  30.309  20.728  0.00  0.00    -0.167 F 
ENDBRANCH  33  34
BRANCH  33  38
ATOM     38  O42 444 d   1       8.495  32.243  20.656  0.00  0.00    -0.370 OA
ATOM     39  H12 444 d   1       8.037  32.990  21.024  0.00  0.00     0.211 HD
ENDBRANCH  33  38
BRANCH  33  40
ATOM     40  C38 444 d   1       9.818  33.864  19.442  0.00  0.00     0.431 C 
ATOM     41  F39 444 d   1       9.138  33.668  18.322  0.00  0.00    -0.167 F 
ATOM     42  F40 444 d   1       9.213  34.925  20.040  0.00  0.00    -0.167 F 
ATOM     43  F41 444 d   1      11.031  34.337  19.107  0.00  0.00    -0.167 F 
ENDBRANCH  33  40
ENDBRANCH  27  33
ENDBRANCH   1  23
TORSDOF 9
