REMARK  5 active torsions:
REMARK  status: ('A' for Active; 'I' for Inactive)
REMARK    1  A    between atoms: C3_3  and  C2_4 
REMARK    2  A    between atoms: C2_4  and  C1_6 
REMARK    3  A    between atoms: C9_20  and  C10_21 
REMARK    4  A    between atoms: C9_20  and  C11_22 
REMARK    5  A    between atoms: C4_24  and  O3_25 
ROOT
ATOM      1  O2  CZA d   1      34.308  10.523  13.553  0.00  0.00    -0.290 OA
ATOM      2  C6  CZA d   1      34.159  11.013  12.368  0.00  0.00     0.190 A 
ATOM      3  C3  CZA d   1      35.319  11.073  11.434  0.00  0.00     0.108 A 
ATOM      4  C5  CZA d   1      32.876  11.632  11.939  0.00  0.00     0.085 A 
ATOM      5  C7  CZA d   1      31.682  10.867  11.381  0.00  0.00     0.006 C 
ATOM      6  C15 CZA d   1      30.642  10.674  12.415  0.00  0.00    -0.023 A 
ATOM      7  C16 CZA d   1      30.667   9.798  13.481  0.00  0.00    -0.015 A 
ATOM      8  N2  CZA d   1      29.476  10.031  14.110  0.00  0.00    -0.365 N 
ATOM      9  C17 CZA d   1      28.767  10.996  13.465  0.00  0.00     0.043 A 
ATOM     10  C14 CZA d   1      29.508  11.414  12.376  0.00  0.00     0.005 A 
ATOM     11  C18 CZA d   1      27.528  11.601  13.673  0.00  0.00    -0.056 A 
ATOM     12  C19 CZA d   1      27.078  12.593  12.791  0.00  0.00    -0.080 A 
ATOM     13  C20 CZA d   1      27.854  12.991  11.699  0.00  0.00    -0.076 A 
ATOM     14  C13 CZA d   1      29.088  12.380  11.501  0.00  0.00    -0.045 A 
ATOM     15  C12 CZA d   1      30.014  12.722  10.361  0.00  0.00    -0.034 C 
ATOM     16  C8  CZA d   1      31.212  11.762  10.193  0.00  0.00    -0.017 C 
ATOM     17  C9  CZA d   1      32.414  12.606   9.753  0.00  0.00     0.033 C 
ATOM     18  N1  CZA d   1      33.440  12.024  10.632  0.00  0.00    -0.339 N 
ATOM     19  C4  CZA d   1      34.692  11.738  10.264  0.00  0.00     0.157 A 
ATOM     20  H4  CZA d   1      32.552  12.424  12.630  0.00  0.00     0.086 H 
ATOM     21  H5  CZA d   1      31.995   9.880  11.010  0.00  0.00     0.052 H 
ATOM     22  H6  CZA d   1      31.448   9.091  13.755  0.00  0.00     0.112 H 
ATOM     23  H7  CZA d   1      29.158   9.541  14.959  0.00  0.00     0.165 HD
ATOM     24  H8  CZA d   1      26.914  11.305  14.516  0.00  0.00     0.086 H 
ATOM     25  H9  CZA d   1      26.113  13.059  12.958  0.00  0.00     0.083 H 
ATOM     26  H10 CZA d   1      27.502  13.760  11.021  0.00  0.00     0.084 H 
ATOM     27  H11 CZA d   1      30.408  13.735  10.531  0.00  0.00     0.040 H 
ATOM     28  H12 CZA d   1      29.430  12.708   9.429  0.00  0.00     0.040 H 
ATOM     29  H13 CZA d   1      30.943  11.074   9.378  0.00  0.00     0.045 H 
ENDROOT
BRANCH  17  30
ATOM     30  C10 CZA d   1      32.725  12.375   8.278  0.00  0.00    -0.053 C 
ATOM     31  H14 CZA d   1      33.589  12.989   7.985  0.00  0.00     0.030 H 
ATOM     32  H15 CZA d   1      31.852  12.656   7.671  0.00  0.00     0.030 H 
ATOM     33  H16 CZA d   1      32.958  11.312   8.114  0.00  0.00     0.030 H 
ENDBRANCH  17  30
BRANCH  17  34
ATOM     34  C11 CZA d   1      32.176  14.082  10.039  0.00  0.00    -0.053 C 
ATOM     35  H17 CZA d   1      31.955  14.217  11.108  0.00  0.00     0.030 H 
ATOM     36  H18 CZA d   1      31.325  14.439   9.440  0.00  0.00     0.030 H 
ATOM     37  H19 CZA d   1      33.076  14.656   9.775  0.00  0.00     0.030 H 
ENDBRANCH  17  34
BRANCH  19  38
ATOM     38  O3  CZA d   1      35.348  12.064   8.978  0.00  0.00    -0.345 OA
ATOM     39  H20 CZA d   1      35.352  13.006   8.856  0.00  0.00     0.219 HD
ENDBRANCH  19  38
BRANCH   3  40
ATOM     40  C2  CZA d   1      36.709  10.575  11.598  0.00  0.00     0.163 C 
ATOM     41  O1  CZA d   1      37.329  10.838  12.620  0.00  0.00    -0.292 OA
BRANCH  40  42
ATOM     42  C1  CZA d   1      37.265   9.764  10.459  0.00  0.00    -0.016 C 
ATOM     43  H1  CZA d   1      38.294   9.455  10.697  0.00  0.00     0.038 H 
ATOM     44  H2  CZA d   1      37.268  10.373   9.543  0.00  0.00     0.038 H 
ATOM     45  H3  CZA d   1      36.640   8.872  10.305  0.00  0.00     0.038 H 
ENDBRANCH  40  42
ENDBRANCH   3  40
TORSDOF 5
