REMARK WARNING: 32 MAX_TORS EXCEEDED!!!
REMARK  34 active torsions:
REMARK  status: ('A' for Active; 'I' for Inactive)
REMARK    1  A    between atoms: CA_2  and  N_1 
REMARK    2  A    between atoms: CA_2  and  CB_5 
REMARK    3  A    between atoms: C_3  and  CA_2 
REMARK       I    between atoms: N_6  and  C_3 
REMARK    4  A    between atoms: CA_7  and  N_6 
REMARK    5  A    between atoms: CA_7  and  CB_10 
REMARK    6  A    between atoms: C_8  and  CA_7 
REMARK       I    between atoms: N_17  and  C_8 
REMARK    7  A    between atoms: CB_10  and  CG_11 
REMARK    8  A    between atoms: CG_11  and  CD_12 
REMARK    9  A    between atoms: CD_12  and  NE_13 
REMARK       I    between atoms: NE_13  and  CZ_14 
REMARK       I    between atoms: CZ_14  and  NH1_15 
REMARK   10  A    between atoms: CA_18  and  N_17 
REMARK   11  A    between atoms: CA_18  and  CB_21 
REMARK   12  A    between atoms: C_19  and  CA_18 
REMARK       I    between atoms: N_24  and  C_19 
REMARK   13  A    between atoms: CB_21  and  CG2_23 
REMARK   14  A    between atoms: CB_21  and  OG1_22 
REMARK   15  A    between atoms: N_24  and  CA_25 
REMARK   16  A    between atoms: CA_25  and  CB_26 
REMARK   17  A    between atoms: CA_25  and  C_33 
REMARK   18  A    between atoms: CB_26  and  CG_27 
REMARK   19  A    between atoms: CG_27  and  CD_28 
REMARK   20  A    between atoms: CD_28  and  CE_29 
REMARK   21  A    between atoms: CE_29  and  NZ_30 
REMARK   22  A    between atoms: NZ_30  and  CH1_31 
REMARK   23  A    between atoms: NZ_30  and  CH2_32 
REMARK       I    between atoms: C_33  and  N_35 
REMARK   24  A    between atoms: N_35  and  CA_36 
REMARK   25  A    between atoms: CA_36  and  CB_39 
REMARK   26  A    between atoms: CA_36  and  C_37 
REMARK       I    between atoms: C_37  and  N_44 
REMARK   27  A    between atoms: CB_39  and  CG_40 
REMARK   28  A    between atoms: CG_40  and  CD_41 
REMARK       I    between atoms: CD_41  and  NE2_43 
REMARK   29  A    between atoms: N_44  and  CA_45 
REMARK   30  A    between atoms: CA_45  and  CB_48 
REMARK   31  A    between atoms: CA_45  and  C_46 
REMARK   32  A    between atoms: C_46  and  O1_51 
REMARK   33  A    between atoms: CB_48  and  CG2_50 
REMARK   34  A    between atoms: CB_48  and  OG1_49 
ROOT
ATOM      1  CA  MLY d   1     -35.750  30.421   5.178  0.00  0.00     0.089 C 
ATOM      2  H29 MLY d   1     -36.322  31.323   5.439  0.00  0.00     0.087 H 
ENDROOT
BRANCH   1   3
ATOM      3  N   MLY d   1     -34.526  30.388   5.978  0.00  0.00    -0.346 N 
ATOM      4  C   THR d   1     -34.251  31.288   6.922  0.00  0.00     0.243 C 
ATOM      5  O   THR d   1     -34.974  32.282   7.136  0.00  0.00    -0.271 OA
ATOM      6  H28 MLY d   1     -33.865  29.657   5.809  0.00  0.00     0.163 HD
BRANCH   4   7
ATOM      7  CA  THR d   1     -32.971  31.040   7.759  0.00  0.00     0.113 C 
ATOM      8  H22 THR d   1     -33.275  31.017   8.816  0.00  0.00     0.091 H 
BRANCH   7   9
ATOM      9  N   THR d   1     -32.306  29.758   7.473  0.00  0.00    -0.344 N 
ATOM     10  C   ARG d   1     -32.745  28.611   7.979  0.00  0.00     0.241 C 
ATOM     11  O   ARG d   1     -33.781  28.525   8.660  0.00  0.00    -0.271 OA
ATOM     12  H21 THR d   1     -31.500  29.750   6.881  0.00  0.00     0.163 HD
BRANCH  10  13
ATOM     13  CA  ARG d   1     -31.933  27.364   7.600  0.00  0.00     0.089 C 
ATOM     14  H9  ARG d   1     -32.643  26.555   7.376  0.00  0.00     0.087 H 
BRANCH  13  15
ATOM     15  N   ARG d   1     -31.113  27.599   6.411  0.00  0.00    -0.346 N 
ATOM     16  C   ALA d   1     -31.586  27.950   5.210  0.00  0.00     0.248 C 
ATOM     17  O   ALA d   1     -32.791  28.038   4.968  0.00  0.00    -0.271 OA
ATOM     18  H8  ARG d   1     -30.123  27.489   6.503  0.00  0.00     0.163 HD
BRANCH  16  19
ATOM     19  CA  ALA d   1     -30.523  28.210   4.104  0.00  0.00     0.172 C 
ATOM     20  H4  ALA d   1     -29.945  27.281   3.991  0.00  0.00     0.098 H 
BRANCH  19  21
ATOM     21  N   ALA d   1     -31.118  28.530   2.773  0.00  0.00    -0.067 N 
ATOM     22  H1  ALA d   1     -30.380  28.687   2.104  0.00  0.00     0.275 HD
ATOM     23  H2  ALA d   1     -31.685  29.360   2.849  0.00  0.00     0.275 HD
ATOM     24  H3  ALA d   1     -31.691  27.759   2.467  0.00  0.00     0.275 HD
ENDBRANCH  19  21
BRANCH  19  25
ATOM     25  CB  ALA d   1     -29.552  29.313   4.503  0.00  0.00    -0.042 C 
ATOM     26  H5  ALA d   1     -29.113  29.078   5.484  0.00  0.00     0.030 H 
ATOM     27  H6  ALA d   1     -30.089  30.271   4.562  0.00  0.00     0.030 H 
ATOM     28  H7  ALA d   1     -28.752  29.387   3.752  0.00  0.00     0.030 H 
ENDBRANCH  19  25
ENDBRANCH  16  19
ENDBRANCH  13  15
BRANCH  13  29
ATOM     29  CB  ARG d   1     -31.026  26.905   8.758  0.00  0.00    -0.036 C 
ATOM     30  H10 ARG d   1     -30.123  27.534   8.745  0.00  0.00     0.036 H 
ATOM     31  H11 ARG d   1     -30.746  25.858   8.569  0.00  0.00     0.036 H 
BRANCH  29  32
ATOM     32  CG  ARG d   1     -31.629  26.980  10.176  0.00  0.00    -0.048 C 
ATOM     33  H12 ARG d   1     -32.336  26.148  10.312  0.00  0.00     0.035 H 
ATOM     34  H13 ARG d   1     -32.161  27.936  10.292  0.00  0.00     0.035 H 
BRANCH  32  35
ATOM     35  CD  ARG d   1     -30.511  26.883  11.259  0.00  0.00     0.009 C 
ATOM     36  H14 ARG d   1     -30.988  26.751  12.241  0.00  0.00     0.064 H 
ATOM     37  H15 ARG d   1     -29.938  27.822  11.253  0.00  0.00     0.064 H 
BRANCH  35  38
ATOM     38  NE  ARG d   1     -29.579  25.769  11.042  0.00  0.00    -0.227 N 
ATOM     39  CZ  ARG d   1     -29.762  24.513  11.482  0.00  0.00     0.665 C 
ATOM     40  NH2 ARG d   1     -30.840  24.188  12.185  0.00  0.00    -0.235 N 
ATOM     41  NH1 ARG d   1     -28.852  23.573  11.241  0.00  0.00    -0.235 N 
ATOM     42  H19 ARG d   1     -31.558  24.899  12.384  0.00  0.00     0.174 HD
ATOM     43  H20 ARG d   1     -30.958  23.225  12.531  0.00  0.00     0.174 HD
ATOM     44  H17 ARG d   1     -29.001  22.613  11.582  0.00  0.00     0.174 HD
ATOM     45  H18 ARG d   1     -27.999  23.806  10.713  0.00  0.00     0.174 HD
ATOM     46  H16 ARG d   1     -28.718  25.966  10.511  0.00  0.00     0.177 HD
ENDBRANCH  35  38
ENDBRANCH  32  35
ENDBRANCH  29  32
ENDBRANCH  13  29
ENDBRANCH  10  13
ENDBRANCH   7   9
BRANCH   7  47
ATOM     47  CB  THR d   1     -31.984  32.210   7.577  0.00  0.00     0.060 C 
ATOM     48  H23 THR d   1     -32.528  33.154   7.729  0.00  0.00     0.086 H 
BRANCH  47  49
ATOM     49  CG2 THR d   1     -30.820  32.143   8.612  0.00  0.00    -0.050 C 
ATOM     50  H25 THR d   1     -30.138  32.991   8.452  0.00  0.00     0.031 H 
ATOM     51  H26 THR d   1     -30.269  31.200   8.483  0.00  0.00     0.031 H 
ATOM     52  H27 THR d   1     -31.232  32.191   9.631  0.00  0.00     0.031 H 
ENDBRANCH  47  49
BRANCH  47  53
ATOM     53  OG1 THR d   1     -31.469  32.186   6.248  0.00  0.00    -0.393 OA
ATOM     54  H24 THR d   1     -32.189  32.227   5.630  0.00  0.00     0.210 HD
ENDBRANCH  47  53
ENDBRANCH   7  47
ENDBRANCH   4   7
ENDBRANCH   1   3
BRANCH   1  55
ATOM     55  CB  MLY d   1     -35.478  30.420   3.666  0.00  0.00    -0.038 C 
ATOM     56  H30 MLY d   1     -36.440  30.332   3.140  0.00  0.00     0.036 H 
ATOM     57  H31 MLY d   1     -34.848  29.550   3.427  0.00  0.00     0.036 H 
BRANCH  55  58
ATOM     58  CG  MLY d   1     -34.776  31.669   3.173  0.00  0.00    -0.061 C 
ATOM     59  H32 MLY d   1     -34.682  31.614   2.078  0.00  0.00     0.033 H 
ATOM     60  H33 MLY d   1     -33.774  31.714   3.625  0.00  0.00     0.033 H 
BRANCH  58  61
ATOM     61  CD  MLY d   1     -35.540  32.943   3.539  0.00  0.00    -0.042 C 
ATOM     62  H34 MLY d   1     -35.417  33.141   4.614  0.00  0.00     0.035 H 
ATOM     63  H35 MLY d   1     -36.607  32.802   3.312  0.00  0.00     0.035 H 
BRANCH  61  64
ATOM     64  CE  MLY d   1     -35.011  34.142   2.743  0.00  0.00     0.083 C 
ATOM     65  H36 MLY d   1     -35.511  34.182   1.764  0.00  0.00     0.075 H 
ATOM     66  H37 MLY d   1     -33.926  34.036   2.596  0.00  0.00     0.075 H 
BRANCH  64  67
ATOM     67  NZ  MLY d   1     -35.287  35.380   3.487  0.00  0.00    -0.079 N 
ATOM     68  H38 MLY d   1     -35.026  35.255   4.452  0.00  0.00     0.278 HD
BRANCH  67  69
ATOM     69  CH1 MLY d   1     -34.500  36.494   2.904  0.00  0.00     0.066 C 
ATOM     70  H39 MLY d   1     -34.707  37.420   3.461  0.00  0.00     0.068 H 
ATOM     71  H40 MLY d   1     -34.782  36.630   1.849  0.00  0.00     0.068 H 
ATOM     72  H41 MLY d   1     -33.428  36.259   2.969  0.00  0.00     0.068 H 
ENDBRANCH  67  69
BRANCH  67  73
ATOM     73  CH2 MLY d   1     -36.727  35.697   3.407  0.00  0.00     0.066 C 
ATOM     74  H42 MLY d   1     -37.309  34.870   3.840  0.00  0.00     0.068 H 
ATOM     75  H43 MLY d   1     -37.014  35.836   2.354  0.00  0.00     0.068 H 
ATOM     76  H44 MLY d   1     -36.931  36.621   3.967  0.00  0.00     0.068 H 
ENDBRANCH  67  73
ENDBRANCH  64  67
ENDBRANCH  61  64
ENDBRANCH  58  61
ENDBRANCH  55  58
ENDBRANCH   1  55
BRANCH   1  77
ATOM     77  C   MLY d   1     -36.546  29.205   5.493  0.00  0.00     0.241 C 
ATOM     78  O   MLY d   1     -35.988  28.126   5.641  0.00  0.00    -0.271 OA
ATOM     79  N   GLN d   1     -37.864  29.332   5.581  0.00  0.00    -0.346 N 
ATOM     80  H45 GLN d   1     -38.308  30.212   5.412  0.00  0.00     0.163 HD
BRANCH  79  81
ATOM     81  CA  GLN d   1     -38.651  28.145   5.933  0.00  0.00     0.090 C 
ATOM     82  H46 GLN d   1     -38.023  27.577   6.635  0.00  0.00     0.087 H 
BRANCH  81  83
ATOM     83  CB  GLN d   1     -39.926  28.475   6.702  0.00  0.00    -0.030 C 
ATOM     84  H47 GLN d   1     -39.629  28.825   7.702  0.00  0.00     0.037 H 
ATOM     85  H48 GLN d   1     -40.507  27.545   6.796  0.00  0.00     0.037 H 
BRANCH  83  86
ATOM     86  CG  GLN d   1     -40.827  29.511   6.112  0.00  0.00     0.011 C 
ATOM     87  H49 GLN d   1     -40.803  29.425   5.016  0.00  0.00     0.047 H 
ATOM     88  H50 GLN d   1     -40.470  30.508   6.409  0.00  0.00     0.047 H 
BRANCH  86  89
ATOM     89  CD  GLN d   1     -42.259  29.335   6.591  0.00  0.00     0.215 C 
ATOM     90  NE2 GLN d   1     -42.673  28.081   6.798  0.00  0.00    -0.370 N 
ATOM     91  H51 GLN d   1     -43.606  27.908   7.113  0.00  0.00     0.159 HD
ATOM     92  H52 GLN d   1     -42.050  27.316   6.637  0.00  0.00     0.159 HD
ATOM     93  OE1 GLN d   1     -42.984  30.307   6.766  0.00  0.00    -0.274 OA
ENDBRANCH  86  89
ENDBRANCH  83  86
ENDBRANCH  81  83
BRANCH  81  94
ATOM     94  C   GLN d   1     -38.897  27.202   4.754  0.00  0.00     0.241 C 
ATOM     95  O   GLN d   1     -39.219  27.638   3.645  0.00  0.00    -0.271 OA
ATOM     96  N   THR d   1     -38.689  25.909   5.005  0.00  0.00    -0.343 N 
ATOM     97  H53 THR d   1     -38.506  25.625   5.946  0.00  0.00     0.163 HD
BRANCH  96  98
ATOM     98  CA  THR d   1     -38.718  24.887   3.954  0.00  0.00     0.117 C 
ATOM     99  H54 THR d   1     -39.274  25.301   3.100  0.00  0.00     0.093 H 
BRANCH  98 100
ATOM    100  CB  THR d   1     -37.274  24.502   3.454  0.00  0.00     0.061 C 
ATOM    101  H55 THR d   1     -37.377  23.791   2.621  0.00  0.00     0.086 H 
BRANCH 100 102
ATOM    102  CG2 THR d   1     -36.487  25.737   2.945  0.00  0.00    -0.050 C 
ATOM    103  H57 THR d   1     -35.489  25.422   2.607  0.00  0.00     0.031 H 
ATOM    104  H58 THR d   1     -36.384  26.468   3.760  0.00  0.00     0.031 H 
ATOM    105  H59 THR d   1     -37.029  26.197   2.106  0.00  0.00     0.031 H 
ENDBRANCH 100 102
BRANCH 100 106
ATOM    106  OG1 THR d   1     -36.542  23.868   4.511  0.00  0.00    -0.393 OA
ATOM    107  H56 THR d   1     -36.422  24.483   5.225  0.00  0.00     0.210 HD
ENDBRANCH 100 106
ENDBRANCH  98 100
BRANCH  98 108
ATOM    108  C   THR d   1     -39.446  23.629   4.437  0.00  0.00     0.166 C 
ATOM    109  O   THR d   1     -39.387  22.576   3.789  0.00  0.00    -0.648 OA
BRANCH 108 110
ATOM    110  O1  THR d   1     -40.149  23.668   5.565  0.00  0.00    -0.775 OA
ATOM    111  H60 THR d   1     -39.796  23.036   6.179  0.00  0.00     0.167 HD
ENDBRANCH 108 110
ENDBRANCH  98 108
ENDBRANCH  96  98
ENDBRANCH  81  94
ENDBRANCH  79  81
ENDBRANCH   1  77
TORSDOF 34
