REMARK  12 active torsions:
REMARK  status: ('A' for Active; 'I' for Inactive)
REMARK    1  A    between atoms: S4'_21  and  C1_1 
REMARK    2  A    between atoms: C2_2  and  O2_7 
REMARK    3  A    between atoms: C3_3  and  O3_8 
REMARK    4  A    between atoms: C4_4  and  O4_9 
REMARK    5  A    between atoms: C5_5  and  C6_6 
REMARK    6  A    between atoms: C6_6  and  O6_11 
REMARK    7  A    between atoms: C1'_12  and  O1'_18 
REMARK    8  A    between atoms: C2'_13  and  O2'_19 
REMARK    9  A    between atoms: C3'_14  and  O3'_20 
REMARK   10  A    between atoms: C4'_15  and  S4'_21 
REMARK   11  A    between atoms: C5'_16  and  C6'_17 
REMARK   12  A    between atoms: C6'_17  and  O6'_23 
ROOT
ATOM      1  S4' TCB d   1      63.625  29.314  38.759  0.00  0.00    -0.124 SA
ENDROOT
BRANCH   1   2
ATOM      2  C1  TCB d   1      65.367  28.952  38.514  0.00  0.00     0.111 C 
ATOM      3  C2  TCB d   1      66.088  30.268  39.063  0.00  0.00     0.096 C 
ATOM      4  C3  TCB d   1      67.675  30.156  38.944  0.00  0.00     0.090 C 
ATOM      5  H2  TCB d   1      65.821  30.400  40.122  0.00  0.00     0.092 H 
ATOM      6  C4  TCB d   1      68.238  28.780  39.485  0.00  0.00     0.089 C 
ATOM      7  H3  TCB d   1      67.951  30.244  37.883  0.00  0.00     0.091 H 
ATOM      8  C5  TCB d   1      67.545  27.600  38.662  0.00  0.00     0.087 C 
ATOM      9  H4  TCB d   1      67.978  28.671  40.548  0.00  0.00     0.091 H 
ATOM     10  O5  TCB d   1      66.129  27.737  38.925  0.00  0.00    -0.363 OA
ATOM     11  H5  TCB d   1      67.764  27.751  37.595  0.00  0.00     0.090 H 
ATOM     12  H1  TCB d   1      65.481  28.944  37.420  0.00  0.00     0.104 H 
BRANCH   3  13
ATOM     13  O2  TCB d   1      65.653  31.375  38.343  0.00  0.00    -0.389 OA
ATOM     14  H8  TCB d   1      66.056  32.159  38.696  0.00  0.00     0.210 HD
ENDBRANCH   3  13
BRANCH   4  15
ATOM     15  O3  TCB d   1      68.255  31.238  39.665  0.00  0.00    -0.390 OA
ATOM     16  H9  TCB d   1      67.911  32.059  39.333  0.00  0.00     0.210 HD
ENDBRANCH   4  15
BRANCH   6  17
ATOM     17  O4  TCB d   1      69.620  28.770  39.364  0.00  0.00    -0.390 OA
ATOM     18  H10 TCB d   1      69.960  27.945  39.691  0.00  0.00     0.210 HD
ENDBRANCH   6  17
BRANCH   8  19
ATOM     19  C6  TCB d   1      67.893  26.124  39.025  0.00  0.00     0.043 C 
ATOM     20  H6  TCB d   1      68.971  26.047  39.230  0.00  0.00     0.078 H 
ATOM     21  H7  TCB d   1      67.634  25.473  38.177  0.00  0.00     0.078 H 
BRANCH  19  22
ATOM     22  O6  TCB d   1      67.144  25.689  40.213  0.00  0.00    -0.398 OA
ATOM     23  H11 TCB d   1      66.212  25.751  40.039  0.00  0.00     0.209 HD
ENDBRANCH  19  22
ENDBRANCH   8  19
ENDBRANCH   1   2
BRANCH   1  24
ATOM     24  C4' TCB d   1      62.795  27.930  37.884  0.00  0.00     0.048 C 
ATOM     25  C3' TCB d   1      61.820  27.018  38.787  0.00  0.00     0.079 C 
ATOM     26  C2' TCB d   1      61.069  25.914  37.909  0.00  0.00     0.108 C 
ATOM     27  H14 TCB d   1      61.098  27.681  39.285  0.00  0.00     0.089 H 
ATOM     28  C1' TCB d   1      60.237  26.600  36.761  0.00  0.00     0.156 C 
ATOM     29  H13 TCB d   1      61.827  25.264  37.447  0.00  0.00     0.094 H 
ATOM     30  O5' TCB d   1      61.167  27.466  35.955  0.00  0.00    -0.350 OA
ATOM     31  H12 TCB d   1      59.463  27.234  37.217  0.00  0.00     0.133 H 
ATOM     32  C5' TCB d   1      61.908  28.563  36.698  0.00  0.00     0.076 C 
ATOM     33  H16 TCB d   1      61.199  29.277  37.142  0.00  0.00     0.088 H 
ATOM     34  H15 TCB d   1      63.574  27.280  37.458  0.00  0.00     0.065 H 
BRANCH  25  35
ATOM     35  O3' TCB d   1      62.506  26.153  39.797  0.00  0.00    -0.392 OA
ATOM     36  H21 TCB d   1      62.998  26.700  40.398  0.00  0.00     0.210 HD
ENDBRANCH  25  35
BRANCH  26  37
ATOM     37  O2' TCB d   1      60.204  25.087  38.750  0.00  0.00    -0.388 OA
ATOM     38  H20 TCB d   1      60.730  24.650  39.410  0.00  0.00     0.210 HD
ENDBRANCH  26  37
BRANCH  28  39
ATOM     39  O1' TCB d   1      59.564  25.599  35.884  0.00  0.00    -0.369 OA
ATOM     40  H19 TCB d   1      58.981  25.061  36.408  0.00  0.00     0.212 HD
ENDBRANCH  28  39
BRANCH  32  41
ATOM     41  C6' TCB d   1      62.745  29.289  35.537  0.00  0.00     0.042 C 
ATOM     42  H17 TCB d   1      63.815  29.178  35.765  0.00  0.00     0.077 H 
ATOM     43  H18 TCB d   1      62.479  30.356  35.538  0.00  0.00     0.077 H 
BRANCH  41  44
ATOM     44  O6' TCB d   1      62.510  28.765  34.200  0.00  0.00    -0.398 OA
ATOM     45  H22 TCB d   1      61.591  28.863  33.980  0.00  0.00     0.209 HD
ENDBRANCH  41  44
ENDBRANCH  32  41
ENDBRANCH   1  24
TORSDOF 12
