REMARK  22 active torsions:
REMARK  status: ('A' for Active; 'I' for Inactive)
REMARK    1  A    between atoms: CA_2  and  N_1 
REMARK    2  A    between atoms: CA_2  and  CB_5 
REMARK    3  A    between atoms: C_3  and  CA_2 
REMARK       I    between atoms: N_8  and  C_3 
REMARK    4  A    between atoms: CB_5  and  CG2_7 
REMARK    5  A    between atoms: CB_5  and  CG1_6 
REMARK    6  A    between atoms: C_10  and  CA_9 
REMARK       I    between atoms: N_15  and  C_10 
REMARK    7  A    between atoms: C_17  and  CA_16 
REMARK       I    between atoms: N_22  and  C_17 
REMARK    8  A    between atoms: C_24  and  CA_23 
REMARK       I    between atoms: N_29  and  C_24 
REMARK    9  A    between atoms: CA_30  and  N_29 
REMARK   10  A    between atoms: CA_30  and  CB_33 
REMARK   11  A    between atoms: C_31  and  CA_30 
REMARK       I    between atoms: N_36  and  C_31 
REMARK   12  A    between atoms: CB_33  and  CG2_35 
REMARK   13  A    between atoms: CB_33  and  CG1_34 
REMARK   14  A    between atoms: C_38  and  CA_37 
REMARK       I    between atoms: N_43  and  C_38 
REMARK   15  A    between atoms: C_45  and  CA_44 
REMARK       I    between atoms: N_50  and  C_45 
REMARK   16  A    between atoms: C_52  and  CA_51 
REMARK       I    between atoms: N_57  and  C_52 
REMARK   17  A    between atoms: C_59  and  CA_58 
REMARK       I    between atoms: C_59  and  N_64 
REMARK   18  A    between atoms: N_64  and  CA_65 
REMARK   19  A    between atoms: CA_65  and  CB_68 
REMARK   20  A    between atoms: CA_65  and  C_66 
REMARK   21  A    between atoms: C_66  and  O1_70 
REMARK   22  A    between atoms: CB_68  and  OG_69 
ROOT
ATOM      1  CA  VAL d   1      25.588  -6.093 -17.058  0.00  0.00     0.092 C 
ATOM      2  H34 VAL d   1      25.711  -5.195 -16.435  0.00  0.00     0.088 H 
ENDROOT
BRANCH   1   3
ATOM      3  N   VAL d   1      25.464  -5.719 -18.461  0.00  0.00    -0.346 N 
ATOM      4  C   PRO d   1      26.083  -4.666 -18.950  0.00  0.00     0.241 C 
ATOM      5  O   PRO d   1      26.776  -3.904 -18.253  0.00  0.00    -0.271 OA
ATOM      6  H33 VAL d   1      24.895  -6.276 -19.066  0.00  0.00     0.163 HD
BRANCH   4   7
ATOM      7  CA  PRO d   1      25.877  -4.378 -20.422  0.00  0.00     0.091 C 
ATOM      8  CB  PRO d   1      27.069  -4.900 -21.214  0.00  0.00    -0.036 C 
ATOM      9  CG  PRO d   1      28.109  -3.707 -21.135  0.00  0.00    -0.048 C 
ATOM     10  H27 PRO d   1      26.788  -5.110 -22.257  0.00  0.00     0.036 H 
ATOM     11  H28 PRO d   1      27.479  -5.811 -20.754  0.00  0.00     0.036 H 
ATOM     12  CD  PRO d   1      27.193  -2.508 -21.331  0.00  0.00    -0.001 C 
ATOM     13  H29 PRO d   1      28.613  -3.675 -20.158  0.00  0.00     0.035 H 
ATOM     14  H30 PRO d   1      28.862  -3.775 -21.934  0.00  0.00     0.035 H 
ATOM     15  N   PRO d   1      25.968  -2.925 -20.612  0.00  0.00    -0.337 N 
ATOM     16  H31 PRO d   1      27.626  -1.599 -20.887  0.00  0.00     0.064 H 
ATOM     17  H32 PRO d   1      26.989  -2.333 -22.398  0.00  0.00     0.064 H 
ATOM     18  C   PRO d   1      25.027  -2.134 -20.091  0.00  0.00     0.243 C 
ATOM     19  O   PRO d   1      24.113  -2.567 -19.428  0.00  0.00    -0.271 OA
ATOM     20  H26 PRO d   1      24.924  -4.793 -20.781  0.00  0.00     0.087 H 
BRANCH  18  21
ATOM     21  CA  PRO d   1      25.182  -0.616 -20.337  0.00  0.00     0.092 C 
ATOM     22  CB  PRO d   1      26.140  -0.030 -19.289  0.00  0.00    -0.036 C 
ATOM     23  CG  PRO d   1      25.272   0.415 -18.197  0.00  0.00    -0.048 C 
ATOM     24  H20 PRO d   1      26.701   0.818 -19.708  0.00  0.00     0.036 H 
ATOM     25  H21 PRO d   1      26.845  -0.797 -18.936  0.00  0.00     0.036 H 
ATOM     26  CD  PRO d   1      23.973   0.856 -18.819  0.00  0.00    -0.001 C 
ATOM     27  H22 PRO d   1      25.093  -0.413 -17.495  0.00  0.00     0.035 H 
ATOM     28  H23 PRO d   1      25.739   1.255 -17.662  0.00  0.00     0.035 H 
ATOM     29  N   PRO d   1      23.911   0.062 -20.062  0.00  0.00    -0.337 N 
ATOM     30  H24 PRO d   1      23.122   0.626 -18.161  0.00  0.00     0.064 H 
ATOM     31  H25 PRO d   1      23.986   1.934 -19.039  0.00  0.00     0.064 H 
ATOM     32  C   PRO d   1      22.805  -0.089 -20.838  0.00  0.00     0.243 C 
ATOM     33  O   PRO d   1      22.769  -0.818 -21.856  0.00  0.00    -0.271 OA
ATOM     34  H19 PRO d   1      25.531  -0.424 -21.362  0.00  0.00     0.087 H 
BRANCH  32  35
ATOM     35  CA  PRO d   1      21.536   0.698 -20.447  0.00  0.00     0.092 C 
ATOM     36  CB  PRO d   1      20.452  -0.259 -19.960  0.00  0.00    -0.036 C 
ATOM     37  CG  PRO d   1      19.202   0.110 -20.719  0.00  0.00    -0.048 C 
ATOM     38  H13 PRO d   1      20.293  -0.138 -18.878  0.00  0.00     0.036 H 
ATOM     39  H14 PRO d   1      20.736  -1.300 -20.174  0.00  0.00     0.036 H 
ATOM     40  CD  PRO d   1      19.584   0.785 -21.961  0.00  0.00    -0.001 C 
ATOM     41  H15 PRO d   1      18.630  -0.800 -20.954  0.00  0.00     0.035 H 
ATOM     42  H16 PRO d   1      18.584   0.784 -20.107  0.00  0.00     0.035 H 
ATOM     43  N   PRO d   1      20.928   1.333 -21.629  0.00  0.00    -0.337 N 
ATOM     44  H17 PRO d   1      19.640   0.074 -22.799  0.00  0.00     0.064 H 
ATOM     45  H18 PRO d   1      18.877   1.590 -22.210  0.00  0.00     0.064 H 
ATOM     46  C   VAL d   1      21.612   2.278 -22.314  0.00  0.00     0.251 C 
ATOM     47  O   VAL d   1      22.721   2.685 -21.969  0.00  0.00    -0.271 OA
ATOM     48  H12 PRO d   1      21.783   1.445 -19.679  0.00  0.00     0.087 H 
BRANCH  46  49
ATOM     49  CA  VAL d   1      20.990   2.851 -23.570  0.00  0.00     0.178 C 
ATOM     50  H4  VAL d   1      19.921   2.598 -23.621  0.00  0.00     0.099 H 
BRANCH  49  51
ATOM     51  N   VAL d   1      21.175   4.342 -23.499  0.00  0.00    -0.066 N 
ATOM     52  H1  VAL d   1      20.774   4.770 -24.319  0.00  0.00     0.275 HD
ATOM     53  H2  VAL d   1      22.159   4.557 -23.455  0.00  0.00     0.275 HD
ATOM     54  H3  VAL d   1      20.716   4.699 -22.676  0.00  0.00     0.275 HD
ENDBRANCH  49  51
BRANCH  49  55
ATOM     55  CB  VAL d   1      21.722   2.289 -24.810  0.00  0.00    -0.025 C 
ATOM     56  H5  VAL d   1      22.786   2.549 -24.714  0.00  0.00     0.042 H 
BRANCH  55  57
ATOM     57  CG2 VAL d   1      21.197   2.936 -26.094  0.00  0.00    -0.071 C 
ATOM     58  H9  VAL d   1      21.279   4.030 -26.013  0.00  0.00     0.028 H 
ATOM     59  H10 VAL d   1      20.143   2.657 -26.241  0.00  0.00     0.028 H 
ATOM     60  H11 VAL d   1      21.792   2.586 -26.951  0.00  0.00     0.028 H 
ENDBRANCH  55  57
BRANCH  55  61
ATOM     61  CG1 VAL d   1      21.623   0.743 -24.885  0.00  0.00    -0.071 C 
ATOM     62  H6  VAL d   1      22.155   0.385 -25.779  0.00  0.00     0.028 H 
ATOM     63  H7  VAL d   1      20.566   0.446 -24.944  0.00  0.00     0.028 H 
ATOM     64  H8  VAL d   1      22.078   0.302 -23.986  0.00  0.00     0.028 H 
ENDBRANCH  55  61
ENDBRANCH  49  55
ENDBRANCH  46  49
ENDBRANCH  32  35
ENDBRANCH  18  21
ENDBRANCH   4   7
ENDBRANCH   1   3
BRANCH   1  65
ATOM     65  CB  VAL d   1      24.336  -6.894 -16.582  0.00  0.00    -0.033 C 
ATOM     66  H35 VAL d   1      24.301  -7.837 -17.147  0.00  0.00     0.042 H 
BRANCH  65  67
ATOM     67  CG2 VAL d   1      23.055  -6.111 -16.893  0.00  0.00    -0.071 C 
ATOM     68  H39 VAL d   1      23.020  -5.877 -17.967  0.00  0.00     0.028 H 
ATOM     69  H40 VAL d   1      23.047  -5.176 -16.314  0.00  0.00     0.028 H 
ATOM     70  H41 VAL d   1      22.179  -6.718 -16.621  0.00  0.00     0.028 H 
ENDBRANCH  65  67
BRANCH  65  71
ATOM     71  CG1 VAL d   1      24.434  -7.240 -15.120  0.00  0.00    -0.071 C 
ATOM     72  H36 VAL d   1      23.539  -7.803 -14.816  0.00  0.00     0.028 H 
ATOM     73  H37 VAL d   1      24.505  -6.315 -14.528  0.00  0.00     0.028 H 
ATOM     74  H38 VAL d   1      25.330  -7.855 -14.948  0.00  0.00     0.028 H 
ENDBRANCH  65  71
ENDBRANCH   1  65
BRANCH   1  75
ATOM     75  C   VAL d   1      26.812  -6.977 -16.962  0.00  0.00     0.243 C 
ATOM     76  O   VAL d   1      26.932  -7.965 -17.729  0.00  0.00    -0.271 OA
ATOM     77  N   PRO d   1      27.735  -6.629 -16.051  0.00  0.00    -0.337 N 
ATOM     78  CA  PRO d   1      28.963  -7.407 -15.852  0.00  0.00     0.092 C 
ATOM     79  CD  PRO d   1      27.659  -5.477 -15.118  0.00  0.00    -0.001 C 
ATOM     80  CB  PRO d   1      29.813  -6.478 -14.963  0.00  0.00    -0.036 C 
ATOM     81  H42 PRO d   1      29.458  -7.623 -16.810  0.00  0.00     0.087 H 
ATOM     82  CG  PRO d   1      28.804  -5.755 -14.143  0.00  0.00    -0.048 C 
ATOM     83  H43 PRO d   1      30.397  -5.775 -15.575  0.00  0.00     0.036 H 
ATOM     84  H44 PRO d   1      30.493  -7.061 -14.324  0.00  0.00     0.036 H 
ATOM     85  H45 PRO d   1      28.461  -6.381 -13.306  0.00  0.00     0.035 H 
ATOM     86  H46 PRO d   1      29.220  -4.815 -13.752  0.00  0.00     0.035 H 
ATOM     87  H47 PRO d   1      26.691  -5.453 -14.596  0.00  0.00     0.064 H 
ATOM     88  H48 PRO d   1      27.813  -4.526 -15.649  0.00  0.00     0.064 H 
BRANCH  78  89
ATOM     89  C   PRO d   1      28.692  -8.719 -15.091  0.00  0.00     0.243 C 
ATOM     90  O   PRO d   1      27.622  -8.870 -14.510  0.00  0.00    -0.271 OA
ATOM     91  N   PRO d   1      29.666  -9.645 -15.063  0.00  0.00    -0.337 N 
ATOM     92  CA  PRO d   1      29.594 -10.850 -14.204  0.00  0.00     0.092 C 
ATOM     93  CD  PRO d   1      30.929  -9.583 -15.830  0.00  0.00    -0.001 C 
ATOM     94  CB  PRO d   1      30.993 -11.519 -14.385  0.00  0.00    -0.036 C 
ATOM     95  H49 PRO d   1      28.782 -11.525 -14.511  0.00  0.00     0.087 H 
ATOM     96  CG  PRO d   1      31.480 -11.005 -15.717  0.00  0.00    -0.048 C 
ATOM     97  H50 PRO d   1      30.902 -12.615 -14.399  0.00  0.00     0.036 H 
ATOM     98  H51 PRO d   1      31.677 -11.218 -13.577  0.00  0.00     0.036 H 
ATOM     99  H52 PRO d   1      32.580 -10.995 -15.747  0.00  0.00     0.035 H 
ATOM    100  H53 PRO d   1      31.096 -11.632 -16.535  0.00  0.00     0.035 H 
ATOM    101  H54 PRO d   1      31.624  -8.855 -15.386  0.00  0.00     0.064 H 
ATOM    102  H55 PRO d   1      30.739  -9.316 -16.880  0.00  0.00     0.064 H 
BRANCH  92 103
ATOM    103  C   PRO d   1      29.399 -10.401 -12.766  0.00  0.00     0.243 C 
ATOM    104  O   PRO d   1      29.905  -9.314 -12.381  0.00  0.00    -0.271 OA
ATOM    105  N   PRO d   1      28.638 -11.161 -11.980  0.00  0.00    -0.337 N 
ATOM    106  CA  PRO d   1      28.453 -10.820 -10.561  0.00  0.00     0.092 C 
ATOM    107  CD  PRO d   1      27.871 -12.354 -12.398  0.00  0.00    -0.001 C 
ATOM    108  CB  PRO d   1      27.631 -12.001 -10.022  0.00  0.00    -0.036 C 
ATOM    109  H56 PRO d   1      27.943  -9.854 -10.430  0.00  0.00     0.087 H 
ATOM    110  CG  PRO d   1      27.167 -12.793 -11.183  0.00  0.00    -0.048 C 
ATOM    111  H57 PRO d   1      26.766 -11.627  -9.454  0.00  0.00     0.036 H 
ATOM    112  H58 PRO d   1      28.257 -12.626  -9.368  0.00  0.00     0.036 H 
ATOM    113  H59 PRO d   1      27.375 -13.858 -11.005  0.00  0.00     0.035 H 
ATOM    114  H60 PRO d   1      26.085 -12.648 -11.315  0.00  0.00     0.035 H 
ATOM    115  H61 PRO d   1      28.547 -13.142 -12.760  0.00  0.00     0.064 H 
ATOM    116  H62 PRO d   1      27.153 -12.095 -13.190  0.00  0.00     0.064 H 
BRANCH 106 117
ATOM    117  C   PRO d   1      29.799 -10.838  -9.844  0.00  0.00     0.243 C 
ATOM    118  O   PRO d   1      30.789 -11.348 -10.413  0.00  0.00    -0.271 OA
ATOM    119  N   PRO d   1      29.858 -10.356  -8.597  0.00  0.00    -0.337 N 
ATOM    120  CA  PRO d   1      31.095 -10.400  -7.847  0.00  0.00     0.091 C 
ATOM    121  CD  PRO d   1      28.779  -9.728  -7.811  0.00  0.00    -0.001 C 
ATOM    122  CB  PRO d   1      30.714  -9.773  -6.503  0.00  0.00    -0.036 C 
ATOM    123  H63 PRO d   1      31.878  -9.817  -8.355  0.00  0.00     0.087 H 
ATOM    124  CG  PRO d   1      29.486  -9.033  -6.714  0.00  0.00    -0.048 C 
ATOM    125  H64 PRO d   1      31.510  -9.095  -6.163  0.00  0.00     0.036 H 
ATOM    126  H65 PRO d   1      30.556 -10.559  -5.750  0.00  0.00     0.036 H 
ATOM    127  H66 PRO d   1      28.874  -9.038  -5.800  0.00  0.00     0.035 H 
ATOM    128  H67 PRO d   1      29.709  -7.995  -7.000  0.00  0.00     0.035 H 
ATOM    129  H68 PRO d   1      28.093 -10.490  -7.412  0.00  0.00     0.064 H 
ATOM    130  H69 PRO d   1      28.214  -9.012  -8.426  0.00  0.00     0.064 H 
BRANCH 120 131
ATOM    131  C   PRO d   1      31.592 -11.825  -7.610  0.00  0.00     0.241 C 
ATOM    132  O   PRO d   1      30.784 -12.767  -7.461  0.00  0.00    -0.271 OA
ATOM    133  N   SER d   1      32.914 -11.965  -7.594  0.00  0.00    -0.343 N 
ATOM    134  H70 SER d   1      33.485 -11.159  -7.747  0.00  0.00     0.163 HD
BRANCH 133 135
ATOM    135  CA  SER d   1      33.572 -13.270  -7.358  0.00  0.00     0.113 C 
ATOM    136  H71 SER d   1      33.011 -14.025  -7.928  0.00  0.00     0.092 H 
BRANCH 135 137
ATOM    137  CB  SER d   1      35.054 -13.286  -7.843  0.00  0.00     0.045 C 
ATOM    138  H72 SER d   1      35.498 -14.260  -7.589  0.00  0.00     0.077 H 
ATOM    139  H73 SER d   1      35.603 -12.486  -7.325  0.00  0.00     0.077 H 
BRANCH 137 140
ATOM    140  OG  SER d   1      35.169 -13.085  -9.240  0.00  0.00    -0.398 OA
ATOM    141  H74 SER d   1      34.794 -12.243  -9.470  0.00  0.00     0.209 HD
ENDBRANCH 137 140
ENDBRANCH 135 137
BRANCH 135 142
ATOM    142  C   SER d   1      33.576 -13.684  -5.893  0.00  0.00     0.165 C 
ATOM    143  O   SER d   1      34.469 -14.447  -5.500  0.00  0.00    -0.648 OA
BRANCH 142 144
ATOM    144  O1  SER d   1      32.644 -13.238  -5.056  0.00  0.00    -0.775 OA
ATOM    145  H75 SER d   1      32.045 -12.668  -5.525  0.00  0.00     0.167 HD
ENDBRANCH 142 144
ENDBRANCH 135 142
ENDBRANCH 133 135
ENDBRANCH 120 131
ENDBRANCH 106 117
ENDBRANCH  92 103
ENDBRANCH  78  89
ENDBRANCH   1  75
TORSDOF 22
