REMARK  5 active torsions:
REMARK  status: ('A' for Active; 'I' for Inactive)
REMARK    1  A    between atoms: C3_3  and  C2_4 
REMARK    2  A    between atoms: C2_4  and  C1_6 
REMARK    3  A    between atoms: C9_20  and  C10_21 
REMARK    4  A    between atoms: C9_20  and  C11_22 
REMARK    5  A    between atoms: C4_24  and  O3_25 
ROOT
ATOM      1  O2  CZA d   1      26.051 -15.697  15.598  0.00  0.00    -0.290 OA
ATOM      2  C6  CZA d   1      25.983 -15.299  14.369  0.00  0.00     0.190 A 
ATOM      3  C3  CZA d   1      27.221 -15.187  13.535  0.00  0.00     0.108 A 
ATOM      4  C5  CZA d   1      24.698 -14.834  13.779  0.00  0.00     0.085 A 
ATOM      5  C7  CZA d   1      23.628 -15.731  13.176  0.00  0.00     0.006 C 
ATOM      6  C15 CZA d   1      22.544 -16.037  14.138  0.00  0.00    -0.023 A 
ATOM      7  C16 CZA d   1      22.563 -16.944  15.177  0.00  0.00    -0.015 A 
ATOM      8  N2  CZA d   1      21.314 -16.827  15.726  0.00  0.00    -0.365 N 
ATOM      9  C17 CZA d   1      20.572 -15.902  15.060  0.00  0.00     0.043 A 
ATOM     10  C14 CZA d   1      21.355 -15.391  14.034  0.00  0.00     0.005 A 
ATOM     11  C18 CZA d   1      19.274 -15.410  15.200  0.00  0.00    -0.056 A 
ATOM     12  C19 CZA d   1      18.816 -14.428  14.312  0.00  0.00    -0.080 A 
ATOM     13  C20 CZA d   1      19.633 -13.933  13.286  0.00  0.00    -0.076 A 
ATOM     14  C13 CZA d   1      20.926 -14.433  13.151  0.00  0.00    -0.045 A 
ATOM     15  C12 CZA d   1      21.905 -13.984  12.090  0.00  0.00    -0.034 C 
ATOM     16  C8  CZA d   1      23.142 -14.901  11.949  0.00  0.00    -0.017 C 
ATOM     17  C9  CZA d   1      24.338 -14.047  11.503  0.00  0.00     0.033 C 
ATOM     18  N1  CZA d   1      25.340 -14.477  12.498  0.00  0.00    -0.339 N 
ATOM     19  C4  CZA d   1      26.648 -14.662  12.270  0.00  0.00     0.157 A 
ATOM     20  H4  CZA d   1      24.245 -14.030  14.379  0.00  0.00     0.086 H 
ATOM     21  H5  CZA d   1      24.070 -16.681  12.840  0.00  0.00     0.052 H 
ATOM     22  H6  CZA d   1      23.377 -17.597  15.487  0.00  0.00     0.112 H 
ATOM     23  H7  CZA d   1      20.980 -17.368  16.536  0.00  0.00     0.165 HD
ATOM     24  H8  CZA d   1      18.628 -15.783  15.986  0.00  0.00     0.086 H 
ATOM     25  H9  CZA d   1      17.809 -14.043  14.421  0.00  0.00     0.083 H 
ATOM     26  H10 CZA d   1      19.264 -13.172  12.608  0.00  0.00     0.084 H 
ATOM     27  H11 CZA d   1      22.252 -12.972  12.345  0.00  0.00     0.040 H 
ATOM     28  H12 CZA d   1      21.381 -13.959  11.123  0.00  0.00     0.040 H 
ATOM     29  H13 CZA d   1      22.902 -15.622  11.154  0.00  0.00     0.045 H 
ENDROOT
BRANCH  17  30
ATOM     30  C10 CZA d   1      24.762 -14.411  10.092  0.00  0.00    -0.053 C 
ATOM     31  H14 CZA d   1      25.618 -13.788   9.794  0.00  0.00     0.030 H 
ATOM     32  H15 CZA d   1      23.924 -14.237   9.401  0.00  0.00     0.030 H 
ATOM     33  H16 CZA d   1      25.051 -15.472  10.058  0.00  0.00     0.030 H 
ENDBRANCH  17  30
BRANCH  17  34
ATOM     34  C11 CZA d   1      24.061 -12.554  11.598  0.00  0.00    -0.053 C 
ATOM     35  H17 CZA d   1      23.755 -12.303  12.624  0.00  0.00     0.030 H 
ATOM     36  H18 CZA d   1      23.255 -12.285  10.899  0.00  0.00     0.030 H 
ATOM     37  H19 CZA d   1      24.972 -11.995  11.340  0.00  0.00     0.030 H 
ENDBRANCH  17  34
BRANCH  19  38
ATOM     38  O3  CZA d   1      27.424 -14.362  11.045  0.00  0.00    -0.345 OA
ATOM     39  H20 CZA d   1      28.333 -14.601  11.181  0.00  0.00     0.219 HD
ENDBRANCH  19  38
BRANCH   3  40
ATOM     40  C2  CZA d   1      28.645 -15.520  13.835  0.00  0.00     0.163 C 
ATOM     41  O1  CZA d   1      29.139 -15.189  14.905  0.00  0.00    -0.292 OA
BRANCH  40  42
ATOM     42  C1  CZA d   1      29.416 -16.247  12.767  0.00  0.00    -0.016 C 
ATOM     43  H1  CZA d   1      30.443 -16.428  13.116  0.00  0.00     0.038 H 
ATOM     44  H2  CZA d   1      29.442 -15.636  11.853  0.00  0.00     0.038 H 
ATOM     45  H3  CZA d   1      28.927 -17.208  12.552  0.00  0.00     0.038 H 
ENDBRANCH  40  42
ENDBRANCH   3  40
TORSDOF 5
