REMARK  8 active torsions:
REMARK  status: ('A' for Active; 'I' for Inactive)
REMARK    1  A    between atoms: C1_1  and  N3_3 
REMARK    2  A    between atoms: C2_2  and  C6_6 
REMARK    3  A    between atoms: N3_3  and  C7_7 
REMARK    4  A    between atoms: C6_6  and  C10_10 
REMARK    5  A    between atoms: C6_6  and  C11_11 
REMARK    6  A    between atoms: C14_14  and  S16_16 
REMARK    7  A    between atoms: S16_16  and  C17_17 
REMARK    8  A    between atoms: C17_17  and  C18_18 
ROOT
ATOM      1  C1  I96 d   1      16.668  29.944  18.368  0.00  0.00     0.056 A 
ATOM      2  C2  I96 d   1      16.130  30.425  19.635  0.00  0.00    -0.027 A 
ATOM      3  C4  I96 d   1      16.401  30.683  17.174  0.00  0.00    -0.056 A 
ATOM      4  C5  I96 d   1      15.350  31.640  19.616  0.00  0.00    -0.074 A 
ATOM      5  C8  I96 d   1      15.630  31.875  17.177  0.00  0.00    -0.081 A 
ATOM      6  C9  I96 d   1      15.110  32.350  18.387  0.00  0.00    -0.082 A 
ATOM      7  H2  I96 d   1      16.801  30.321  16.234  0.00  0.00     0.086 H 
ATOM      8  H3  I96 d   1      14.938  32.024  20.543  0.00  0.00     0.084 H 
ATOM      9  H5  I96 d   1      15.446  32.411  16.253  0.00  0.00     0.083 H 
ATOM     10  H6  I96 d   1      14.522  33.260  18.398  0.00  0.00     0.083 H 
ENDROOT
BRANCH   1  11
ATOM     11  N3  I96 d   1      17.429  28.775  18.259  0.00  0.00    -0.186 N 
ATOM     12  H1  I96 d   1      16.968  27.922  18.607  0.00  0.00     0.184 HD
BRANCH  11  13
ATOM     13  C7  I96 d   1      18.661  28.592  17.774  0.00  0.00     0.746 A 
ATOM     14  N12 I96 d   1      19.558  29.426  17.265  0.00  0.00    -0.035 NA
ATOM     15  C14 I96 d   1      20.604  28.605  16.966  0.00  0.00     0.202 A 
ATOM     16  N15 I96 d   1      20.409  27.315  17.252  0.00  0.00    -0.239 N 
ATOM     17  N13 I96 d   1      19.169  27.336  17.766  0.00  0.00     0.021 NA
ATOM     18  H13 I96 d   1      21.043  26.515  17.114  0.00  0.00     0.192 HD
BRANCH  15  19
ATOM     19  S16 I96 d   1      22.138  29.057  16.262  0.00  0.00    -0.085 SA
BRANCH  19  20
ATOM     20  C17 I96 d   1      22.290  30.869  15.902  0.00  0.00     0.014 C 
ATOM     21  H14 I96 d   1      22.527  30.938  14.830  0.00  0.00     0.057 H 
ATOM     22  H15 I96 d   1      23.152  31.215  16.491  0.00  0.00     0.057 H 
BRANCH  20  23
ATOM     23  C18 I96 d   1      21.195  31.893  16.143  0.00  0.00    -0.008 A 
ATOM     24  C19 I96 d   1      21.256  32.976  16.993  0.00  0.00    -0.069 A 
ATOM     25  C21 I96 d   1      20.072  33.764  16.984  0.00  0.00    -0.076 A 
ATOM     26  H16 I96 d   1      22.124  33.206  17.610  0.00  0.00     0.085 H 
ATOM     27  C22 I96 d   1      19.129  33.275  16.129  0.00  0.00    -0.044 A 
ATOM     28  H17 I96 d   1      19.934  34.657  17.591  0.00  0.00     0.084 H 
ATOM     29  S20 I96 d   1      19.680  31.858  15.336  0.00  0.00    -0.106 SA
ATOM     30  H18 I96 d   1      18.151  33.727  15.970  0.00  0.00     0.095 H 
ENDBRANCH  20  23
ENDBRANCH  19  20
ENDBRANCH  15  19
ENDBRANCH  11  13
ENDBRANCH   1  11
BRANCH   2  31
ATOM     31  C6  I96 d   1      16.331  29.731  21.009  0.00  0.00    -0.033 C 
ATOM     32  H4  I96 d   1      15.501  30.075  21.644  0.00  0.00     0.046 H 
BRANCH  31  33
ATOM     33  C10 I96 d   1      17.624  30.152  21.710  0.00  0.00    -0.069 C 
ATOM     34  H7  I96 d   1      17.706  29.627  22.673  0.00  0.00     0.028 H 
ATOM     35  H8  I96 d   1      17.610  31.238  21.884  0.00  0.00     0.028 H 
ATOM     36  H9  I96 d   1      18.485  29.893  21.077  0.00  0.00     0.028 H 
ENDBRANCH  31  33
BRANCH  31  37
ATOM     37  C11 I96 d   1      16.236  28.192  20.962  0.00  0.00    -0.069 C 
ATOM     38  H10 I96 d   1      15.304  27.897  20.457  0.00  0.00     0.028 H 
ATOM     39  H11 I96 d   1      16.239  27.793  21.987  0.00  0.00     0.028 H 
ATOM     40  H12 I96 d   1      17.097  27.788  20.409  0.00  0.00     0.028 H 
ENDBRANCH  31  37
ENDBRANCH   2  31
TORSDOF 8
