REMARK  4 active torsions:
REMARK  status: ('A' for Active; 'I' for Inactive)
REMARK    1  A    between atoms: C3_3  and  O22_22 
REMARK    2  A    between atoms: C4_4  and  C7_7 
REMARK    3  A    between atoms: C9_9  and  O21_21 
REMARK    4  A    between atoms: C11_11  and  C13_13 
ROOT
ATOM      1  C7  VRV d   1     -18.171  35.886   0.471  0.00  0.00     0.073 A 
ATOM      2  N8  VRV d   1     -17.396  35.170   1.314  0.00  0.00    -0.223 NA
ATOM      3  C9  VRV d   1     -16.557  34.213   0.963  0.00  0.00     0.184 A 
ATOM      4  C10 VRV d   1     -16.398  33.841  -0.414  0.00  0.00     0.108 A 
ATOM      5  C11 VRV d   1     -17.191  34.556  -1.423  0.00  0.00     0.002 A 
ATOM      6  C12 VRV d   1     -18.070  35.574  -0.940  0.00  0.00    -0.042 A 
ATOM      7  C19 VRV d   1     -15.464  32.787  -0.721  0.00  0.00     0.105 C 
ATOM      8  N20 VRV d   1     -14.724  31.937  -0.986  0.00  0.00    -0.191 NA
ATOM      9  H4  VRV d   1     -18.677  36.127  -1.648  0.00  0.00     0.088 H 
ENDROOT
BRANCH   3  10
ATOM     10  O21 VRV d   1     -15.885  33.637   2.014  0.00  0.00    -0.344 OA
ATOM     11  H10 VRV d   1     -15.377  34.301   2.466  0.00  0.00     0.219 HD
ENDBRANCH   3  10
BRANCH   5  12
ATOM     12  C13 VRV d   1     -17.146  34.312  -2.814  0.00  0.00    -0.024 A 
ATOM     13  C14 VRV d   1     -17.888  33.228  -3.418  0.00  0.00    -0.072 A 
ATOM     14  C15 VRV d   1     -17.831  32.988  -4.816  0.00  0.00    -0.082 A 
ATOM     15  H5  VRV d   1     -18.499  32.587  -2.792  0.00  0.00     0.084 H 
ATOM     16  C16 VRV d   1     -17.040  33.821  -5.642  0.00  0.00    -0.083 A 
ATOM     17  H6  VRV d   1     -18.392  32.168  -5.250  0.00  0.00     0.083 H 
ATOM     18  C17 VRV d   1     -16.298  34.896  -5.086  0.00  0.00    -0.082 A 
ATOM     19  H7  VRV d   1     -17.000  33.637  -6.710  0.00  0.00     0.083 H 
ATOM     20  C18 VRV d   1     -16.348  35.142  -3.692  0.00  0.00    -0.072 A 
ATOM     21  H8  VRV d   1     -15.694  35.528  -5.727  0.00  0.00     0.083 H 
ATOM     22  H9  VRV d   1     -15.779  35.965  -3.276  0.00  0.00     0.084 H 
ENDBRANCH   5  12
BRANCH   1  23
ATOM     23  C4  VRV d   1     -19.036  36.897   0.982  0.00  0.00     0.027 A 
ATOM     24  C3  VRV d   1     -19.120  37.249   2.399  0.00  0.00     0.078 A 
ATOM     25  C2  VRV d   1     -19.995  38.263   2.860  0.00  0.00    -0.049 A 
ATOM     26  C1  VRV d   1     -20.805  38.962   1.947  0.00  0.00    -0.064 A 
ATOM     27  H2  VRV d   1     -20.040  38.500   3.917  0.00  0.00     0.087 H 
ATOM     28  C6  VRV d   1     -20.747  38.651   0.573  0.00  0.00     0.012 A 
ATOM     29  H1  VRV d   1     -21.473  39.739   2.300  0.00  0.00     0.085 H 
ATOM     30  C5  VRV d   1     -19.889  37.648   0.106  0.00  0.00    -0.051 A 
ATOM     31 BR23 VRV d   1     -21.825  39.596  -0.691  0.00  0.00    -0.051 Br
ATOM     32  H3  VRV d   1     -19.868  37.431  -0.956  0.00  0.00     0.087 H 
BRANCH  24  33
ATOM     33  O22 VRV d   1     -18.375  36.640   3.378  0.00  0.00    -0.360 OA
ATOM     34  H11 VRV d   1     -17.451  36.767   3.196  0.00  0.00     0.217 HD
ENDBRANCH  24  33
ENDBRANCH   1  23
TORSDOF 4
