REMARK  20 active torsions:
REMARK  status: ('A' for Active; 'I' for Inactive)
REMARK    1  A    between atoms: C1_1  and  O3_3 
REMARK       I    between atoms: C1_1  and  N8_8 
REMARK    2  A    between atoms: O3_3  and  C4_4 
REMARK    3  A    between atoms: C4_4  and  C5_5 
REMARK    4  A    between atoms: C4_4  and  C6_6 
REMARK    5  A    between atoms: C4_4  and  C7_7 
REMARK    6  A    between atoms: N8_8  and  C9_9 
REMARK    7  A    between atoms: C9_9  and  C10_10 
REMARK    8  A    between atoms: C9_9  and  C14_14 
REMARK    9  A    between atoms: C10_10  and  C11_11 
REMARK   10  A    between atoms: C10_10  and  C12_12 
REMARK   11  A    between atoms: C10_10  and  C13_13 
REMARK       I    between atoms: C14_14  and  N16_16 
REMARK   12  A    between atoms: C18_18  and  C24_24 
REMARK   13  A    between atoms: C21_21  and  C22_22 
REMARK   14  A    between atoms: C21_21  and  C23_23 
REMARK       I    between atoms: C24_24  and  N26_26 
REMARK   15  A    between atoms: N26_26  and  C27_27 
REMARK   16  A    between atoms: C27_27  and  C28_28 
REMARK   17  A    between atoms: C27_27  and  C33_33 
REMARK   18  A    between atoms: C28_28  and  C29_29 
REMARK   19  A    between atoms: C33_33  and  O32_32 
REMARK   20  A    between atoms: C33_33  and  C36_36 
REMARK       I    between atoms: C36_36  and  N35_35 
ROOT
ATOM      1  C14 HUD d   1     194.581  -8.608  49.190  0.00  0.00     0.244 C 
ATOM      2  O15 HUD d   1     194.411  -7.386  49.244  0.00  0.00    -0.271 OA
ATOM      3  N16 HUD d   1     195.172  -9.290  50.182  0.00  0.00    -0.336 N 
ATOM      4  C17 HUD d   1     195.409 -10.735  50.267  0.00  0.00     0.003 C 
ATOM      5  C18 HUD d   1     195.693  -8.587  51.350  0.00  0.00     0.096 C 
ATOM      6  C19 HUD d   1     196.502  -9.608  52.099  0.00  0.00    -0.013 A 
ATOM      7  C20 HUD d   1     196.320 -10.892  51.423  0.00  0.00    -0.025 A 
ATOM      8  C21 HUD d   1     195.711 -10.703  52.785  0.00  0.00    -0.036 A 
ATOM      9  H21 HUD d   1     195.882 -11.107  49.346  0.00  0.00     0.065 H 
ATOM     10  H22 HUD d   1     194.466 -11.275  50.439  0.00  0.00     0.065 H 
ATOM     11  H23 HUD d   1     194.902  -8.121  51.956  0.00  0.00     0.088 H 
ATOM     12  H24 HUD d   1     197.455  -9.229  52.497  0.00  0.00     0.045 H 
ATOM     13  H25 HUD d   1     197.132 -11.612  51.244  0.00  0.00     0.044 H 
ENDROOT
BRANCH   1  14
ATOM     14  C9  HUD d   1     194.074  -9.417  48.001  0.00  0.00     0.098 C 
ATOM     15  H11 HUD d   1     194.457 -10.439  48.138  0.00  0.00     0.088 H 
BRANCH  14  16
ATOM     16  N8  HUD d   1     192.623  -9.540  48.025  0.00  0.00    -0.323 N 
ATOM     17  C1  HUD d   1     192.018 -10.409  48.831  0.00  0.00     0.362 C 
ATOM     18  O2  HUD d   1     192.624 -11.285  49.459  0.00  0.00    -0.238 OA
ATOM     19  H10 HUD d   1     192.071  -8.961  47.425  0.00  0.00     0.165 HD
BRANCH  17  20
ATOM     20  O3  HUD d   1     190.689 -10.165  48.844  0.00  0.00    -0.294 OA
BRANCH  20  21
ATOM     21  C4  HUD d   1     189.698 -10.928  49.635  0.00  0.00     0.061 C 
BRANCH  21  22
ATOM     22  C5  HUD d   1     188.338 -10.225  49.443  0.00  0.00    -0.048 C 
ATOM     23  H1  HUD d   1     187.565 -10.759  50.015  0.00  0.00     0.031 H 
ATOM     24  H2  HUD d   1     188.071 -10.228  48.376  0.00  0.00     0.031 H 
ATOM     25  H3  HUD d   1     188.408  -9.187  49.801  0.00  0.00     0.031 H 
ENDBRANCH  21  22
BRANCH  21  26
ATOM     26  C6  HUD d   1     189.522 -12.365  49.071  0.00  0.00    -0.048 C 
ATOM     27  H4  HUD d   1     188.782 -12.908  49.676  0.00  0.00     0.031 H 
ATOM     28  H5  HUD d   1     190.486 -12.894  49.108  0.00  0.00     0.031 H 
ATOM     29  H6  HUD d   1     189.174 -12.310  48.029  0.00  0.00     0.031 H 
ENDBRANCH  21  26
BRANCH  21  30
ATOM     30  C7  HUD d   1     190.067 -10.981  51.148  0.00  0.00    -0.048 C 
ATOM     31  H7  HUD d   1     189.303 -11.557  51.692  0.00  0.00     0.031 H 
ATOM     32  H8  HUD d   1     190.111  -9.958  51.551  0.00  0.00     0.031 H 
ATOM     33  H9  HUD d   1     191.047 -11.466  51.270  0.00  0.00     0.031 H 
ENDBRANCH  21  30
ENDBRANCH  20  21
ENDBRANCH  17  20
ENDBRANCH  14  16
BRANCH  14  34
ATOM     34  C10 HUD d   1     194.673  -8.935  46.701  0.00  0.00    -0.022 C 
BRANCH  34  35
ATOM     35  C11 HUD d   1     196.168  -8.954  46.910  0.00  0.00    -0.067 C 
ATOM     36  H12 HUD d   1     196.671  -8.611  45.994  0.00  0.00     0.028 H 
ATOM     37  H13 HUD d   1     196.492  -9.979  47.145  0.00  0.00     0.028 H 
ATOM     38  H14 HUD d   1     196.430  -8.286  47.744  0.00  0.00     0.028 H 
ENDBRANCH  34  35
BRANCH  34  39
ATOM     39  C12 HUD d   1     194.343  -9.887  45.596  0.00  0.00    -0.067 C 
ATOM     40  H15 HUD d   1     193.256  -9.889  45.426  0.00  0.00     0.028 H 
ATOM     41  H16 HUD d   1     194.673 -10.899  45.873  0.00  0.00     0.028 H 
ATOM     42  H17 HUD d   1     194.857  -9.573  44.676  0.00  0.00     0.028 H 
ENDBRANCH  34  39
BRANCH  34  43
ATOM     43  C13 HUD d   1     194.228  -7.497  46.296  0.00  0.00    -0.067 C 
ATOM     44  H18 HUD d   1     194.470  -6.796  47.108  0.00  0.00     0.028 H 
ATOM     45  H19 HUD d   1     193.143  -7.487  46.114  0.00  0.00     0.028 H 
ATOM     46  H20 HUD d   1     194.756  -7.194  45.380  0.00  0.00     0.028 H 
ENDBRANCH  34  43
ENDBRANCH  14  34
ENDBRANCH   1  14
BRANCH   5  47
ATOM     47  C24 HUD d   1     196.730  -7.595  50.860  0.00  0.00     0.241 C 
ATOM     48  O25 HUD d   1     197.586  -7.945  50.046  0.00  0.00    -0.271 OA
ATOM     49  N26 HUD d   1     196.607  -6.349  51.302  0.00  0.00    -0.352 N 
ATOM     50  H32 HUD d   1     195.848  -6.126  51.913  0.00  0.00     0.163 HD
BRANCH  49  51
ATOM     51  C27 HUD d   1     197.545  -5.291  50.925  0.00  0.00     0.046 C 
ATOM     52  H33 HUD d   1     198.278  -5.712  50.222  0.00  0.00     0.077 H 
BRANCH  51  53
ATOM     53  C28 HUD d   1     196.821  -4.131  50.234  0.00  0.00    -0.040 C 
ATOM     54  H34 HUD d   1     197.559  -3.392  49.888  0.00  0.00     0.036 H 
ATOM     55  H35 HUD d   1     196.131  -3.654  50.945  0.00  0.00     0.036 H 
BRANCH  53  56
ATOM     56  C29 HUD d   1     196.040  -4.658  49.049  0.00  0.00    -0.052 A 
ATOM     57  C30 HUD d   1     196.669  -4.655  47.695  0.00  0.00    -0.061 A 
ATOM     58  C31 HUD d   1     195.529  -3.714  48.021  0.00  0.00    -0.061 A 
ATOM     59  H37 HUD d   1     196.508  -5.500  47.010  0.00  0.00     0.033 H 
ATOM     60  H38 HUD d   1     197.688  -4.262  47.560  0.00  0.00     0.033 H 
ATOM     61  H39 HUD d   1     195.717  -2.635  48.122  0.00  0.00     0.033 H 
ATOM     62  H40 HUD d   1     194.538  -3.873  47.571  0.00  0.00     0.033 H 
ATOM     63  H36 HUD d   1     195.421  -5.510  49.365  0.00  0.00     0.040 H 
ENDBRANCH  53  56
ENDBRANCH  51  53
BRANCH  51  64
ATOM     64  C33 HUD d   1     198.297  -4.773  52.170  0.00  0.00     0.131 C 
ATOM     65  H42 HUD d   1     197.632  -4.127  52.763  0.00  0.00     0.101 H 
BRANCH  64  66
ATOM     66  O32 HUD d   1     198.739  -5.896  52.996  0.00  0.00    -0.384 OA
ATOM     67  H41 HUD d   1     197.983  -6.399  53.275  0.00  0.00     0.210 HD
ENDBRANCH  64  66
BRANCH  64  68
ATOM     68  C36 HUD d   1     199.485  -3.977  51.693  0.00  0.00     0.246 C 
ATOM     69  O34 HUD d   1     199.318  -2.854  51.206  0.00  0.00    -0.271 OA
ATOM     70  N35 HUD d   1     200.677  -4.546  51.823  0.00  0.00    -0.368 N 
ATOM     71  H43 HUD d   1     201.498  -4.061  51.522  0.00  0.00     0.159 HD
ATOM     72  H44 HUD d   1     200.754  -5.460  52.222  0.00  0.00     0.159 HD
ENDBRANCH  64  68
ENDBRANCH  51  64
ENDBRANCH  49  51
ENDBRANCH   5  47
BRANCH   8  73
ATOM     73  C22 HUD d   1     196.347 -11.332  53.991  0.00  0.00    -0.068 C 
ATOM     74  H26 HUD d   1     195.761 -11.082  54.887  0.00  0.00     0.028 H 
ATOM     75  H27 HUD d   1     197.372 -10.951  54.106  0.00  0.00     0.028 H 
ATOM     76  H28 HUD d   1     196.374 -12.424  53.864  0.00  0.00     0.028 H 
ENDBRANCH   8  73
BRANCH   8  77
ATOM     77  C23 HUD d   1     194.202 -10.763  52.868  0.00  0.00    -0.068 C 
ATOM     78  H29 HUD d   1     193.767 -10.296  51.972  0.00  0.00     0.028 H 
ATOM     79  H30 HUD d   1     193.862 -10.224  53.765  0.00  0.00     0.028 H 
ATOM     80  H31 HUD d   1     193.880 -11.813  52.927  0.00  0.00     0.028 H 
ENDBRANCH   8  77
TORSDOF 20
