REMARK  17 active torsions:
REMARK  status: ('A' for Active; 'I' for Inactive)
REMARK    1  A    between atoms: C1_1  and  O3_3 
REMARK       I    between atoms: C1_1  and  N8_8 
REMARK    2  A    between atoms: O3_3  and  C4_4 
REMARK    3  A    between atoms: C4_4  and  C5_5 
REMARK    4  A    between atoms: C4_4  and  C6_6 
REMARK    5  A    between atoms: C4_4  and  C7_7 
REMARK    6  A    between atoms: N8_8  and  C9_9 
REMARK    7  A    between atoms: C9_9  and  C10_10 
REMARK    8  A    between atoms: C9_9  and  C16_16 
REMARK       I    between atoms: C16_16  and  N18_18 
REMARK    9  A    between atoms: C20_20  and  C26_26 
REMARK   10  A    between atoms: C23_23  and  C24_24 
REMARK   11  A    between atoms: C23_23  and  C25_25 
REMARK       I    between atoms: C26_26  and  N28_28 
REMARK   12  A    between atoms: N28_28  and  C29_29 
REMARK   13  A    between atoms: C29_29  and  C30_30 
REMARK   14  A    between atoms: C29_29  and  C36_36 
REMARK   15  A    between atoms: C30_30  and  C31_31 
REMARK   16  A    between atoms: C36_36  and  O35_35 
REMARK   17  A    between atoms: C36_36  and  C39_39 
REMARK       I    between atoms: C39_39  and  N38_38 
ROOT
ATOM      1  C16 HU1 d   1     194.689  -8.618  49.532  0.00  0.00     0.243 C 
ATOM      2  O17 HU1 d   1     194.411  -7.416  49.628  0.00  0.00    -0.271 OA
ATOM      3  N18 HU1 d   1     195.412  -9.260  50.462  0.00  0.00    -0.336 N 
ATOM      4  C19 HU1 d   1     195.763 -10.689  50.496  0.00  0.00     0.003 C 
ATOM      5  C20 HU1 d   1     195.969  -8.547  51.616  0.00  0.00     0.096 C 
ATOM      6  C21 HU1 d   1     196.440  -9.573  52.586  0.00  0.00    -0.013 A 
ATOM      7  C22 HU1 d   1     196.484 -10.842  51.811  0.00  0.00    -0.025 A 
ATOM      8  C23 HU1 d   1     195.643 -10.758  53.088  0.00  0.00    -0.036 A 
ATOM      9  H23 HU1 d   1     196.420 -10.953  49.654  0.00  0.00     0.065 H 
ATOM     10  H24 HU1 d   1     194.860 -11.317  50.467  0.00  0.00     0.065 H 
ATOM     11  H25 HU1 d   1     195.161  -7.979  52.099  0.00  0.00     0.088 H 
ATOM     12  H26 HU1 d   1     197.255  -9.188  53.217  0.00  0.00     0.045 H 
ATOM     13  H27 HU1 d   1     197.370 -11.490  51.743  0.00  0.00     0.044 H 
ENDROOT
BRANCH   1  14
ATOM     14  C9  HU1 d   1     194.149  -9.443  48.371  0.00  0.00     0.095 C 
ATOM     15  H11 HU1 d   1     194.538 -10.471  48.416  0.00  0.00     0.088 H 
BRANCH  14  16
ATOM     16  N8  HU1 d   1     192.697  -9.453  48.490  0.00  0.00    -0.323 N 
ATOM     17  C1  HU1 d   1     192.040 -10.383  49.175  0.00  0.00     0.362 C 
ATOM     18  O2  HU1 d   1     192.610 -11.334  49.722  0.00  0.00    -0.238 OA
ATOM     19  H10 HU1 d   1     192.174  -8.731  48.038  0.00  0.00     0.165 HD
BRANCH  17  20
ATOM     20  O3  HU1 d   1     190.701 -10.149  49.146  0.00  0.00    -0.294 OA
BRANCH  20  21
ATOM     21  C4  HU1 d   1     189.659 -10.859  49.896  0.00  0.00     0.061 C 
BRANCH  21  22
ATOM     22  C5  HU1 d   1     188.867 -11.661  48.860  0.00  0.00    -0.048 C 
ATOM     23  H1  HU1 d   1     188.065 -12.220  49.364  0.00  0.00     0.031 H 
ATOM     24  H2  HU1 d   1     189.540 -12.366  48.349  0.00  0.00     0.031 H 
ATOM     25  H3  HU1 d   1     188.428 -10.974  48.122  0.00  0.00     0.031 H 
ENDBRANCH  21  22
BRANCH  21  26
ATOM     26  C6  HU1 d   1     188.684  -9.830  50.506  0.00  0.00    -0.048 C 
ATOM     27  H4  HU1 d   1     187.900 -10.357  51.070  0.00  0.00     0.031 H 
ATOM     28  H5  HU1 d   1     188.222  -9.240  49.701  0.00  0.00     0.031 H 
ATOM     29  H6  HU1 d   1     189.234  -9.160  51.182  0.00  0.00     0.031 H 
ENDBRANCH  21  26
BRANCH  21  30
ATOM     30  C7  HU1 d   1     190.154 -11.781  51.049  0.00  0.00    -0.048 C 
ATOM     31  H7  HU1 d   1     189.289 -12.257  51.535  0.00  0.00     0.031 H 
ATOM     32  H8  HU1 d   1     190.706 -11.181  51.788  0.00  0.00     0.031 H 
ATOM     33  H9  HU1 d   1     190.817 -12.557  50.639  0.00  0.00     0.031 H 
ENDBRANCH  21  30
ENDBRANCH  20  21
ENDBRANCH  17  20
ENDBRANCH  14  16
BRANCH  14  34
ATOM     34  C10 HU1 d   1     194.580  -8.786  47.061  0.00  0.00    -0.026 C 
ATOM     35  C11 HU1 d   1     196.105  -8.753  46.942  0.00  0.00    -0.059 C 
ATOM     36  C13 HU1 d   1     196.584  -8.211  45.604  0.00  0.00    -0.065 C 
ATOM     37  H13 HU1 d   1     196.488  -9.777  47.063  0.00  0.00     0.033 H 
ATOM     38  H14 HU1 d   1     196.506  -8.114  47.743  0.00  0.00     0.033 H 
ATOM     39  C15 HU1 d   1     195.954  -8.990  44.441  0.00  0.00    -0.065 C 
ATOM     40  H17 HU1 d   1     197.679  -8.304  45.549  0.00  0.00     0.033 H 
ATOM     41  H18 HU1 d   1     196.301  -7.151  45.523  0.00  0.00     0.033 H 
ATOM     42  C14 HU1 d   1     194.435  -8.971  44.529  0.00  0.00    -0.065 C 
ATOM     43  H21 HU1 d   1     196.303 -10.033  44.476  0.00  0.00     0.033 H 
ATOM     44  H22 HU1 d   1     196.265  -8.531  43.491  0.00  0.00     0.033 H 
ATOM     45  C12 HU1 d   1     193.977  -9.521  45.864  0.00  0.00    -0.059 C 
ATOM     46  H19 HU1 d   1     194.079  -7.936  44.422  0.00  0.00     0.033 H 
ATOM     47  H20 HU1 d   1     194.017  -9.588  43.720  0.00  0.00     0.033 H 
ATOM     48  H15 HU1 d   1     192.882  -9.437  45.919  0.00  0.00     0.033 H 
ATOM     49  H16 HU1 d   1     194.267 -10.581  45.923  0.00  0.00     0.033 H 
ATOM     50  H12 HU1 d   1     194.209  -7.750  47.056  0.00  0.00     0.043 H 
ENDBRANCH  14  34
ENDBRANCH   1  14
BRANCH   5  51
ATOM     51  C26 HU1 d   1     197.019  -7.534  51.172  0.00  0.00     0.241 C 
ATOM     52  O27 HU1 d   1     198.003  -7.888  50.508  0.00  0.00    -0.271 OA
ATOM     53  N28 HU1 d   1     196.813  -6.278  51.551  0.00  0.00    -0.352 N 
ATOM     54  H34 HU1 d   1     196.013  -6.060  52.110  0.00  0.00     0.163 HD
BRANCH  53  55
ATOM     55  C29 HU1 d   1     197.728  -5.211  51.170  0.00  0.00     0.046 C 
ATOM     56  H35 HU1 d   1     198.489  -5.641  50.502  0.00  0.00     0.077 H 
BRANCH  55  57
ATOM     57  C30 HU1 d   1     196.961  -4.140  50.382  0.00  0.00    -0.040 C 
ATOM     58  H36 HU1 d   1     197.657  -3.326  50.131  0.00  0.00     0.036 H 
ATOM     59  H37 HU1 d   1     196.155  -3.748  51.020  0.00  0.00     0.036 H 
BRANCH  57  60
ATOM     60  C31 HU1 d   1     196.333  -4.674  49.067  0.00  0.00    -0.052 C 
ATOM     61  C32 HU1 d   1     195.355  -3.761  48.323  0.00  0.00    -0.062 C 
ATOM     62  C34 HU1 d   1     196.030  -4.167  47.007  0.00  0.00    -0.064 C 
ATOM     63  H39 HU1 d   1     195.451  -2.694  48.572  0.00  0.00     0.033 H 
ATOM     64  H40 HU1 d   1     194.300  -4.063  48.404  0.00  0.00     0.033 H 
ATOM     65  C33 HU1 d   1     197.236  -4.654  47.832  0.00  0.00    -0.062 C 
ATOM     66  H43 HU1 d   1     196.250  -3.329  46.330  0.00  0.00     0.033 H 
ATOM     67  H44 HU1 d   1     195.507  -4.960  46.452  0.00  0.00     0.033 H 
ATOM     68  H41 HU1 d   1     197.622  -5.640  47.535  0.00  0.00     0.033 H 
ATOM     69  H42 HU1 d   1     198.068  -3.937  47.888  0.00  0.00     0.033 H 
ATOM     70  H38 HU1 d   1     195.911  -5.668  49.278  0.00  0.00     0.040 H 
ENDBRANCH  57  60
ENDBRANCH  55  57
BRANCH  55  71
ATOM     71  C36 HU1 d   1     198.472  -4.614  52.395  0.00  0.00     0.131 C 
ATOM     72  H46 HU1 d   1     197.803  -3.973  52.988  0.00  0.00     0.101 H 
BRANCH  71  73
ATOM     73  O35 HU1 d   1     199.014  -5.702  53.204  0.00  0.00    -0.384 OA
ATOM     74  H45 HU1 d   1     198.304  -6.258  53.502  0.00  0.00     0.210 HD
ENDBRANCH  71  73
BRANCH  71  75
ATOM     75  C39 HU1 d   1     199.688  -3.823  51.858  0.00  0.00     0.246 C 
ATOM     76  O37 HU1 d   1     199.491  -2.745  51.307  0.00  0.00    -0.271 OA
ATOM     77  N38 HU1 d   1     200.906  -4.332  52.008  0.00  0.00    -0.368 N 
ATOM     78  H47 HU1 d   1     201.702  -3.833  51.666  0.00  0.00     0.159 HD
ATOM     79  H48 HU1 d   1     201.027  -5.215  52.463  0.00  0.00     0.159 HD
ENDBRANCH  71  75
ENDBRANCH  55  71
ENDBRANCH  53  55
ENDBRANCH   5  51
BRANCH   8  80
ATOM     80  C24 HU1 d   1     196.163 -11.434  54.316  0.00  0.00    -0.068 C 
ATOM     81  H28 HU1 d   1     195.454 -11.286  55.144  0.00  0.00     0.028 H 
ATOM     82  H29 HU1 d   1     197.138 -11.003  54.587  0.00  0.00     0.028 H 
ATOM     83  H30 HU1 d   1     196.280 -12.510  54.121  0.00  0.00     0.028 H 
ENDBRANCH   8  80
BRANCH   8  84
ATOM     84  C25 HU1 d   1     194.151 -10.713  52.969  0.00  0.00    -0.068 C 
ATOM     85  H31 HU1 d   1     193.873 -10.198  52.037  0.00  0.00     0.028 H 
ATOM     86  H32 HU1 d   1     193.731 -10.169  53.828  0.00  0.00     0.028 H 
ATOM     87  H33 HU1 d   1     193.753 -11.738  52.954  0.00  0.00     0.028 H 
ENDBRANCH   8  84
TORSDOF 17
