REMARK  28 active torsions:
REMARK  status: ('A' for Active; 'I' for Inactive)
REMARK    1  A    between atoms: C1_1  and  C2_2 
REMARK       I    between atoms: N14_14  and  C1_1 
REMARK    2  A    between atoms: C2_2  and  C3_3 
REMARK    3  A    between atoms: C2_2  and  C10_10 
REMARK    4  A    between atoms: C3_3  and  C4_4 
REMARK    5  A    between atoms: C5_5  and  C6_6 
REMARK    6  A    between atoms: C6_6  and  C7_7 
REMARK    7  A    between atoms: C7_7  and  C8_8 
REMARK    8  A    between atoms: C7_7  and  C9_9 
REMARK    9  A    between atoms: C10_10  and  C11_11 
REMARK   10  A    between atoms: C10_10  and  C12_12 
REMARK   11  A    between atoms: C15_15  and  N14_14 
REMARK   12  A    between atoms: C15_15  and  C16_16 
REMARK   13  A    between atoms: C20_20  and  C15_15 
REMARK   14  A    between atoms: C16_16  and  C17_17 
REMARK   15  A    between atoms: C17_17  and  C18_18 
REMARK   16  A    between atoms: C17_17  and  C19_19 
REMARK       I    between atoms: N22_22  and  C20_20 
REMARK   17  A    between atoms: C23_23  and  N22_22 
REMARK   18  A    between atoms: C23_23  and  C24_24 
REMARK   19  A    between atoms: C28_28  and  C23_23 
REMARK   20  A    between atoms: C24_24  and  C25_25 
REMARK   21  A    between atoms: C25_25  and  C26_26 
REMARK   22  A    between atoms: C28_28  and  O27_27 
REMARK   23  A    between atoms: C34_34  and  C28_28 
REMARK   24  A    between atoms: N30_30  and  C31_31 
REMARK       I    between atoms: N30_30  and  C34_34 
REMARK   25  A    between atoms: C31_31  and  C32_32 
REMARK       I    between atoms: C32_32  and  N35_35 
REMARK   26  A    between atoms: N35_35  and  C36_36 
REMARK   27  A    between atoms: C36_36  and  C37_37 
REMARK   28  A    between atoms: C36_36  and  C43_43 
ROOT
ATOM      1  C15 HU2 d   1     194.694  -8.551  51.124  0.00  0.00     0.089 C 
ATOM      2  H23 HU2 d   1     193.788  -8.149  51.601  0.00  0.00     0.087 H 
ENDROOT
BRANCH   1   3
ATOM      3  N14 HU2 d   1     194.337  -9.166  49.858  0.00  0.00    -0.347 N 
ATOM      4  C1  HU2 d   1     193.546  -8.548  48.992  0.00  0.00     0.223 C 
ATOM      5  O13 HU2 d   1     193.064  -7.429  49.195  0.00  0.00    -0.273 OA
ATOM      6  H22 HU2 d   1     194.695 -10.073  49.635  0.00  0.00     0.163 HD
BRANCH   4   7
ATOM      7  C2  HU2 d   1     193.267  -9.304  47.697  0.00  0.00     0.029 C 
ATOM      8  H1  HU2 d   1     193.865 -10.227  47.678  0.00  0.00     0.055 H 
BRANCH   7   9
ATOM      9  C3  HU2 d   1     191.781  -9.674  47.563  0.00  0.00    -0.038 C 
ATOM     10  H2  HU2 d   1     191.645 -10.185  46.599  0.00  0.00     0.040 H 
ATOM     11  H3  HU2 d   1     191.198  -8.741  47.569  0.00  0.00     0.040 H 
BRANCH   9  12
ATOM     12  C4  HU2 d   1     191.247 -10.547  48.616  0.00  0.00    -0.106 C 
ATOM     13  C5  HU2 d   1     189.948 -10.285  49.012  0.00  0.00    -0.106 C 
ATOM     14  H5  HU2 d   1     189.401  -9.497  48.496  0.00  0.00     0.076 H 
ATOM     15  H4  HU2 d   1     191.836 -11.350  49.057  0.00  0.00     0.076 H 
BRANCH  13  16
ATOM     16  C6  HU2 d   1     189.275 -11.003  50.076  0.00  0.00    -0.047 C 
ATOM     17  H6  HU2 d   1     189.980 -11.181  50.901  0.00  0.00     0.039 H 
ATOM     18  H7  HU2 d   1     188.907 -11.966  49.693  0.00  0.00     0.039 H 
BRANCH  16  19
ATOM     19  C7  HU2 d   1     188.091 -10.169  50.585  0.00  0.00    -0.058 C 
ATOM     20  H8  HU2 d   1     188.357  -9.105  50.498  0.00  0.00     0.039 H 
BRANCH  19  21
ATOM     21  C8  HU2 d   1     186.820 -10.408  49.768  0.00  0.00    -0.073 C 
ATOM     22  H9  HU2 d   1     186.004  -9.790  50.170  0.00  0.00     0.028 H 
ATOM     23  H10 HU2 d   1     186.540 -11.470  49.828  0.00  0.00     0.028 H 
ATOM     24  H11 HU2 d   1     187.002 -10.136  48.718  0.00  0.00     0.028 H 
ENDBRANCH  19  21
BRANCH  19  25
ATOM     25  C9  HU2 d   1     187.847 -10.488  52.044  0.00  0.00    -0.073 C 
ATOM     26  H12 HU2 d   1     188.769 -10.311  52.617  0.00  0.00     0.028 H 
ATOM     27  H13 HU2 d   1     187.549 -11.542  52.144  0.00  0.00     0.028 H 
ATOM     28  H14 HU2 d   1     187.045  -9.842  52.431  0.00  0.00     0.028 H 
ENDBRANCH  19  25
ENDBRANCH  16  19
ENDBRANCH  13  16
ENDBRANCH   9  12
ENDBRANCH   7   9
BRANCH   7  29
ATOM     29  C10 HU2 d   1     193.691  -8.387  46.529  0.00  0.00    -0.049 C 
ATOM     30  H15 HU2 d   1     193.024  -7.513  46.523  0.00  0.00     0.040 H 
BRANCH  29  31
ATOM     31  C11 HU2 d   1     195.127  -7.884  46.721  0.00  0.00    -0.072 C 
ATOM     32  H16 HU2 d   1     195.404  -7.234  45.877  0.00  0.00     0.028 H 
ATOM     33  H17 HU2 d   1     195.814  -8.742  46.764  0.00  0.00     0.028 H 
ATOM     34  H18 HU2 d   1     195.194  -7.314  47.660  0.00  0.00     0.028 H 
ENDBRANCH  29  31
BRANCH  29  35
ATOM     35  C12 HU2 d   1     193.535  -9.106  45.198  0.00  0.00    -0.072 C 
ATOM     36  H19 HU2 d   1     192.497  -9.454  45.089  0.00  0.00     0.028 H 
ATOM     37  H20 HU2 d   1     194.217  -9.969  45.165  0.00  0.00     0.028 H 
ATOM     38  H21 HU2 d   1     193.778  -8.415  44.377  0.00  0.00     0.028 H 
ENDBRANCH  29  35
ENDBRANCH   7  29
ENDBRANCH   4   7
ENDBRANCH   1   3
BRANCH   1  39
ATOM     39  C16 HU2 d   1     195.329  -9.581  52.061  0.00  0.00    -0.035 C 
ATOM     40  H24 HU2 d   1     195.619  -9.062  52.986  0.00  0.00     0.037 H 
ATOM     41  H25 HU2 d   1     196.228  -9.978  51.566  0.00  0.00     0.037 H 
BRANCH  39  42
ATOM     42  C17 HU2 d   1     194.445 -10.767  52.447  0.00  0.00    -0.059 C 
ATOM     43  H26 HU2 d   1     194.237 -11.366  51.548  0.00  0.00     0.038 H 
BRANCH  42  44
ATOM     44  C18 HU2 d   1     195.172 -11.626  53.455  0.00  0.00    -0.073 C 
ATOM     45  H27 HU2 d   1     194.538 -12.480  53.734  0.00  0.00     0.028 H 
ATOM     46  H28 HU2 d   1     195.398 -11.029  54.351  0.00  0.00     0.028 H 
ATOM     47  H29 HU2 d   1     196.110 -11.995  53.014  0.00  0.00     0.028 H 
ENDBRANCH  42  44
BRANCH  42  48
ATOM     48  C19 HU2 d   1     193.126 -10.278  53.027  0.00  0.00    -0.073 C 
ATOM     49  H30 HU2 d   1     192.607  -9.655  52.284  0.00  0.00     0.028 H 
ATOM     50  H31 HU2 d   1     193.321  -9.684  53.932  0.00  0.00     0.028 H 
ATOM     51  H32 HU2 d   1     192.496 -11.142  53.285  0.00  0.00     0.028 H 
ENDBRANCH  42  48
ENDBRANCH  39  42
ENDBRANCH   1  39
BRANCH   1  52
ATOM     52  C20 HU2 d   1     195.663  -7.409  50.845  0.00  0.00     0.240 C 
ATOM     53  O21 HU2 d   1     196.780  -7.626  50.364  0.00  0.00    -0.271 OA
ATOM     54  N22 HU2 d   1     195.216  -6.186  51.102  0.00  0.00    -0.352 N 
ATOM     55  H33 HU2 d   1     194.290  -6.067  51.461  0.00  0.00     0.163 HD
BRANCH  54  56
ATOM     56  C23 HU2 d   1     196.049  -5.014  50.871  0.00  0.00     0.045 C 
ATOM     57  H34 HU2 d   1     196.822  -5.405  50.193  0.00  0.00     0.077 H 
BRANCH  56  58
ATOM     58  C24 HU2 d   1     195.347  -4.018  49.937  0.00  0.00    -0.044 C 
ATOM     59  H35 HU2 d   1     195.785  -3.023  50.103  0.00  0.00     0.036 H 
ATOM     60  H36 HU2 d   1     194.279  -3.996  50.198  0.00  0.00     0.036 H 
BRANCH  58  61
ATOM     61  C25 HU2 d   1     195.469  -4.351  48.452  0.00  0.00    -0.067 C 
ATOM     62  H37 HU2 d   1     195.853  -5.375  48.336  0.00  0.00     0.032 H 
ATOM     63  H38 HU2 d   1     196.162  -3.643  47.973  0.00  0.00     0.032 H 
BRANCH  61  64
ATOM     64  C26 HU2 d   1     194.120  -4.246  47.805  0.00  0.00    -0.076 C 
ATOM     65  H39 HU2 d   1     194.207  -4.486  46.735  0.00  0.00     0.027 H 
ATOM     66  H40 HU2 d   1     193.736  -3.222  47.921  0.00  0.00     0.027 H 
ATOM     67  H41 HU2 d   1     193.427  -4.954  48.284  0.00  0.00     0.027 H 
ENDBRANCH  61  64
ENDBRANCH  58  61
ENDBRANCH  56  58
BRANCH  56  68
ATOM     68  C28 HU2 d   1     196.934  -4.625  52.074  0.00  0.00     0.131 C 
ATOM     69  H43 HU2 d   1     196.382  -3.954  52.749  0.00  0.00     0.101 H 
BRANCH  68  70
ATOM     70  O27 HU2 d   1     197.431  -5.769  52.800  0.00  0.00    -0.384 OA
ATOM     71  H42 HU2 d   1     196.698  -6.275  53.131  0.00  0.00     0.210 HD
ENDBRANCH  68  70
BRANCH  68  72
ATOM     72  C34 HU2 d   1     198.174  -3.948  51.497  0.00  0.00     0.248 C 
ATOM     73  O29 HU2 d   1     198.055  -2.824  51.001  0.00  0.00    -0.271 OA
ATOM     74  N30 HU2 d   1     199.338  -4.585  51.570  0.00  0.00    -0.350 N 
ATOM     75  H44 HU2 d   1     199.328  -5.575  51.710  0.00  0.00     0.163 HD
BRANCH  74  76
ATOM     76  C31 HU2 d   1     200.624  -3.918  51.457  0.00  0.00     0.069 C 
ATOM     77  H45 HU2 d   1     201.394  -4.511  51.972  0.00  0.00     0.078 H 
ATOM     78  H46 HU2 d   1     200.564  -2.919  51.913  0.00  0.00     0.078 H 
BRANCH  76  79
ATOM     79  C32 HU2 d   1     200.979  -3.787  49.993  0.00  0.00     0.236 C 
ATOM     80  O33 HU2 d   1     200.137  -3.966  49.111  0.00  0.00    -0.272 OA
ATOM     81  N35 HU2 d   1     202.236  -3.438  49.745  0.00  0.00    -0.341 N 
ATOM     82  H47 HU2 d   1     202.847  -3.275  50.520  0.00  0.00     0.163 HD
BRANCH  81  83
ATOM     83  C36 HU2 d   1     202.767  -3.282  48.400  0.00  0.00     0.122 C 
ATOM     84  H48 HU2 d   1     202.280  -4.042  47.772  0.00  0.00     0.097 H 
BRANCH  83  85
ATOM     85  C37 HU2 d   1     202.541  -1.931  47.716  0.00  0.00    -0.025 A 
ATOM     86  C38 HU2 d   1     202.341  -1.881  46.342  0.00  0.00    -0.074 A 
ATOM     87  C40 HU2 d   1     202.161  -0.635  45.738  0.00  0.00    -0.082 A 
ATOM     88  H49 HU2 d   1     202.325  -2.790  45.752  0.00  0.00     0.084 H 
ATOM     89  C42 HU2 d   1     202.184   0.541  46.500  0.00  0.00    -0.083 A 
ATOM     90  H51 HU2 d   1     202.002  -0.577  44.667  0.00  0.00     0.083 H 
ATOM     91  C41 HU2 d   1     202.383   0.481  47.872  0.00  0.00    -0.082 A 
ATOM     92  H53 HU2 d   1     202.046   1.501  46.016  0.00  0.00     0.083 H 
ATOM     93  C39 HU2 d   1     202.559  -0.758  48.454  0.00  0.00    -0.074 A 
ATOM     94  H52 HU2 d   1     202.400   1.384  48.471  0.00  0.00     0.083 H 
ATOM     95  H50 HU2 d   1     202.717  -0.816  49.525  0.00  0.00     0.084 H 
ENDBRANCH  83  85
BRANCH  83  96
ATOM     96  C43 HU2 d   1     204.265  -3.575  48.446  0.00  0.00     0.201 C 
ATOM     97  O44 HU2 d   1     204.984  -3.042  49.301  0.00  0.00    -0.646 OA
ATOM     98  O45 HU2 d   1     204.778  -4.362  47.648  0.00  0.00    -0.646 OA
ENDBRANCH  83  96
ENDBRANCH  81  83
ENDBRANCH  76  79
ENDBRANCH  74  76
ENDBRANCH  68  72
ENDBRANCH  56  68
ENDBRANCH  54  56
ENDBRANCH   1  52
TORSDOF 28
