REMARK  5 active torsions:
REMARK  status: ('A' for Active; 'I' for Inactive)
REMARK    1  A    between atoms: C1'_19  and  C9_1 
REMARK    2  A    between atoms: C5'_12  and  O5'_11 
REMARK    3  A    between atoms: C4'_13  and  C5'_12 
REMARK    4  A    between atoms: C3'_15  and  O3'_16 
REMARK    5  A    between atoms: C2'_17  and  O2'_18 
ROOT
ATOM      1  C4' IMH d   1      15.510  12.712  61.151  0.00  0.00     0.149 C 
ATOM      2  N4' IMH d   1      15.233  13.253  59.807  0.00  0.00    -0.055 N 
ATOM      3  C3' IMH d   1      14.204  12.073  61.593  0.00  0.00     0.092 C 
ATOM      4  C2' IMH d   1      13.268  12.068  60.356  0.00  0.00     0.094 C 
ATOM      5  C1' IMH d   1      13.900  12.926  59.227  0.00  0.00     0.158 C 
ATOM      6  H8  IMH d   1      15.775  13.549  61.814  0.00  0.00     0.091 H 
ATOM      7  H9  IMH d   1      15.937  12.895  59.181  0.00  0.00     0.278 HD
ATOM      8  H10 IMH d   1      15.308  14.257  59.858  0.00  0.00     0.278 HD
ATOM      9  H11 IMH d   1      14.381  11.027  61.885  0.00  0.00     0.090 H 
ATOM     10  H13 IMH d   1      13.176  11.031  60.000  0.00  0.00     0.090 H 
ATOM     11  H15 IMH d   1      13.288  13.817  59.023  0.00  0.00     0.096 H 
ENDROOT
BRANCH   5  12
ATOM     12  C9  IMH d   1      14.198  12.204  57.956  0.00  0.00     0.022 A 
ATOM     13  C8  IMH d   1      15.163  12.687  57.088  0.00  0.00    -0.012 A 
ATOM     14  N7  IMH d   1      15.261  11.785  56.051  0.00  0.00    -0.360 N 
ATOM     15  H1  IMH d   1      15.736  13.606  57.203  0.00  0.00     0.112 H 
ATOM     16  C5  IMH d   1      14.448  10.721  56.220  0.00  0.00     0.116 A 
ATOM     17  H2  IMH d   1      15.883  11.909  55.240  0.00  0.00     0.165 HD
ATOM     18  C6  IMH d   1      14.155   9.479  55.506  0.00  0.00     0.209 A 
ATOM     19  C4  IMH d   1      13.707  10.895  57.460  0.00  0.00     0.099 A 
ATOM     20  O6  IMH d   1      14.805   9.251  54.356  0.00  0.00    -0.170 OA
ATOM     21  N1  IMH d   1      13.236   8.610  55.998  0.00  0.00    -0.327 N 
ATOM     22  C2  IMH d   1      12.579   8.860  57.134  0.00  0.00     0.066 A 
ATOM     23  H3  IMH d   1      13.046   7.764  55.499  0.00  0.00     0.168 HD
ATOM     24  N3  IMH d   1      12.804   9.971  57.863  0.00  0.00    -0.241 NA
ATOM     25  H4  IMH d   1      11.837   8.143  57.482  0.00  0.00     0.143 H 
ENDBRANCH   5  12
BRANCH   4  26
ATOM     26  O2' IMH d   1      11.958  12.547  60.663  0.00  0.00    -0.390 OA
ATOM     27  H14 IMH d   1      12.015  13.439  60.985  0.00  0.00     0.210 HD
ENDBRANCH   4  26
BRANCH   1  28
ATOM     28  C5' IMH d   1      16.591  11.655  61.276  0.00  0.00     0.046 C 
ATOM     29  H6  IMH d   1      17.301  11.965  62.057  0.00  0.00     0.077 H 
ATOM     30  H7  IMH d   1      16.123  10.702  61.563  0.00  0.00     0.077 H 
BRANCH  28  31
ATOM     31  O5' IMH d   1      17.307  11.467  60.049  0.00  0.00    -0.399 OA
ATOM     32  H5  IMH d   1      17.720  12.284  59.796  0.00  0.00     0.209 HD
ENDBRANCH  28  31
ENDBRANCH   1  28
BRANCH   3  33
ATOM     33  O3' IMH d   1      13.744  12.791  62.777  0.00  0.00    -0.391 OA
ATOM     34  H12 IMH d   1      12.926  12.413  63.078  0.00  0.00     0.210 HD
ENDBRANCH   3  33
TORSDOF 5
