REMARK  17 active torsions:
REMARK  status: ('A' for Active; 'I' for Inactive)
REMARK    1  A    between atoms: C1_1  and  O3_3 
REMARK       I    between atoms: C1_1  and  N8_8 
REMARK    2  A    between atoms: O3_3  and  C4_4 
REMARK    3  A    between atoms: C4_4  and  C5_5 
REMARK    4  A    between atoms: C4_4  and  C6_6 
REMARK    5  A    between atoms: C4_4  and  C7_7 
REMARK    6  A    between atoms: N8_8  and  C9_9 
REMARK    7  A    between atoms: C9_9  and  C10_10 
REMARK    8  A    between atoms: C9_9  and  C16_16 
REMARK       I    between atoms: C16_16  and  N18_18 
REMARK    9  A    between atoms: C20_20  and  C27_27 
REMARK   10  A    between atoms: C24_24  and  C25_25 
REMARK   11  A    between atoms: C24_24  and  C26_26 
REMARK       I    between atoms: C27_27  and  N29_29 
REMARK   12  A    between atoms: N29_29  and  C30_30 
REMARK   13  A    between atoms: C30_30  and  C31_31 
REMARK   14  A    between atoms: C30_30  and  C37_37 
REMARK   15  A    between atoms: C31_31  and  C32_32 
REMARK   16  A    between atoms: C37_37  and  O36_36 
REMARK   17  A    between atoms: C37_37  and  C40_40 
REMARK       I    between atoms: C40_40  and  N39_39 
ROOT
ATOM      1  C16 HU4 d   1     195.118  -8.711  49.616  0.00  0.00     0.243 C 
ATOM      2  O17 HU4 d   1     194.650  -7.576  49.771  0.00  0.00    -0.271 OA
ATOM      3  N18 HU4 d   1     195.891  -9.289  50.546  0.00  0.00    -0.334 N 
ATOM      4  C19 HU4 d   1     196.496 -10.625  50.470  0.00  0.00     0.023 C 
ATOM      5  C20 HU4 d   1     196.288  -8.581  51.764  0.00  0.00     0.100 C 
ATOM      6  C21 HU4 d   1     196.704  -9.688  52.666  0.00  0.00     0.030 C 
ATOM      7  C22 HU4 d   1     197.286 -10.708  51.790  0.00  0.00     0.063 C 
ATOM      8  O23 HU4 d   1     196.724 -11.703  52.676  0.00  0.00    -0.373 OA
ATOM      9  C24 HU4 d   1     195.844 -10.735  53.310  0.00  0.00     0.062 C 
ATOM     10  H23 HU4 d   1     197.165 -10.710  49.601  0.00  0.00     0.068 H 
ATOM     11  H24 HU4 d   1     195.725 -11.408  50.418  0.00  0.00     0.068 H 
ATOM     12  H25 HU4 d   1     195.437  -8.039  52.201  0.00  0.00     0.088 H 
ATOM     13  H26 HU4 d   1     197.393  -9.261  53.410  0.00  0.00     0.052 H 
ATOM     14  H27 HU4 d   1     198.377 -10.719  51.651  0.00  0.00     0.086 H 
ENDROOT
BRANCH   1  15
ATOM     15  C9  HU4 d   1     194.762  -9.540  48.379  0.00  0.00     0.095 C 
ATOM     16  H11 HU4 d   1     195.269 -10.516  48.398  0.00  0.00     0.088 H 
BRANCH  15  17
ATOM     17  N8  HU4 d   1     193.319  -9.709  48.396  0.00  0.00    -0.323 N 
ATOM     18  C1  HU4 d   1     192.725 -10.649  49.113  0.00  0.00     0.362 C 
ATOM     19  O2  HU4 d   1     193.358 -11.491  49.756  0.00  0.00    -0.238 OA
ATOM     20  H10 HU4 d   1     192.755  -9.093  47.846  0.00  0.00     0.165 HD
BRANCH  18  21
ATOM     21  O3  HU4 d   1     191.381 -10.569  48.973  0.00  0.00    -0.294 OA
BRANCH  21  22
ATOM     22  C4  HU4 d   1     190.407 -11.201  49.819  0.00  0.00     0.061 C 
BRANCH  22  23
ATOM     23  C5  HU4 d   1     190.691 -11.206  51.355  0.00  0.00    -0.048 C 
ATOM     24  H1  HU4 d   1     189.870 -11.719  51.878  0.00  0.00     0.031 H 
ATOM     25  H2  HU4 d   1     190.766 -10.170  51.717  0.00  0.00     0.031 H 
ATOM     26  H3  HU4 d   1     191.636 -11.733  51.551  0.00  0.00     0.031 H 
ENDBRANCH  22  23
BRANCH  22  27
ATOM     27  C6  HU4 d   1     189.040 -10.433  49.549  0.00  0.00    -0.048 C 
ATOM     28  H4  HU4 d   1     188.245 -10.870  50.170  0.00  0.00     0.031 H 
ATOM     29  H5  HU4 d   1     188.769 -10.528  48.487  0.00  0.00     0.031 H 
ATOM     30  H6  HU4 d   1     189.161  -9.370  49.803  0.00  0.00     0.031 H 
ENDBRANCH  22  27
BRANCH  22  31
ATOM     31  C7  HU4 d   1     190.332 -12.677  49.403  0.00  0.00    -0.048 C 
ATOM     32  H7  HU4 d   1     189.594 -13.198  50.030  0.00  0.00     0.031 H 
ATOM     33  H8  HU4 d   1     191.319 -13.145  49.533  0.00  0.00     0.031 H 
ATOM     34  H9  HU4 d   1     190.030 -12.746  48.348  0.00  0.00     0.031 H 
ENDBRANCH  22  31
ENDBRANCH  21  22
ENDBRANCH  18  21
ENDBRANCH  15  17
BRANCH  15  35
ATOM     35  C10 HU4 d   1     195.175  -8.749  47.139  0.00  0.00    -0.026 C 
ATOM     36  C11 HU4 d   1     196.672  -8.466  47.109  0.00  0.00    -0.059 C 
ATOM     37  C13 HU4 d   1     197.068  -7.660  45.865  0.00  0.00    -0.065 C 
ATOM     38  H13 HU4 d   1     197.216  -9.422  47.103  0.00  0.00     0.033 H 
ATOM     39  H14 HU4 d   1     196.946  -7.894  48.008  0.00  0.00     0.033 H 
ATOM     40  C15 HU4 d   1     196.599  -8.341  44.573  0.00  0.00    -0.065 C 
ATOM     41  H17 HU4 d   1     198.163  -7.561  45.838  0.00  0.00     0.033 H 
ATOM     42  H18 HU4 d   1     196.611  -6.661  45.927  0.00  0.00     0.033 H 
ATOM     43  C14 HU4 d   1     195.097  -8.645  44.605  0.00  0.00    -0.065 C 
ATOM     44  H21 HU4 d   1     197.151  -9.284  44.447  0.00  0.00     0.033 H 
ATOM     45  H22 HU4 d   1     196.810  -7.676  43.723  0.00  0.00     0.033 H 
ATOM     46  C12 HU4 d   1     194.738  -9.445  45.848  0.00  0.00    -0.059 C 
ATOM     47  H19 HU4 d   1     194.537  -7.698  44.610  0.00  0.00     0.033 H 
ATOM     48  H20 HU4 d   1     194.827  -9.226  43.711  0.00  0.00     0.033 H 
ATOM     49  H15 HU4 d   1     193.647  -9.585  45.874  0.00  0.00     0.033 H 
ATOM     50  H16 HU4 d   1     195.232 -10.426  45.791  0.00  0.00     0.033 H 
ATOM     51  H12 HU4 d   1     194.657  -7.780  47.184  0.00  0.00     0.043 H 
ENDBRANCH  15  35
ENDBRANCH   1  15
BRANCH   5  52
ATOM     52  C27 HU4 d   1     197.390  -7.580  51.440  0.00  0.00     0.241 C 
ATOM     53  O28 HU4 d   1     198.476  -7.959  50.995  0.00  0.00    -0.271 OA
ATOM     54  N29 HU4 d   1     197.114  -6.300  51.669  0.00  0.00    -0.352 N 
ATOM     55  H34 HU4 d   1     196.225  -6.049  52.051  0.00  0.00     0.163 HD
BRANCH  54  56
ATOM     56  C30 HU4 d   1     198.089  -5.256  51.372  0.00  0.00     0.046 C 
ATOM     57  H35 HU4 d   1     198.858  -5.714  50.732  0.00  0.00     0.077 H 
BRANCH  56  58
ATOM     58  C31 HU4 d   1     197.418  -4.146  50.545  0.00  0.00    -0.040 C 
ATOM     59  H36 HU4 d   1     198.187  -3.420  50.243  0.00  0.00     0.036 H 
ATOM     60  H37 HU4 d   1     196.667  -3.645  51.174  0.00  0.00     0.036 H 
BRANCH  58  61
ATOM     61  C32 HU4 d   1     196.712  -4.686  49.261  0.00  0.00    -0.052 C 
ATOM     62  C33 HU4 d   1     197.584  -5.033  48.055  0.00  0.00    -0.062 C 
ATOM     63  C35 HU4 d   1     196.520  -4.400  47.165  0.00  0.00    -0.064 C 
ATOM     64  H39 HU4 d   1     197.731  -6.111  47.894  0.00  0.00     0.033 H 
ATOM     65  H40 HU4 d   1     198.558  -4.523  48.035  0.00  0.00     0.033 H 
ATOM     66  C34 HU4 d   1     195.890  -3.737  48.394  0.00  0.00    -0.062 C 
ATOM     67  H43 HU4 d   1     195.865  -5.126  46.661  0.00  0.00     0.033 H 
ATOM     68  H44 HU4 d   1     196.917  -3.689  46.425  0.00  0.00     0.033 H 
ATOM     69  H41 HU4 d   1     196.140  -2.673  48.518  0.00  0.00     0.033 H 
ATOM     70  H42 HU4 d   1     194.801  -3.870  48.477  0.00  0.00     0.033 H 
ATOM     71  H38 HU4 d   1     196.111  -5.548  49.586  0.00  0.00     0.040 H 
ENDBRANCH  58  61
ENDBRANCH  56  58
BRANCH  56  72
ATOM     72  C37 HU4 d   1     198.837  -4.708  52.619  0.00  0.00     0.131 C 
ATOM     73  H46 HU4 d   1     198.192  -3.992  53.149  0.00  0.00     0.101 H 
BRANCH  72  74
ATOM     74  O36 HU4 d   1     199.191  -5.793  53.462  0.00  0.00    -0.384 OA
ATOM     75  H45 HU4 d   1     198.404  -6.250  53.736  0.00  0.00     0.210 HD
ENDBRANCH  72  74
BRANCH  72  76
ATOM     76  C40 HU4 d   1     200.164  -4.053  52.247  0.00  0.00     0.246 C 
ATOM     77  O38 HU4 d   1     200.123  -2.908  51.786  0.00  0.00    -0.271 OA
ATOM     78  N39 HU4 d   1     201.300  -4.728  52.426  0.00  0.00    -0.368 N 
ATOM     79  H47 HU4 d   1     202.175  -4.307  52.185  0.00  0.00     0.159 HD
ATOM     80  H48 HU4 d   1     201.277  -5.655  52.801  0.00  0.00     0.159 HD
ENDBRANCH  72  76
ENDBRANCH  56  72
ENDBRANCH  54  56
ENDBRANCH   5  52
BRANCH   9  81
ATOM     81  C25 HU4 d   1     195.874 -10.861  54.770  0.00  0.00    -0.047 C 
ATOM     82  H28 HU4 d   1     195.194 -11.667  55.083  0.00  0.00     0.031 H 
ATOM     83  H29 HU4 d   1     195.553  -9.913  55.227  0.00  0.00     0.031 H 
ATOM     84  H30 HU4 d   1     196.897 -11.097  55.097  0.00  0.00     0.031 H 
ENDBRANCH   9  81
BRANCH   9  85
ATOM     85  C26 HU4 d   1     194.381 -10.698  52.980  0.00  0.00    -0.047 C 
ATOM     86  H31 HU4 d   1     193.865 -11.511  53.511  0.00  0.00     0.031 H 
ATOM     87  H32 HU4 d   1     194.246 -10.825  51.896  0.00  0.00     0.031 H 
ATOM     88  H33 HU4 d   1     193.959  -9.731  53.291  0.00  0.00     0.031 H 
ENDBRANCH   9  85
TORSDOF 17
