REMARK  5 active torsions:
REMARK  status: ('A' for Active; 'I' for Inactive)
REMARK    1  A    between atoms: C1'_19  and  C9_1 
REMARK    2  A    between atoms: C5'_12  and  O5'_11 
REMARK    3  A    between atoms: C4'_13  and  C5'_12 
REMARK    4  A    between atoms: C3'_15  and  O3'_16 
REMARK    5  A    between atoms: C2'_17  and  O2'_18 
ROOT
ATOM      1  C4' IMH d   1      15.416  12.515  61.148  0.00  0.00     0.149 C 
ATOM      2  N4' IMH d   1      15.157  13.174  59.861  0.00  0.00    -0.055 N 
ATOM      3  C3' IMH d   1      14.037  12.022  61.612  0.00  0.00     0.092 C 
ATOM      4  C2' IMH d   1      13.092  12.126  60.375  0.00  0.00     0.094 C 
ATOM      5  C1' IMH d   1      13.856  12.848  59.232  0.00  0.00     0.158 C 
ATOM      6  H8  IMH d   1      15.814  13.246  61.867  0.00  0.00     0.091 H 
ATOM      7  H9  IMH d   1      15.888  12.905  59.221  0.00  0.00     0.278 HD
ATOM      8  H10 IMH d   1      15.190  14.171  60.009  0.00  0.00     0.278 HD
ATOM      9  H11 IMH d   1      14.103  10.960  61.890  0.00  0.00     0.090 H 
ATOM     10  H13 IMH d   1      12.860  11.103  60.043  0.00  0.00     0.090 H 
ATOM     11  H15 IMH d   1      13.298  13.752  58.944  0.00  0.00     0.096 H 
ENDROOT
BRANCH   5  12
ATOM     12  C9  IMH d   1      14.213  12.087  57.984  0.00  0.00     0.022 A 
ATOM     13  C8  IMH d   1      15.209  12.568  57.133  0.00  0.00    -0.012 A 
ATOM     14  N7  IMH d   1      15.346  11.664  56.109  0.00  0.00    -0.360 N 
ATOM     15  H1  IMH d   1      15.774  13.491  57.258  0.00  0.00     0.112 H 
ATOM     16  C5  IMH d   1      14.502  10.605  56.237  0.00  0.00     0.116 A 
ATOM     17  H2  IMH d   1      16.012  11.775  55.332  0.00  0.00     0.165 HD
ATOM     18  C6  IMH d   1      14.213   9.365  55.499  0.00  0.00     0.209 A 
ATOM     19  C4  IMH d   1      13.720  10.786  57.457  0.00  0.00     0.099 A 
ATOM     20  O6  IMH d   1      14.880   9.068  54.355  0.00  0.00    -0.170 OA
ATOM     21  N1  IMH d   1      13.275   8.523  55.991  0.00  0.00    -0.327 N 
ATOM     22  C2  IMH d   1      12.591   8.768  57.115  0.00  0.00     0.066 A 
ATOM     23  H3  IMH d   1      13.084   7.678  55.491  0.00  0.00     0.168 HD
ATOM     24  N3  IMH d   1      12.797   9.881  57.846  0.00  0.00    -0.241 NA
ATOM     25  H4  IMH d   1      11.846   8.047  57.449  0.00  0.00     0.143 H 
ENDBRANCH   5  12
BRANCH   4  26
ATOM     26  O2' IMH d   1      11.838  12.779  60.652  0.00  0.00    -0.390 OA
ATOM     27  H14 IMH d   1      11.315  12.807  59.859  0.00  0.00     0.210 HD
ENDBRANCH   4  26
BRANCH   1  28
ATOM     28  C5' IMH d   1      16.412  11.368  61.029  0.00  0.00     0.046 C 
ATOM     29  H6  IMH d   1      16.616  10.957  62.029  0.00  0.00     0.077 H 
ATOM     30  H7  IMH d   1      15.987  10.581  60.389  0.00  0.00     0.077 H 
BRANCH  28  31
ATOM     31  O5' IMH d   1      17.634  11.841  60.452  0.00  0.00    -0.399 OA
ATOM     32  H5  IMH d   1      18.249  11.121  60.381  0.00  0.00     0.209 HD
ENDBRANCH  28  31
ENDBRANCH   1  28
BRANCH   3  33
ATOM     33  O3' IMH d   1      13.661  12.762  62.818  0.00  0.00    -0.391 OA
ATOM     34  H12 IMH d   1      14.307  12.607  63.497  0.00  0.00     0.210 HD
ENDBRANCH   3  33
TORSDOF 5
