REMARK WARNING: 32 MAX_TORS EXCEEDED!!!
REMARK  53 active torsions:
REMARK  status: ('A' for Active; 'I' for Inactive)
REMARK    1  A    between atoms: CA_2  and  N_1 
REMARK    2  A    between atoms: CA_2  and  CB_5 
REMARK    3  A    between atoms: C_3  and  CA_2 
REMARK       I    between atoms: N_15  and  C_3 
REMARK    4  A    between atoms: CB_5  and  CG2_7 
REMARK    5  A    between atoms: CB_5  and  OG1_6 
REMARK    6  A    between atoms: CA_16  and  N_15 
REMARK    7  A    between atoms: CA_16  and  CB_19 
REMARK    8  A    between atoms: C_17  and  CA_16 
REMARK       I    between atoms: N_34  and  C_17 
REMARK    9  A    between atoms: CB_19  and  CG2_21 
REMARK   10  A    between atoms: CB_19  and  CG1_20 
REMARK   11  A    between atoms: CG1_20  and  CD1_22 
REMARK   12  A    between atoms: CA_35  and  N_34 
REMARK   13  A    between atoms: CA_35  and  CB_38 
REMARK   14  A    between atoms: C_36  and  CA_35 
REMARK       I    between atoms: N_45  and  C_36 
REMARK   15  A    between atoms: CB_38  and  OG_39 
REMARK   16  A    between atoms: CA_46  and  N_45 
REMARK   17  A    between atoms: CA_46  and  CB_49 
REMARK   18  A    between atoms: C_47  and  CA_46 
REMARK       I    between atoms: N_59  and  C_47 
REMARK   19  A    between atoms: CB_49  and  CG_50 
REMARK       I    between atoms: CG_50  and  ND2_52 
REMARK   20  A    between atoms: C_61  and  CA_60 
REMARK       I    between atoms: N_73  and  C_61 
REMARK   21  A    between atoms: C_75  and  CA_74 
REMARK       I    between atoms: N_87  and  C_75 
REMARK   22  A    between atoms: C_89  and  CA_88 
REMARK       I    between atoms: N_101  and  C_89 
REMARK   23  A    between atoms: CA_102  and  N_101 
REMARK   24  A    between atoms: CA_102  and  CB_105 
REMARK   25  A    between atoms: C_103  and  CA_102 
REMARK       I    between atoms: N_120  and  C_103 
REMARK   26  A    between atoms: CB_105  and  CG_106 
REMARK   27  A    between atoms: CG_106  and  CD1_107 
REMARK   28  A    between atoms: CG_106  and  CD2_108 
REMARK   29  A    between atoms: CA_121  and  N_120 
REMARK   30  A    between atoms: CA_121  and  CB_124 
REMARK   31  A    between atoms: C_122  and  CA_121 
REMARK       I    between atoms: N_139  and  C_122 
REMARK   32  A    between atoms: CB_124  and  CG2_126 
REMARK   33  A    between atoms: CB_124  and  CG1_125 
REMARK   34  A    between atoms: CG1_125  and  CD1_127 
REMARK   35  A    between atoms: CA_140  and  N_139 
REMARK   36  A    between atoms: CA_140  and  CB_143 
REMARK   37  A    between atoms: C_141  and  CA_140 
REMARK       I    between atoms: N_150  and  C_141 
REMARK   38  A    between atoms: CB_143  and  OG_144 
REMARK   39  A    between atoms: CA_151  and  N_150 
REMARK   40  A    between atoms: CA_151  and  CB_154 
REMARK   41  A    between atoms: C_152  and  CA_151 
REMARK       I    between atoms: N_161  and  C_152 
REMARK   42  A    between atoms: CB_154  and  OG_155 
REMARK   43  A    between atoms: CA_162  and  N_161 
REMARK   44  A    between atoms: CA_162  and  CB_165 
REMARK   45  A    between atoms: C_163  and  CA_162 
REMARK       I    between atoms: C_163  and  N_171 
REMARK   46  A    between atoms: N_171  and  CA_172 
REMARK   47  A    between atoms: CA_172  and  CB_175 
REMARK   48  A    between atoms: CA_172  and  C_173 
REMARK   49  A    between atoms: C_173  and  O1_193 
REMARK   50  A    between atoms: CB_175  and  CG_176 
REMARK   51  A    between atoms: CG_176  and  CD_177 
REMARK   52  A    between atoms: CD_177  and  CE_178 
REMARK   53  A    between atoms: CE_178  and  NZ_179 
ROOT
ATOM      1  C   PRO d   1      -3.883  -3.619   8.981  0.00  0.00     0.243 C 
ATOM      2  O   PRO d   1      -3.075  -2.740   8.678  0.00  0.00    -0.271 OA
ATOM      3  N   PRO d   1      -3.615  -4.534   9.929  0.00  0.00    -0.337 N 
ATOM      4  CA  PRO d   1      -2.348  -4.556  10.669  0.00  0.00     0.091 C 
ATOM      5  CB  PRO d   1      -2.598  -5.591  11.769  0.00  0.00    -0.036 C 
ATOM      6  CG  PRO d   1      -3.649  -6.487  11.214  0.00  0.00    -0.048 C 
ATOM      7  CD  PRO d   1      -4.523  -5.617  10.353  0.00  0.00    -0.001 C 
ATOM      8  H46 PRO d   1      -2.138  -3.567  11.102  0.00  0.00     0.087 H 
ATOM      9  H47 PRO d   1      -2.951  -5.102  12.689  0.00  0.00     0.036 H 
ATOM     10  H48 PRO d   1      -1.680  -6.157  11.985  0.00  0.00     0.036 H 
ATOM     11  H49 PRO d   1      -3.191  -7.285  10.611  0.00  0.00     0.035 H 
ATOM     12  H50 PRO d   1      -4.238  -6.935  12.028  0.00  0.00     0.035 H 
ATOM     13  H51 PRO d   1      -4.901  -6.176   9.485  0.00  0.00     0.064 H 
ATOM     14  H52 PRO d   1      -5.370  -5.217  10.929  0.00  0.00     0.064 H 
ENDROOT
BRANCH   4  15
ATOM     15  C   PRO d   1      -1.171  -4.979   9.797  0.00  0.00     0.241 C 
ATOM     16  O   PRO d   1      -1.350  -5.625   8.764  0.00  0.00    -0.271 OA
ATOM     17  N   LEU d   1       0.034  -4.611  10.222  0.00  0.00    -0.346 N 
ATOM     18  H53 LEU d   1       0.113  -4.086  11.070  0.00  0.00     0.163 HD
BRANCH  17  19
ATOM     19  CA  LEU d   1       1.243  -4.954   9.482  0.00  0.00     0.089 C 
ATOM     20  H54 LEU d   1       0.967  -5.159   8.437  0.00  0.00     0.087 H 
BRANCH  19  21
ATOM     21  CB  LEU d   1       2.230  -3.783   9.508  0.00  0.00    -0.035 C 
ATOM     22  H55 LEU d   1       3.248  -4.195   9.452  0.00  0.00     0.037 H 
ATOM     23  H56 LEU d   1       2.102  -3.251  10.462  0.00  0.00     0.037 H 
BRANCH  21  24
ATOM     24  CG  LEU d   1       2.067  -2.768   8.375  0.00  0.00    -0.059 C 
ATOM     25  H57 LEU d   1       1.002  -2.506   8.295  0.00  0.00     0.038 H 
BRANCH  24  26
ATOM     26  CD1 LEU d   1       2.851  -1.499   8.675  0.00  0.00    -0.073 C 
ATOM     27  H58 LEU d   1       2.721  -0.784   7.850  0.00  0.00     0.028 H 
ATOM     28  H59 LEU d   1       3.918  -1.744   8.783  0.00  0.00     0.028 H 
ATOM     29  H60 LEU d   1       2.481  -1.052   9.610  0.00  0.00     0.028 H 
ENDBRANCH  24  26
BRANCH  24  30
ATOM     30  CD2 LEU d   1       2.514  -3.371   7.051  0.00  0.00    -0.073 C 
ATOM     31  H61 LEU d   1       1.937  -4.286   6.851  0.00  0.00     0.028 H 
ATOM     32  H62 LEU d   1       3.585  -3.617   7.103  0.00  0.00     0.028 H 
ATOM     33  H63 LEU d   1       2.343  -2.646   6.242  0.00  0.00     0.028 H 
ENDBRANCH  24  30
ENDBRANCH  21  24
ENDBRANCH  19  21
BRANCH  19  34
ATOM     34  C   LEU d   1       1.902  -6.200  10.064  0.00  0.00     0.241 C 
ATOM     35  O   LEU d   1       1.866  -6.425  11.274  0.00  0.00    -0.271 OA
ATOM     36  N   ILE d   1       2.510  -7.004   9.198  0.00  0.00    -0.346 N 
ATOM     37  H64 ILE d   1       2.506  -6.767   8.226  0.00  0.00     0.163 HD
BRANCH  36  38
ATOM     38  CA  ILE d   1       3.184  -8.224   9.630  0.00  0.00     0.092 C 
ATOM     39  H65 ILE d   1       3.000  -8.350  10.707  0.00  0.00     0.088 H 
BRANCH  38  40
ATOM     40  CB  ILE d   1       2.648  -9.473   8.894  0.00  0.00    -0.030 C 
ATOM     41  H66 ILE d   1       3.469 -10.200   8.805  0.00  0.00     0.043 H 
BRANCH  40  42
ATOM     42  CG2 ILE d   1       1.524 -10.113   9.689  0.00  0.00    -0.071 C 
ATOM     43  H69 ILE d   1       1.885 -10.363  10.698  0.00  0.00     0.028 H 
ATOM     44  H70 ILE d   1       1.192 -11.030   9.181  0.00  0.00     0.028 H 
ATOM     45  H71 ILE d   1       0.682  -9.410   9.764  0.00  0.00     0.028 H 
ENDBRANCH  40  42
BRANCH  40  46
ATOM     46  CG1 ILE d   1       2.167  -9.118   7.488  0.00  0.00    -0.063 C 
ATOM     47  H67 ILE d   1       2.922  -8.473   7.014  0.00  0.00     0.033 H 
ATOM     48  H68 ILE d   1       1.217  -8.569   7.573  0.00  0.00     0.033 H 
BRANCH  46  49
ATOM     49  CD1 ILE d   1       1.945 -10.325   6.603  0.00  0.00    -0.076 C 
ATOM     50  H72 ILE d   1       1.601  -9.995   5.612  0.00  0.00     0.027 H 
ATOM     51  H73 ILE d   1       1.184 -10.977   7.056  0.00  0.00     0.027 H 
ATOM     52  H74 ILE d   1       2.888 -10.881   6.497  0.00  0.00     0.027 H 
ENDBRANCH  46  49
ENDBRANCH  40  46
ENDBRANCH  38  40
BRANCH  38  53
ATOM     53  C   ILE d   1       4.686  -8.126   9.402  0.00  0.00     0.241 C 
ATOM     54  O   ILE d   1       5.138  -7.905   8.279  0.00  0.00    -0.271 OA
ATOM     55  N   SER d   1       5.459  -8.296  10.468  0.00  0.00    -0.344 N 
ATOM     56  H75 SER d   1       5.036  -8.474  11.357  0.00  0.00     0.163 HD
BRANCH  55  57
ATOM     57  CA  SER d   1       6.911  -8.229  10.369  0.00  0.00     0.109 C 
ATOM     58  H76 SER d   1       7.172  -7.600   9.505  0.00  0.00     0.090 H 
BRANCH  57  59
ATOM     59  CB  SER d   1       7.507  -7.599  11.628  0.00  0.00     0.044 C 
ATOM     60  H77 SER d   1       7.617  -6.516  11.470  0.00  0.00     0.077 H 
ATOM     61  H78 SER d   1       8.495  -8.044  11.819  0.00  0.00     0.077 H 
BRANCH  59  62
ATOM     62  OG  SER d   1       6.674  -7.820  12.754  0.00  0.00    -0.398 OA
ATOM     63  H79 SER d   1       7.067  -7.419  13.521  0.00  0.00     0.209 HD
ENDBRANCH  59  62
ENDBRANCH  57  59
BRANCH  57  64
ATOM     64  C   SER d   1       7.503  -9.614  10.156  0.00  0.00     0.243 C 
ATOM     65  O   SER d   1       7.222 -10.544  10.913  0.00  0.00    -0.271 OA
ATOM     66  N   SER d   1       8.328  -9.745   9.126  0.00  0.00    -0.344 N 
ATOM     67  H80 SER d   1       8.516  -8.951   8.547  0.00  0.00     0.163 HD
BRANCH  66  68
ATOM     68  CA  SER d   1       8.967 -11.016   8.817  0.00  0.00     0.109 C 
ATOM     69  H81 SER d   1       8.564 -11.783   9.494  0.00  0.00     0.090 H 
BRANCH  68  70
ATOM     70  CB  SER d   1       8.666 -11.431   7.377  0.00  0.00     0.044 C 
ATOM     71  H82 SER d   1       8.979 -10.624   6.698  0.00  0.00     0.077 H 
ATOM     72  H83 SER d   1       7.584 -11.601   7.271  0.00  0.00     0.077 H 
BRANCH  70  73
ATOM     73  OG  SER d   1       9.357 -12.620   7.033  0.00  0.00    -0.398 OA
ATOM     74  H84 SER d   1       9.153 -12.855   6.136  0.00  0.00     0.209 HD
ENDBRANCH  70  73
ENDBRANCH  68  70
BRANCH  68  75
ATOM     75  C   SER d   1      10.471 -10.922   9.032  0.00  0.00     0.243 C 
ATOM     76  O   SER d   1      11.075  -9.873   8.808  0.00  0.00    -0.271 OA
ATOM     77  N   ALA d   1      11.068 -12.020   9.472  0.00  0.00    -0.346 N 
ATOM     78  H85 ALA d   1      10.522 -12.842   9.635  0.00  0.00     0.163 HD
BRANCH  77  79
ATOM     79  CA  ALA d   1      12.503 -12.057   9.724  0.00  0.00     0.086 C 
ATOM     80  H86 ALA d   1      13.025 -11.779   8.796  0.00  0.00     0.086 H 
BRANCH  79  81
ATOM     81  CB  ALA d   1      12.869 -11.048  10.804  0.00  0.00    -0.049 C 
ATOM     82  H87 ALA d   1      13.953 -11.084  10.987  0.00  0.00     0.030 H 
ATOM     83  H88 ALA d   1      12.332 -11.294  11.732  0.00  0.00     0.030 H 
ATOM     84  H89 ALA d   1      12.586 -10.038  10.473  0.00  0.00     0.030 H 
ENDBRANCH  79  81
BRANCH  79  85
ATOM     85  C   ALA d   1      12.955 -13.457  10.125  0.00  0.00     0.240 C 
ATOM     86  O   ALA d   1      12.346 -14.097  10.981  0.00  0.00    -0.271 OA
ATOM     87  N   LYS d   1      14.031 -13.925   9.499  0.00  0.00    -0.345 N 
ATOM     88  H90 LYS d   1      14.483 -13.355   8.812  0.00  0.00     0.163 HD
BRANCH  87  89
ATOM     89  CA  LYS d   1      14.568 -15.250   9.790  0.00  0.00     0.093 C 
ATOM     90  H91 LYS d   1      14.023 -15.666  10.650  0.00  0.00     0.089 H 
BRANCH  89  91
ATOM     91  CB  LYS d   1      14.370 -16.178   8.590  0.00  0.00    -0.037 C 
ATOM     92  H92 LYS d   1      15.074 -17.018   8.681  0.00  0.00     0.036 H 
ATOM     93  H93 LYS d   1      14.591 -15.612   7.673  0.00  0.00     0.036 H 
BRANCH  91  94
ATOM     94  CG  LYS d   1      12.962 -16.740   8.481  0.00  0.00    -0.061 C 
ATOM     95  H94 LYS d   1      12.841 -17.212   7.495  0.00  0.00     0.033 H 
ATOM     96  H95 LYS d   1      12.240 -15.917   8.585  0.00  0.00     0.033 H 
BRANCH  94  97
ATOM     97  CD  LYS d   1      12.690 -17.774   9.560  0.00  0.00    -0.043 C 
ATOM     98  H96 LYS d   1      11.606 -17.951   9.620  0.00  0.00     0.035 H 
ATOM     99  H97 LYS d   1      13.053 -17.389  10.524  0.00  0.00     0.035 H 
BRANCH  97 100
ATOM    100  CE  LYS d   1      13.390 -19.090   9.259  0.00  0.00     0.080 C 
ATOM    101  H98 LYS d   1      13.337 -19.733  10.150  0.00  0.00     0.075 H 
ATOM    102  H99 LYS d   1      14.443 -18.885   9.017  0.00  0.00     0.075 H 
BRANCH 100 103
ATOM    103  NZ  LYS d   1      12.763 -19.803   8.114  0.00  0.00    -0.079 N 
ATOM    104 0H10 LYS d   1      13.254 -20.667   7.947  0.00  0.00     0.274 HD
ATOM    105 1H10 LYS d   1      12.812 -19.224   7.290  0.00  0.00     0.274 HD
ATOM    106 2H10 LYS d   1      11.798 -20.001   8.329  0.00  0.00     0.274 HD
ENDBRANCH 100 103
ENDBRANCH  97 100
ENDBRANCH  94  97
ENDBRANCH  91  94
ENDBRANCH  89  91
BRANCH  89 107
ATOM    107  C   LYS d   1      16.048 -15.168  10.146  0.00  0.00     0.163 C 
ATOM    108  O   LYS d   1      16.664 -14.106  10.048  0.00  0.00    -0.648 OA
BRANCH 107 109
ATOM    109  O1  LYS d   1      16.683 -16.258  10.568  0.00  0.00    -0.775 OA
ATOM    110 3H10 LYS d   1      17.026 -16.105  11.441  0.00  0.00     0.167 HD
ENDBRANCH 107 109
ENDBRANCH  89 107
ENDBRANCH  87  89
ENDBRANCH  79  85
ENDBRANCH  77  79
ENDBRANCH  68  75
ENDBRANCH  66  68
ENDBRANCH  57  64
ENDBRANCH  55  57
ENDBRANCH  38  53
ENDBRANCH  36  38
ENDBRANCH  19  34
ENDBRANCH  17  19
ENDBRANCH   4  15
BRANCH   1 111
ATOM    111  CA  PRO d   1      -5.239  -3.705   8.284  0.00  0.00     0.092 C 
ATOM    112  CB  PRO d   1      -5.246  -4.844   7.263  0.00  0.00    -0.036 C 
ATOM    113  CG  PRO d   1      -6.118  -4.356   6.160  0.00  0.00    -0.048 C 
ATOM    114  H40 PRO d   1      -5.660  -5.761   7.708  0.00  0.00     0.036 H 
ATOM    115  H41 PRO d   1      -4.228  -5.041   6.895  0.00  0.00     0.036 H 
ATOM    116  CD  PRO d   1      -5.905  -2.870   6.091  0.00  0.00    -0.001 C 
ATOM    117  H42 PRO d   1      -5.831  -4.828   5.209  0.00  0.00     0.035 H 
ATOM    118  H43 PRO d   1      -7.172  -4.581   6.378  0.00  0.00     0.035 H 
ATOM    119  N   PRO d   1      -5.523  -2.517   7.471  0.00  0.00    -0.337 N 
ATOM    120  H44 PRO d   1      -5.101  -2.620   5.383  0.00  0.00     0.064 H 
ATOM    121  H45 PRO d   1      -6.829  -2.353   5.794  0.00  0.00     0.064 H 
ATOM    122  C   PRO d   1      -5.437  -1.268   7.960  0.00  0.00     0.243 C 
ATOM    123  O   PRO d   1      -5.111  -1.046   9.126  0.00  0.00    -0.271 OA
ATOM    124  H39 PRO d   1      -6.024  -3.851   9.040  0.00  0.00     0.087 H 
BRANCH 122 125
ATOM    125  CA  PRO d   1      -5.759  -0.118   7.008  0.00  0.00     0.092 C 
ATOM    126  CB  PRO d   1      -4.496   0.331   6.268  0.00  0.00    -0.036 C 
ATOM    127  CG  PRO d   1      -3.986   1.485   7.057  0.00  0.00    -0.048 C 
ATOM    128  H33 PRO d   1      -4.738   0.640   5.240  0.00  0.00     0.036 H 
ATOM    129  H34 PRO d   1      -3.753  -0.480   6.242  0.00  0.00     0.036 H 
ATOM    130  CD  PRO d   1      -5.199   2.177   7.608  0.00  0.00    -0.001 C 
ATOM    131  H35 PRO d   1      -3.341   1.133   7.876  0.00  0.00     0.035 H 
ATOM    132  H36 PRO d   1      -3.417   2.169   6.410  0.00  0.00     0.035 H 
ATOM    133  N   PRO d   1      -6.190   1.089   7.720  0.00  0.00    -0.337 N 
ATOM    134  H37 PRO d   1      -4.987   2.619   8.592  0.00  0.00     0.064 H 
ATOM    135  H38 PRO d   1      -5.551   2.961   6.922  0.00  0.00     0.064 H 
ATOM    136  C   ASN d   1      -7.358   1.157   8.385  0.00  0.00     0.243 C 
ATOM    137  O   ASN d   1      -8.132   0.202   8.432  0.00  0.00    -0.271 OA
ATOM    138  H32 PRO d   1      -6.534  -0.443   6.298  0.00  0.00     0.087 H 
BRANCH 136 139
ATOM    139  CA  ASN d   1      -7.699   2.469   9.092  0.00  0.00     0.097 C 
ATOM    140  H27 ASN d   1      -6.835   3.145   9.011  0.00  0.00     0.088 H 
BRANCH 139 141
ATOM    141  N   ASN d   1      -8.851   3.112   8.469  0.00  0.00    -0.345 N 
ATOM    142  H26 ASN d   1      -9.768   2.757   8.654  0.00  0.00     0.163 HD
ATOM    143  C   SER d   1      -8.711   4.158   7.661  0.00  0.00     0.243 C 
ATOM    144  O   SER d   1      -7.617   4.652   7.387  0.00  0.00    -0.271 OA
BRANCH 143 145
ATOM    145  CA  SER d   1      -9.998   4.735   7.079  0.00  0.00     0.109 C 
ATOM    146  H22 SER d   1     -10.579   5.187   7.896  0.00  0.00     0.090 H 
BRANCH 145 147
ATOM    147  N   SER d   1      -9.707   5.770   6.091  0.00  0.00    -0.344 N 
ATOM    148  H21 SER d   1     -10.084   5.683   5.169  0.00  0.00     0.163 HD
ATOM    149  C   ILE d   1      -8.953   6.825   6.386  0.00  0.00     0.241 C 
ATOM    150  O   ILE d   1      -8.454   7.000   7.498  0.00  0.00    -0.271 OA
BRANCH 149 151
ATOM    151  CA  ILE d   1      -8.729   7.829   5.261  0.00  0.00     0.092 C 
ATOM    152  H11 ILE d   1      -9.679   7.974   4.726  0.00  0.00     0.088 H 
BRANCH 151 153
ATOM    153  N   ILE d   1      -8.303   9.120   5.791  0.00  0.00    -0.346 N 
ATOM    154  H10 ILE d   1      -7.626   9.146   6.527  0.00  0.00     0.163 HD
ATOM    155  C   THR d   1      -8.793  10.262   5.320  0.00  0.00     0.251 C 
ATOM    156  O   THR d   1      -9.630  10.312   4.418  0.00  0.00    -0.271 OA
BRANCH 155 157
ATOM    157  CA  THR d   1      -8.259  11.538   5.965  0.00  0.00     0.199 C 
ATOM    158  H4  THR d   1      -8.512  11.524   7.035  0.00  0.00     0.103 H 
BRANCH 157 159
ATOM    159  N   THR d   1      -6.783  11.636   5.818  0.00  0.00    -0.064 N 
ATOM    160  H1  THR d   1      -6.458  12.486   6.252  0.00  0.00     0.275 HD
ATOM    161  H2  THR d   1      -6.543  11.645   4.839  0.00  0.00     0.275 HD
ATOM    162  H3  THR d   1      -6.348  10.844   6.263  0.00  0.00     0.275 HD
ENDBRANCH 157 159
BRANCH 157 163
ATOM    163  CB  THR d   1      -8.896  12.767   5.315  0.00  0.00     0.068 C 
ATOM    164  H5  THR d   1      -8.553  13.655   5.867  0.00  0.00     0.086 H 
BRANCH 163 165
ATOM    165  CG2 THR d   1      -8.520  12.935   3.858  0.00  0.00    -0.050 C 
ATOM    166  H7  THR d   1      -9.010  13.833   3.454  0.00  0.00     0.031 H 
ATOM    167  H8  THR d   1      -8.848  12.052   3.290  0.00  0.00     0.031 H 
ATOM    168  H9  THR d   1      -7.429  13.042   3.771  0.00  0.00     0.031 H 
ENDBRANCH 163 165
BRANCH 163 169
ATOM    169  OG1 THR d   1     -10.309  12.699   5.389  0.00  0.00    -0.393 OA
ATOM    170  H6  THR d   1     -10.616  11.958   4.880  0.00  0.00     0.210 HD
ENDBRANCH 163 169
ENDBRANCH 157 163
ENDBRANCH 155 157
ENDBRANCH 151 153
BRANCH 151 171
ATOM    171  CB  ILE d   1      -7.694   7.257   4.275  0.00  0.00    -0.030 C 
ATOM    172  H12 ILE d   1      -6.804   6.949   4.843  0.00  0.00     0.043 H 
BRANCH 171 173
ATOM    173  CG2 ILE d   1      -8.256   6.036   3.563  0.00  0.00    -0.071 C 
ATOM    174  H15 ILE d   1      -8.550   5.281   4.307  0.00  0.00     0.028 H 
ATOM    175  H16 ILE d   1      -7.489   5.615   2.897  0.00  0.00     0.028 H 
ATOM    176  H17 ILE d   1      -9.135   6.329   2.971  0.00  0.00     0.028 H 
ENDBRANCH 171 173
BRANCH 171 177
ATOM    177  CG1 ILE d   1      -7.276   8.325   3.263  0.00  0.00    -0.063 C 
ATOM    178  H13 ILE d   1      -7.100   9.267   3.803  0.00  0.00     0.033 H 
ATOM    179  H14 ILE d   1      -8.097   8.463   2.544  0.00  0.00     0.033 H 
BRANCH 177 180
ATOM    180  CD1 ILE d   1      -6.020   7.971   2.495  0.00  0.00    -0.076 C 
ATOM    181  H18 ILE d   1      -5.781   8.781   1.790  0.00  0.00     0.027 H 
ATOM    182  H19 ILE d   1      -6.182   7.036   1.939  0.00  0.00     0.027 H 
ATOM    183  H20 ILE d   1      -5.185   7.840   3.199  0.00  0.00     0.027 H 
ENDBRANCH 177 180
ENDBRANCH 171 177
ENDBRANCH 151 171
ENDBRANCH 149 151
ENDBRANCH 145 147
BRANCH 145 184
ATOM    184  CB  SER d   1     -10.831   3.618   6.446  0.00  0.00     0.044 C 
ATOM    185  H23 SER d   1     -10.165   2.790   6.161  0.00  0.00     0.077 H 
ATOM    186  H24 SER d   1     -11.334   4.009   5.550  0.00  0.00     0.077 H 
BRANCH 184 187
ATOM    187  OG  SER d   1     -11.808   3.135   7.352  0.00  0.00    -0.398 OA
ATOM    188  H25 SER d   1     -12.310   2.444   6.936  0.00  0.00     0.209 HD
ENDBRANCH 184 187
ENDBRANCH 145 184
ENDBRANCH 143 145
ENDBRANCH 139 141
BRANCH 139 189
ATOM    189  CB  ASN d   1      -7.979   2.204  10.573  0.00  0.00     0.036 C 
ATOM    190  H28 ASN d   1      -7.522   1.243  10.852  0.00  0.00     0.051 H 
ATOM    191  H29 ASN d   1      -9.067   2.150  10.722  0.00  0.00     0.051 H 
BRANCH 189 192
ATOM    192  CG  ASN d   1      -7.418   3.289  11.471  0.00  0.00     0.217 C 
ATOM    193  ND2 ASN d   1      -7.890   3.333  12.711  0.00  0.00    -0.370 N 
ATOM    194  H30 ASN d   1      -7.557   4.028  13.348  0.00  0.00     0.159 HD
ATOM    195  H31 ASN d   1      -8.579   2.672  13.008  0.00  0.00     0.159 HD
ATOM    196  OD1 ASN d   1      -6.569   4.078  11.055  0.00  0.00    -0.274 OA
ENDBRANCH 189 192
ENDBRANCH 139 189
ENDBRANCH 136 139
ENDBRANCH 122 125
ENDBRANCH   1 111
TORSDOF 53
