REMARK  14 active torsions:
REMARK  status: ('A' for Active; 'I' for Inactive)
REMARK    1  A    between atoms: CA_2  and  C_3 
REMARK       I    between atoms: C_3  and  N_8 
REMARK    2  A    between atoms: CA_9  and  C_10 
REMARK       I    between atoms: C_10  and  N_15 
REMARK    3  A    between atoms: CA_16  and  C_17 
REMARK       I    between atoms: C_17  and  N_22 
REMARK    4  A    between atoms: CA_23  and  C_24 
REMARK       I    between atoms: C_24  and  N_29 
REMARK    5  A    between atoms: CA_30  and  C_31 
REMARK       I    between atoms: C_31  and  N_36 
REMARK    6  A    between atoms: CA_37  and  C_38 
REMARK       I    between atoms: C_38  and  N_43 
REMARK    7  A    between atoms: N_43  and  CA_44 
REMARK    8  A    between atoms: CA_44  and  C_45 
REMARK    9  A    between atoms: CA_44  and  CB_47 
REMARK       I    between atoms: C_45  and  N_51 
REMARK   10  A    between atoms: CB_47  and  CG_48 
REMARK   11  A    between atoms: CG_48  and  CD1_49 
REMARK   12  A    between atoms: CG_48  and  CD2_50 
REMARK   13  A    between atoms: CA_52  and  C_53 
REMARK       I    between atoms: C_53  and  N_58 
REMARK   14  A    between atoms: CA_59  and  C_60 
ROOT
ATOM      1  C   PRO d   1       7.093   6.780  12.040  0.00  0.00     0.247 C 
ATOM      2  O   PRO d   1       6.405   7.769  12.312  0.00  0.00    -0.271 OA
ATOM      3  N   PRO d   1       8.395   6.695  12.338  0.00  0.00    -0.337 N 
ATOM      4  CA  PRO d   1       9.034   7.816  12.992  0.00  0.00     0.092 C 
ATOM      5  CB  PRO d   1      10.405   7.235  13.395  0.00  0.00    -0.036 C 
ATOM      6  CG  PRO d   1      10.639   6.107  12.476  0.00  0.00    -0.048 C 
ATOM      7  CD  PRO d   1       9.330   5.592  12.074  0.00  0.00    -0.001 C 
ATOM      8  H27 PRO d   1       8.452   8.153  13.862  0.00  0.00     0.087 H 
ATOM      9  H28 PRO d   1      10.383   6.884  14.437  0.00  0.00     0.036 H 
ATOM     10  H29 PRO d   1      11.193   7.994  13.281  0.00  0.00     0.036 H 
ATOM     11  H30 PRO d   1      11.213   5.319  12.986  0.00  0.00     0.035 H 
ATOM     12  H31 PRO d   1      11.195   6.452  11.592  0.00  0.00     0.035 H 
ATOM     13  H32 PRO d   1       9.328   5.330  11.006  0.00  0.00     0.064 H 
ATOM     14  H33 PRO d   1       9.063   4.707  12.669  0.00  0.00     0.064 H 
ENDROOT
BRANCH   4  15
ATOM     15  C   PRO d   1       9.294   8.999  12.033  0.00  0.00     0.243 C 
ATOM     16  O   PRO d   1       9.210   8.864  10.807  0.00  0.00    -0.271 OA
ATOM     17  N   PRO d   1       9.543  10.161  12.573  0.00  0.00    -0.337 N 
ATOM     18  CA  PRO d   1       9.905  11.306  11.698  0.00  0.00     0.091 C 
ATOM     19  CD  PRO d   1       9.552  10.517  14.003  0.00  0.00    -0.001 C 
ATOM     20  CB  PRO d   1      10.017  12.459  12.674  0.00  0.00    -0.036 C 
ATOM     21  H34 PRO d   1       9.172  11.482  10.896  0.00  0.00     0.087 H 
ATOM     22  CG  PRO d   1      10.330  11.753  13.990  0.00  0.00    -0.048 C 
ATOM     23  H35 PRO d   1       9.072  13.018  12.738  0.00  0.00     0.036 H 
ATOM     24  H36 PRO d   1      10.829  13.144  12.388  0.00  0.00     0.036 H 
ATOM     25  H37 PRO d   1      10.042  12.390  14.839  0.00  0.00     0.035 H 
ATOM     26  H38 PRO d   1      11.404  11.524  14.051  0.00  0.00     0.035 H 
ATOM     27  H39 PRO d   1      10.042   9.740  14.608  0.00  0.00     0.064 H 
ATOM     28  H40 PRO d   1       8.533  10.687  14.381  0.00  0.00     0.064 H 
BRANCH  18  29
ATOM     29  C   PRO d   1      11.306  11.072  11.158  0.00  0.00     0.241 C 
ATOM     30  O   PRO d   1      12.096  10.283  11.742  0.00  0.00    -0.271 OA
ATOM     31  N   LEU d   1      11.637  11.802  10.106  0.00  0.00    -0.346 N 
ATOM     32  H41 LEU d   1      10.951  12.386   9.671  0.00  0.00     0.163 HD
BRANCH  31  33
ATOM     33  CA  LEU d   1      12.971  11.763   9.584  0.00  0.00     0.090 C 
ATOM     34  H42 LEU d   1      13.325  10.722   9.587  0.00  0.00     0.087 H 
BRANCH  33  35
ATOM     35  C   LEU d   1      13.829  12.590  10.430  0.00  0.00     0.243 C 
ATOM     36  O   LEU d   1      13.420  13.684  10.866  0.00  0.00    -0.271 OA
ATOM     37  N   PRO d   1      15.060  12.107  10.708  0.00  0.00    -0.337 N 
ATOM     38  CA  PRO d   1      15.952  12.885  11.539  0.00  0.00     0.092 C 
ATOM     39  CD  PRO d   1      15.634  10.802  10.315  0.00  0.00    -0.001 C 
ATOM     40  CB  PRO d   1      17.133  11.953  11.790  0.00  0.00    -0.036 C 
ATOM     41  H52 PRO d   1      15.472  13.196  12.479  0.00  0.00     0.087 H 
ATOM     42  CG  PRO d   1      17.051  10.913  10.736  0.00  0.00    -0.048 C 
ATOM     43  H53 PRO d   1      17.056  11.496  12.787  0.00  0.00     0.036 H 
ATOM     44  H54 PRO d   1      18.081  12.505  11.712  0.00  0.00     0.036 H 
ATOM     45  H55 PRO d   1      17.399   9.949  11.134  0.00  0.00     0.035 H 
ATOM     46  H56 PRO d   1      17.675  11.201   9.877  0.00  0.00     0.035 H 
ATOM     47  H57 PRO d   1      15.556  10.648   9.229  0.00  0.00     0.064 H 
ATOM     48  H58 PRO d   1      15.131   9.976  10.839  0.00  0.00     0.064 H 
BRANCH  38  49
ATOM     49  C   PRO d   1      16.417  14.085  10.751  0.00  0.00     0.243 C 
ATOM     50  O   PRO d   1      16.310  14.071   9.514  0.00  0.00    -0.271 OA
ATOM     51  N   PRO d   1      16.957  15.112  11.447  0.00  0.00    -0.336 N 
ATOM     52  CA  PRO d   1      17.415  16.362  10.829  0.00  0.00     0.098 C 
ATOM     53  CD  PRO d   1      17.129  15.133  12.907  0.00  0.00    -0.001 C 
ATOM     54  CB  PRO d   1      18.096  17.115  11.990  0.00  0.00    -0.035 C 
ATOM     55  H59 PRO d   1      16.551  16.930  10.455  0.00  0.00     0.089 H 
ATOM     56  CG  PRO d   1      18.217  16.137  13.109  0.00  0.00    -0.048 C 
ATOM     57  H61 PRO d   1      17.482  17.974  12.299  0.00  0.00     0.036 H 
ATOM     58  H62 PRO d   1      19.092  17.468  11.683  0.00  0.00     0.036 H 
ATOM     59  H63 PRO d   1      18.091  16.646  14.076  0.00  0.00     0.035 H 
ATOM     60  H64 PRO d   1      19.200  15.644  13.080  0.00  0.00     0.035 H 
ATOM     61  H65 PRO d   1      17.430  14.144  13.283  0.00  0.00     0.064 H 
ATOM     62  H66 PRO d   1      16.203  15.449  13.409  0.00  0.00     0.064 H 
BRANCH  52  63
ATOM     63  C   PRO d   1      18.404  16.161   9.670  0.00  0.00     0.196 C 
ATOM     64  O   PRO d   1      18.382  16.929   8.706  0.00  0.00    -0.646 OA
ATOM     65  O1  PRO d   1      19.235  15.214   9.705  0.00  0.00    -0.646 OA
ENDBRANCH  52  63
ENDBRANCH  38  49
ENDBRANCH  33  35
BRANCH  33  66
ATOM     66  CB  LEU d   1      13.073  12.323   8.180  0.00  0.00    -0.035 C 
ATOM     67  H43 LEU d   1      14.142  12.443   7.951  0.00  0.00     0.037 H 
ATOM     68  H44 LEU d   1      12.585  13.309   8.183  0.00  0.00     0.037 H 
BRANCH  66  69
ATOM     69  CG  LEU d   1      12.463  11.524   7.068  0.00  0.00    -0.059 C 
ATOM     70  H45 LEU d   1      11.399  11.368   7.299  0.00  0.00     0.038 H 
BRANCH  69  71
ATOM     71  CD1 LEU d   1      12.594  12.344   5.758  0.00  0.00    -0.073 C 
ATOM     72  H46 LEU d   1      12.152  11.777   4.925  0.00  0.00     0.028 H 
ATOM     73  H47 LEU d   1      13.657  12.534   5.549  0.00  0.00     0.028 H 
ATOM     74  H48 LEU d   1      12.065  13.302   5.871  0.00  0.00     0.028 H 
ENDBRANCH  69  71
BRANCH  69  75
ATOM     75  CD2 LEU d   1      13.121  10.134   6.841  0.00  0.00    -0.073 C 
ATOM     76  H49 LEU d   1      13.039   9.535   7.760  0.00  0.00     0.028 H 
ATOM     77  H50 LEU d   1      14.182  10.268   6.584  0.00  0.00     0.028 H 
ATOM     78  H51 LEU d   1      12.607   9.615   6.018  0.00  0.00     0.028 H 
ENDBRANCH  69  75
ENDBRANCH  66  69
ENDBRANCH  33  66
ENDBRANCH  31  33
ENDBRANCH  18  29
ENDBRANCH   4  15
BRANCH   1  79
ATOM     79  CA  PRO d   1       6.466   5.588  11.341  0.00  0.00     0.108 C 
ATOM     80  N   PRO d   1       5.139   5.322  11.842  0.00  0.00    -0.330 N 
ATOM     81  C   PRO d   1       5.008   5.032  13.152  0.00  0.00     0.244 C 
ATOM     82  CD  PRO d   1       4.108   5.412  10.791  0.00  0.00     0.014 C 
ATOM     83  O   PRO d   1       6.001   4.965  13.921  0.00  0.00    -0.271 OA
ATOM     84  CG  PRO d   1       4.846   5.990   9.683  0.00  0.00    -0.087 C 
ATOM     85  H25 PRO d   1       3.279   6.065  11.101  0.00  0.00     0.070 H 
ATOM     86  H26 PRO d   1       3.715   4.418  10.532  0.00  0.00     0.070 H 
ATOM     87  CB  PRO d   1       6.245   5.809   9.836  0.00  0.00    -0.075 C 
ATOM     88  H24 PRO d   1       4.383   6.499   8.839  0.00  0.00     0.079 H 
ATOM     89  H23 PRO d   1       7.002   5.824   9.053  0.00  0.00     0.080 H 
ATOM     90  H22 PRO d   1       7.115   4.714  11.499  0.00  0.00     0.094 H 
BRANCH  81  91
ATOM     91  CA  PRO d   1       3.596   4.845  13.659  0.00  0.00     0.092 C 
ATOM     92  N   PRO d   1       3.536   4.222  14.980  0.00  0.00    -0.337 N 
ATOM     93  C   PRO d   1       3.896   2.950  15.127  0.00  0.00     0.244 C 
ATOM     94  CD  PRO d   1       3.126   5.166  16.028  0.00  0.00    -0.001 C 
ATOM     95  O   PRO d   1       4.319   2.269  14.183  0.00  0.00    -0.271 OA
ATOM     96  CG  PRO d   1       3.206   6.496  15.338  0.00  0.00    -0.048 C 
ATOM     97  H20 PRO d   1       3.812   5.125  16.887  0.00  0.00     0.064 H 
ATOM     98  H21 PRO d   1       2.100   4.958  16.367  0.00  0.00     0.064 H 
ATOM     99  CB  PRO d   1       2.972   6.210  13.904  0.00  0.00    -0.036 C 
ATOM    100  H18 PRO d   1       2.434   7.178  15.725  0.00  0.00     0.035 H 
ATOM    101  H19 PRO d   1       4.199   6.946  15.484  0.00  0.00     0.035 H 
ATOM    102  H16 PRO d   1       1.894   6.185  13.687  0.00  0.00     0.036 H 
ATOM    103  H17 PRO d   1       3.455   6.973  13.275  0.00  0.00     0.036 H 
ATOM    104  H15 PRO d   1       3.018   4.261  12.927  0.00  0.00     0.087 H 
BRANCH  93 105
ATOM    105  CA  PRO d   1       3.775   2.359  16.530  0.00  0.00     0.099 C 
ATOM    106  N   PRO d   1       3.882   0.908  16.452  0.00  0.00    -0.312 N 
ATOM    107  C   PRO d   1       2.895   0.234  15.852  0.00  0.00     0.255 C 
ATOM    108  CD  PRO d   1       5.155   0.395  16.995  0.00  0.00    -0.020 C 
ATOM    109  O   PRO d   1       1.864   0.775  15.450  0.00  0.00    -0.271 OA
ATOM    110  CG  PRO d   1       5.664   1.440  17.781  0.00  0.00    -0.086 C 
ATOM    111  H14 PRO d   1       5.602  -0.583  16.823  0.00  0.00     0.111 H 
ATOM    112  CB  PRO d   1       4.975   2.770  17.383  0.00  0.00    -0.021 C 
ATOM    113  H13 PRO d   1       6.426   1.333  18.552  0.00  0.00     0.079 H 
ATOM    114  H11 PRO d   1       4.643   3.316  18.279  0.00  0.00     0.042 H 
ATOM    115  H12 PRO d   1       5.663   3.402  16.802  0.00  0.00     0.042 H 
ATOM    116  H10 PRO d   1       2.828   2.670  16.995  0.00  0.00     0.088 H 
BRANCH 107 117
ATOM    117  CA  PRO d   1       3.059  -1.280  15.683  0.00  0.00     0.178 C 
ATOM    118  N   PRO d   1       1.836  -1.926  15.278  0.00  0.00    -0.062 N 
ATOM    119  CD  PRO d   1       2.055  -2.890  14.186  0.00  0.00     0.083 C 
ATOM    120  H1  PRO d   1       1.185  -1.223  14.965  0.00  0.00     0.278 HD
ATOM    121  H2  PRO d   1       1.448  -2.414  16.070  0.00  0.00     0.278 HD
ATOM    122  CG  PRO d   1       3.520  -2.743  13.883  0.00  0.00    -0.040 C 
ATOM    123  H8  PRO d   1       1.444  -2.636  13.308  0.00  0.00     0.075 H 
ATOM    124  H9  PRO d   1       1.821  -3.914  14.512  0.00  0.00     0.075 H 
ATOM    125  CB  PRO d   1       4.005  -1.545  14.503  0.00  0.00    -0.028 C 
ATOM    126  H6  PRO d   1       4.068  -3.611  14.278  0.00  0.00     0.035 H 
ATOM    127  H7  PRO d   1       3.667  -2.681  12.795  0.00  0.00     0.035 H 
ATOM    128  H4  PRO d   1       5.035  -1.688  14.861  0.00  0.00     0.036 H 
ATOM    129  H5  PRO d   1       3.977  -0.706  13.792  0.00  0.00     0.036 H 
ATOM    130  H3  PRO d   1       3.442  -1.719  16.616  0.00  0.00     0.099 H 
ENDBRANCH 107 117
ENDBRANCH  93 105
ENDBRANCH  81  91
ENDBRANCH   1  79
TORSDOF 14
