REMARK  6 active torsions:
REMARK  status: ('A' for Active; 'I' for Inactive)
REMARK    1  A    between atoms: C5_5  and  N34_22 
REMARK    2  A    between atoms: C10_8  and  C23_16 
REMARK    3  A    between atoms: C11_9  and  C12_10 
REMARK    4  A    between atoms: N34_22  and  C35_23 
REMARK    5  A    between atoms: C35_23  and  C36_24 
REMARK    6  A    between atoms: C36_24  and  N39_25 
ROOT
ATOM      1  C1  547 d   1      23.313  35.204  82.692  0.00  0.00     0.007 A 
ATOM      2  N2  547 d   1      24.611  34.997  82.353  0.00  0.00    -0.236 NA
ATOM      3  C3  547 d   1      25.633  35.839  82.769  0.00  0.00     0.183 A 
ATOM      4  C4  547 d   1      25.367  36.959  83.592  0.00  0.00     0.057 A 
ATOM      5  C5  547 d   1      23.976  37.204  83.984  0.00  0.00     0.045 A 
ATOM      6  C6  547 d   1      22.954  36.298  83.521  0.00  0.00    -0.040 A 
ATOM      7  O9  547 d   1      26.956  35.721  82.487  0.00  0.00    -0.289 OA
ATOM      8  C10 547 d   1      27.572  36.784  83.118  0.00  0.00     0.100 A 
ATOM      9  C11 547 d   1      26.557  37.628  83.863  0.00  0.00     0.026 A 
ATOM     10  H1  547 d   1      22.547  34.530  82.327  0.00  0.00     0.115 H 
ATOM     11  H2  547 d   1      21.919  36.452  83.804  0.00  0.00     0.089 H 
ENDROOT
BRANCH   5  12
ATOM     12  N34 547 d   1      23.670  38.280  84.791  0.00  0.00    -0.387 N 
ATOM     13  H13 547 d   1      24.437  38.891  85.105  0.00  0.00     0.159 HD
BRANCH  12  14
ATOM     14  C35 547 d   1      22.313  38.593  85.220  0.00  0.00     0.015 C 
ATOM     15  H14 547 d   1      21.914  37.734  85.779  0.00  0.00     0.066 H 
ATOM     16  H15 547 d   1      21.694  38.769  84.328  0.00  0.00     0.066 H 
BRANCH  14  17
ATOM     17  C36 547 d   1      22.246  39.834  86.115  0.00  0.00     0.098 C 
ATOM     18  H16 547 d   1      22.626  39.557  87.110  0.00  0.00     0.078 H 
ATOM     19  H17 547 d   1      21.192  40.139  86.196  0.00  0.00     0.078 H 
BRANCH  17  20
ATOM     20  N39 547 d   1      23.026  41.002  85.634  0.00  0.00    -0.066 N 
ATOM     21  C42 547 d   1      23.234  41.871  86.824  0.00  0.00     0.106 C 
ATOM     22  C43 547 d   1      24.034  43.127  86.431  0.00  0.00     0.104 C 
ATOM     23  H19 547 d   1      23.790  41.311  87.590  0.00  0.00     0.078 H 
ATOM     24  H20 547 d   1      22.257  42.174  87.228  0.00  0.00     0.078 H 
ATOM     25  N44 547 d   1      23.311  43.845  85.340  0.00  0.00    -0.072 N 
ATOM     26  H21 547 d   1      25.033  42.832  86.079  0.00  0.00     0.078 H 
ATOM     27  H22 547 d   1      24.134  43.788  87.304  0.00  0.00     0.078 H 
ATOM     28  C45 547 d   1      23.098  42.970  84.144  0.00  0.00     0.104 C 
ATOM     29  H23 547 d   1      23.853  44.649  85.064  0.00  0.00     0.277 HD
ATOM     30  H24 547 d   1      22.414  44.147  85.687  0.00  0.00     0.277 HD
ATOM     31  C46 547 d   1      22.274  41.739  84.580  0.00  0.00     0.106 C 
ATOM     32  H25 547 d   1      24.070  42.644  83.745  0.00  0.00     0.078 H 
ATOM     33  H26 547 d   1      22.551  43.527  83.369  0.00  0.00     0.078 H 
ATOM     34  H27 547 d   1      21.304  42.068  84.981  0.00  0.00     0.078 H 
ATOM     35  H28 547 d   1      22.110  41.080  83.715  0.00  0.00     0.078 H 
ATOM     36  H18 547 d   1      23.913  40.700  85.262  0.00  0.00     0.280 HD
ENDBRANCH  17  20
ENDBRANCH  14  17
ENDBRANCH  12  14
ENDBRANCH   5  12
BRANCH   9  37
ATOM     37  C12 547 d   1      26.712  38.856  84.682  0.00  0.00    -0.022 A 
ATOM     38  C13 547 d   1      27.022  40.112  84.056  0.00  0.00    -0.072 A 
ATOM     39  C14 547 d   1      27.184  41.283  84.865  0.00  0.00    -0.082 A 
ATOM     40  H3  547 d   1      27.132  40.173  82.979  0.00  0.00     0.084 H 
ATOM     41  C15 547 d   1      27.037  41.189  86.299  0.00  0.00    -0.083 A 
ATOM     42  H4  547 d   1      27.416  42.236  84.403  0.00  0.00     0.083 H 
ATOM     43  C16 547 d   1      26.722  39.928  86.932  0.00  0.00    -0.082 A 
ATOM     44  H5  547 d   1      27.165  42.076  86.909  0.00  0.00     0.083 H 
ATOM     45  C17 547 d   1      26.562  38.759  86.120  0.00  0.00    -0.072 A 
ATOM     46  H6  547 d   1      26.608  39.868  88.008  0.00  0.00     0.083 H 
ATOM     47  H7  547 d   1      26.329  37.805  86.579  0.00  0.00     0.084 H 
ENDBRANCH   9  37
BRANCH   8  48
ATOM     48  C23 547 d   1      29.053  36.992  83.027  0.00  0.00    -0.001 A 
ATOM     49  C24 547 d   1      29.786  36.242  82.045  0.00  0.00    -0.070 A 
ATOM     50  C25 547 d   1      31.205  36.427  81.923  0.00  0.00    -0.082 A 
ATOM     51  H8  547 d   1      29.271  35.540  81.399  0.00  0.00     0.084 H 
ATOM     52  C26 547 d   1      31.889  37.371  82.780  0.00  0.00    -0.083 A 
ATOM     53  H9  547 d   1      31.764  35.859  81.188  0.00  0.00     0.083 H 
ATOM     54  C27 547 d   1      31.168  38.121  83.763  0.00  0.00    -0.082 A 
ATOM     55  H10 547 d   1      32.959  37.512  82.677  0.00  0.00     0.083 H 
ATOM     56  C28 547 d   1      29.764  37.930  83.880  0.00  0.00    -0.070 A 
ATOM     57  H11 547 d   1      31.684  38.823  84.408  0.00  0.00     0.083 H 
ATOM     58  H12 547 d   1      29.212  38.496  84.621  0.00  0.00     0.084 H 
ENDBRANCH   8  48
TORSDOF 6
