REMARK  6 active torsions:
REMARK  status: ('A' for Active; 'I' for Inactive)
REMARK    1  A    between atoms: C5_5  and  N11_10 
REMARK    2  A    between atoms: C9_8  and  C44_20 
REMARK    3  A    between atoms: C10_9  and  C33_14 
REMARK    4  A    between atoms: N11_10  and  C12_11 
REMARK    5  A    between atoms: C12_11  and  C13_12 
REMARK    6  A    between atoms: C13_12  and  N16_13 
ROOT
ATOM      1  C1  979 d   1      23.794  35.515  82.249  0.00  0.00     0.091 A 
ATOM      2  N2  979 d   1      25.075  35.357  81.917  0.00  0.00    -0.217 NA
ATOM      3  C3  979 d   1      26.062  36.173  82.430  0.00  0.00     0.186 A 
ATOM      4  C4  979 d   1      25.780  37.181  83.369  0.00  0.00     0.077 A 
ATOM      5  C5  979 d   1      24.374  37.286  83.710  0.00  0.00     0.140 A 
ATOM      6  N6  979 d   1      23.470  36.458  83.150  0.00  0.00    -0.224 NA
ATOM      7  O8  979 d   1      27.395  36.101  82.170  0.00  0.00    -0.289 OA
ATOM      8  C9  979 d   1      27.996  37.094  82.906  0.00  0.00     0.100 A 
ATOM      9  C10 979 d   1      26.960  37.836  83.752  0.00  0.00     0.027 A 
ATOM     10  H1  979 d   1      23.027  34.894  81.800  0.00  0.00     0.146 H 
ENDROOT
BRANCH   5  11
ATOM     11  N11 979 d   1      23.852  38.185  84.599  0.00  0.00    -0.372 N 
ATOM     12  H2  979 d   1      23.776  37.943  85.597  0.00  0.00     0.161 HD
BRANCH  11  13
ATOM     13  C12 979 d   1      23.406  39.483  84.125  0.00  0.00     0.017 C 
ATOM     14  H3  979 d   1      22.443  39.370  83.606  0.00  0.00     0.066 H 
ATOM     15  H4  979 d   1      24.152  39.892  83.428  0.00  0.00     0.066 H 
BRANCH  13  16
ATOM     16  C13 979 d   1      23.235  40.447  85.308  0.00  0.00     0.098 C 
ATOM     17  H5  979 d   1      24.185  40.478  85.861  0.00  0.00     0.078 H 
ATOM     18  H6  979 d   1      22.444  40.048  85.960  0.00  0.00     0.078 H 
BRANCH  16  19
ATOM     19  N16 979 d   1      22.866  41.856  84.938  0.00  0.00    -0.066 N 
ATOM     20  C2  979 d   1      22.735  42.702  86.191  0.00  0.00     0.106 C 
ATOM     21  C11 979 d   1      24.165  43.043  86.798  0.00  0.00     0.104 C 
ATOM     22  H18 979 d   1      22.149  42.149  86.939  0.00  0.00     0.078 H 
ATOM     23  H19 979 d   1      22.218  43.640  85.940  0.00  0.00     0.078 H 
ATOM     24  N1  979 d   1      25.011  43.771  85.814  0.00  0.00    -0.072 N 
ATOM     25  H22 979 d   1      24.668  42.106  87.079  0.00  0.00     0.078 H 
ATOM     26  H23 979 d   1      24.034  43.671  87.692  0.00  0.00     0.078 H 
ATOM     27  C15 979 d   1      25.160  43.040  84.515  0.00  0.00     0.104 C 
ATOM     28  H26 979 d   1      25.927  43.904  86.214  0.00  0.00     0.277 HD
ATOM     29  H27 979 d   1      24.590  44.669  85.631  0.00  0.00     0.277 HD
ATOM     30  C7  979 d   1      23.831  42.472  83.917  0.00  0.00     0.106 C 
ATOM     31  H24 979 d   1      25.594  43.735  83.781  0.00  0.00     0.078 H 
ATOM     32  H25 979 d   1      25.849  42.198  84.675  0.00  0.00     0.078 H 
ATOM     33  H20 979 d   1      23.308  43.295  83.408  0.00  0.00     0.078 H 
ATOM     34  H21 979 d   1      24.093  41.695  83.184  0.00  0.00     0.078 H 
ATOM     35  H7  979 d   1      21.959  41.824  84.500  0.00  0.00     0.280 HD
ENDBRANCH  16  19
ENDBRANCH  13  16
ENDBRANCH  11  13
ENDBRANCH   5  11
BRANCH   9  36
ATOM     36  C33 979 d   1      27.128  38.996  84.705  0.00  0.00    -0.022 A 
ATOM     37  C34 979 d   1      27.766  40.221  84.256  0.00  0.00    -0.072 A 
ATOM     38  C35 979 d   1      27.984  41.287  85.184  0.00  0.00    -0.082 A 
ATOM     39  H8  979 d   1      28.075  40.327  83.222  0.00  0.00     0.084 H 
ATOM     40  C36 979 d   1      27.578  41.118  86.561  0.00  0.00    -0.083 A 
ATOM     41  H9  979 d   1      28.448  42.211  84.859  0.00  0.00     0.083 H 
ATOM     42  C37 979 d   1      26.928  39.908  87.013  0.00  0.00    -0.082 A 
ATOM     43  H10 979 d   1      27.765  41.916  87.270  0.00  0.00     0.083 H 
ATOM     44  C38 979 d   1      26.720  38.846  86.089  0.00  0.00    -0.072 A 
ATOM     45  H11 979 d   1      26.603  39.811  88.043  0.00  0.00     0.083 H 
ATOM     46  H12 979 d   1      26.256  37.924  86.420  0.00  0.00     0.084 H 
ENDBRANCH   9  36
BRANCH   8  47
ATOM     47  C44 979 d   1      29.486  37.294  82.856  0.00  0.00    -0.001 A 
ATOM     48  C45 979 d   1      30.223  36.788  81.710  0.00  0.00    -0.070 A 
ATOM     49  C46 979 d   1      31.641  36.982  81.645  0.00  0.00    -0.082 A 
ATOM     50  H13 979 d   1      29.705  36.269  80.912  0.00  0.00     0.084 H 
ATOM     51  C47 979 d   1      32.325  37.686  82.718  0.00  0.00    -0.083 A 
ATOM     52  H14 979 d   1      32.203  36.605  80.798  0.00  0.00     0.083 H 
ATOM     53  C48 979 d   1      31.616  38.190  83.850  0.00  0.00    -0.082 A 
ATOM     54  H15 979 d   1      33.398  37.831  82.657  0.00  0.00     0.083 H 
ATOM     55  C49 979 d   1      30.203  37.994  83.912  0.00  0.00    -0.070 A 
ATOM     56  H16 979 d   1      32.139  38.710  84.645  0.00  0.00     0.083 H 
ATOM     57  H17 979 d   1      29.652  38.375  84.764  0.00  0.00     0.084 H 
ENDBRANCH   8  47
TORSDOF 6
