REMARK  14 active torsions:
REMARK  status: ('A' for Active; 'I' for Inactive)
REMARK    1  A    between atoms: C21_3  and  O10_4 
REMARK    2  A    between atoms: C18_7  and  C17_8 
REMARK    3  A    between atoms: C16_9  and  C15_10 
REMARK    4  A    between atoms: C15_10  and  O8_12 
REMARK    5  A    between atoms: O8_12  and  C12_13 
REMARK    6  A    between atoms: C12_13  and  C13_14 
REMARK    7  A    between atoms: C12_13  and  C10_18 
REMARK    8  A    between atoms: C13_14  and  C14_15 
REMARK    9  A    between atoms: C10_18  and  C11_19 
REMARK   10  A    between atoms: C10_18  and  O3_22 
REMARK   11  A    between atoms: O3_22  and  C9_23 
REMARK   12  A    between atoms: C9_23  and  C8_25 
REMARK   13  A    between atoms: C7_26  and  C4_27 
REMARK   14  A    between atoms: C1_30  and  O1_31 
ROOT
ATOM      1  C12 OFF d   1      29.429   2.619  50.892  0.00  0.00     0.092 C 
ATOM      2  H8  OFF d   1      30.037   2.124  50.120  0.00  0.00     0.089 H 
ENDROOT
BRANCH   1   3
ATOM      3  O8  OFF d   1      28.324   1.757  51.272  0.00  0.00    -0.309 OA
BRANCH   3   4
ATOM      4  C15 OFF d   1      28.480   0.395  51.229  0.00  0.00     0.283 C 
ATOM      5  O9  OFF d   1      29.461  -0.122  50.695  0.00  0.00    -0.260 OA
BRANCH   4   6
ATOM      6  C16 OFF d   1      27.492  -0.396  51.819  0.00  0.00    -0.010 C 
ATOM      7  C17 OFF d   1      27.535  -1.792  51.830  0.00  0.00    -0.067 C 
ATOM      8  H6  OFF d   1      28.376  -2.302  51.361  0.00  0.00     0.085 H 
ATOM      9  H7  OFF d   1      26.647   0.100  52.294  0.00  0.00     0.092 H 
BRANCH   7  10
ATOM     10  C18 OFF d   1      26.525  -2.550  52.428  0.00  0.00    -0.036 A 
ATOM     11  C19 OFF d   1      25.221  -2.063  52.551  0.00  0.00    -0.070 A 
ATOM     12  C20 OFF d   1      24.233  -2.841  53.157  0.00  0.00    -0.050 A 
ATOM     13  H1  OFF d   1      24.976  -1.077  52.174  0.00  0.00     0.084 H 
ATOM     14  C21 OFF d   1      24.545  -4.112  53.639  0.00  0.00     0.065 A 
ATOM     15  H2  OFF d   1      23.224  -2.457  53.253  0.00  0.00     0.087 H 
ATOM     16  C22 OFF d   1      25.843  -4.602  53.516  0.00  0.00    -0.050 A 
ATOM     17  C23 OFF d   1      26.829  -3.820  52.914  0.00  0.00    -0.070 A 
ATOM     18  H4  OFF d   1      26.087  -5.591  53.888  0.00  0.00     0.087 H 
ATOM     19  H5  OFF d   1      27.839  -4.203  52.824  0.00  0.00     0.084 H 
BRANCH  14  20
ATOM     20  O10 OFF d   1      23.589  -4.877  54.231  0.00  0.00    -0.361 OA
ATOM     21  H3  OFF d   1      23.248  -4.423  54.993  0.00  0.00     0.217 HD
ENDBRANCH  14  20
ENDBRANCH   7  10
ENDBRANCH   4   6
ENDBRANCH   3   4
ENDBRANCH   1   3
BRANCH   1  22
ATOM     22  C13 OFF d   1      28.850   3.949  50.350  0.00  0.00     0.043 C 
ATOM     23  H9  OFF d   1      29.646   4.708  50.377  0.00  0.00     0.053 H 
ATOM     24  H10 OFF d   1      28.025   4.259  51.008  0.00  0.00     0.053 H 
BRANCH  22  25
ATOM     25  C14 OFF d   1      28.313   3.866  48.911  0.00  0.00     0.175 C 
ATOM     26  O6  OFF d   1      27.379   4.652  48.616  0.00  0.00    -0.648 OA
ATOM     27  O7  OFF d   1      28.844   3.033  48.139  0.00  0.00    -0.648 OA
ENDBRANCH  22  25
ENDBRANCH   1  22
BRANCH   1  28
ATOM     28  C10 OFF d   1      30.298   2.951  52.104  0.00  0.00     0.157 C 
ATOM     29  H11 OFF d   1      29.720   3.579  52.798  0.00  0.00     0.105 H 
BRANCH  28  30
ATOM     30  C11 OFF d   1      31.584   3.684  51.694  0.00  0.00     0.206 C 
ATOM     31  O4  OFF d   1      31.558   4.931  51.677  0.00  0.00    -0.646 OA
ATOM     32  O5  OFF d   1      32.588   2.997  51.402  0.00  0.00    -0.646 OA
ENDBRANCH  28  30
BRANCH  28  33
ATOM     33  O3  OFF d   1      30.706   1.741  52.762  0.00  0.00    -0.299 OA
BRANCH  33  34
ATOM     34  C9  OFF d   1      30.113   1.443  53.955  0.00  0.00     0.283 C 
ATOM     35  O2  OFF d   1      29.432   2.267  54.573  0.00  0.00    -0.260 OA
BRANCH  34  36
ATOM     36  C8  OFF d   1      30.313   0.158  54.450  0.00  0.00    -0.010 C 
ATOM     37  C7  OFF d   1      29.765  -0.272  55.652  0.00  0.00    -0.067 C 
ATOM     38  H13 OFF d   1      29.162   0.416  56.242  0.00  0.00     0.085 H 
ATOM     39  H12 OFF d   1      30.922  -0.537  53.873  0.00  0.00     0.092 H 
BRANCH  37  40
ATOM     40  C4  OFF d   1      29.975  -1.571  56.115  0.00  0.00    -0.036 A 
ATOM     41  C5  OFF d   1      30.050  -1.806  57.489  0.00  0.00    -0.070 A 
ATOM     42  C6  OFF d   1      30.250  -3.103  57.967  0.00  0.00    -0.050 A 
ATOM     43  H14 OFF d   1      29.953  -0.981  58.186  0.00  0.00     0.084 H 
ATOM     44  C1  OFF d   1      30.367  -4.165  57.070  0.00  0.00     0.065 A 
ATOM     45  H15 OFF d   1      30.314  -3.284  59.034  0.00  0.00     0.087 H 
ATOM     46  C2  OFF d   1      30.286  -3.933  55.696  0.00  0.00    -0.050 A 
ATOM     47  C3  OFF d   1      30.087  -2.637  55.218  0.00  0.00    -0.070 A 
ATOM     48  H17 OFF d   1      30.378  -4.759  55.000  0.00  0.00     0.087 H 
ATOM     49  H18 OFF d   1      30.019  -2.457  54.151  0.00  0.00     0.084 H 
BRANCH  44  50
ATOM     50  O1  OFF d   1      30.563  -5.431  57.539  0.00  0.00    -0.361 OA
ATOM     51  H16 OFF d   1      30.621  -6.033  56.807  0.00  0.00     0.217 HD
ENDBRANCH  44  50
ENDBRANCH  37  40
ENDBRANCH  34  36
ENDBRANCH  33  34
ENDBRANCH  28  33
ENDBRANCH   1  28
TORSDOF 14
