REMARK  22 active torsions:
REMARK  status: ('A' for Active; 'I' for Inactive)
REMARK    1  A    between atoms: N4_7  and  C13_1 
REMARK    2  A    between atoms: C19_3  and  N6_9 
REMARK    3  A    between atoms: C9_8  and  N4_7 
REMARK    4  A    between atoms: N6_9  and  C10_10 
REMARK       I    between atoms: N6_9  and  C12_12 
REMARK    5  A    between atoms: C11_11  and  O4_35 
REMARK    6  A    between atoms: C12_12  and  O1_22 
REMARK    7  A    between atoms: C16_15  and  O3_34 
REMARK    8  A    between atoms: C21_18  and  O7_42 
REMARK    9  A    between atoms: O5_38  and  C22_19 
REMARK   10  A    between atoms: C23_20  and  O6_31 
REMARK   11  A    between atoms: O1_22  and  C25_23 
REMARK   12  A    between atoms: C26_24  and  C32_30 
REMARK   13  A    between atoms: C30_28  and  C31_29 
REMARK   14  A    between atoms: O6_31  and  C33_32 
REMARK   15  A    between atoms: O3_34  and  C37_37 
REMARK   16  A    between atoms: O4_35  and  C36_36 
REMARK   17  A    between atoms: C7_39  and  O5_38 
REMARK   18  A    between atoms: C8_40  and  C7_39 
REMARK   19  A    between atoms: C35_41  and  C8_40 
REMARK   20  A    between atoms: N5_48  and  C35_41 
REMARK   21  A    between atoms: O7_42  and  C34_43 
REMARK   22  A    between atoms: N2_45  and  C2_50 
ROOT
ATOM      1  N4  1N9 d   1      27.031  35.842  82.357  0.00  0.00    -0.188 N 
ATOM      2  H3  1N9 d   1      27.292  35.143  81.647  0.00  0.00     0.184 HD
ENDROOT
BRANCH   1   3
ATOM      3  C13 1N9 d   1      25.716  35.840  82.748  0.00  0.00     0.728 A 
ATOM      4  N1  1N9 d   1      25.212  36.690  83.660  0.00  0.00    -0.044 NA
ATOM      5  C19 1N9 d   1      23.930  36.607  84.041  0.00  0.00     0.159 A 
ATOM      6  C20 1N9 d   1      23.044  35.618  83.480  0.00  0.00    -0.020 A 
ATOM      7  C5  1N9 d   1      23.617  34.770  82.533  0.00  0.00     0.025 A 
ATOM      8  H1  1N9 d   1      22.004  35.539  83.774  0.00  0.00     0.091 H 
ATOM      9  N3  1N9 d   1      24.915  34.918  82.207  0.00  0.00    -0.075 NA
ATOM     10  H2  1N9 d   1      23.021  33.996  82.062  0.00  0.00     0.115 H 
BRANCH   5  11
ATOM     11  N6  1N9 d   1      23.551  37.564  85.002  0.00  0.00    -0.238 N 
ATOM     12  C12 1N9 d   1      22.210  37.592  85.305  0.00  0.00     0.379 C 
ATOM     13  O2  1N9 d   1      21.278  37.404  84.649  0.00  0.00    -0.237 OA
BRANCH  11  14
ATOM     14  C10 1N9 d   1      24.423  38.476  85.632  0.00  0.00     0.079 A 
ATOM     15  C11 1N9 d   1      24.191  39.896  85.408  0.00  0.00     0.098 A 
ATOM     16  C17 1N9 d   1      25.042  40.840  86.075  0.00  0.00    -0.016 A 
ATOM     17  C16 1N9 d   1      26.096  40.312  86.932  0.00  0.00     0.070 A 
ATOM     18  H6  1N9 d   1      24.906  41.908  85.946  0.00  0.00     0.092 H 
ATOM     19  C15 1N9 d   1      26.332  38.913  87.160  0.00  0.00    -0.049 A 
ATOM     20  C14 1N9 d   1      25.492  37.975  86.502  0.00  0.00    -0.051 A 
ATOM     21  H5  1N9 d   1      27.129  38.582  87.816  0.00  0.00     0.087 H 
ATOM     22  H4  1N9 d   1      25.638  36.910  86.640  0.00  0.00     0.087 H 
BRANCH  15  23
ATOM     23  O4  1N9 d   1      23.130  40.252  84.517  0.00  0.00    -0.354 OA
BRANCH  23  24
ATOM     24  C36 1N9 d   1      22.697  41.634  84.448  0.00  0.00     0.010 C 
ATOM     25  H21 1N9 d   1      21.879  41.726  83.718  0.00  0.00     0.066 H 
ATOM     26  H22 1N9 d   1      23.540  42.267  84.136  0.00  0.00     0.066 H 
ATOM     27  H23 1N9 d   1      22.343  41.957  85.438  0.00  0.00     0.066 H 
ENDBRANCH  23  24
ENDBRANCH  15  23
BRANCH  17  28
ATOM     28  O3  1N9 d   1      27.028  41.148  87.565  0.00  0.00    -0.356 OA
BRANCH  28  29
ATOM     29  C37 1N9 d   1      26.583  42.360  88.168  0.00  0.00     0.010 C 
ATOM     30  H24 1N9 d   1      27.441  42.885  88.613  0.00  0.00     0.066 H 
ATOM     31  H25 1N9 d   1      25.847  42.131  88.952  0.00  0.00     0.066 H 
ATOM     32  H26 1N9 d   1      26.118  43.000  87.404  0.00  0.00     0.066 H 
ENDBRANCH  28  29
ENDBRANCH  17  28
ENDBRANCH  11  14
BRANCH  12  33
ATOM     33  O1  1N9 d   1      22.025  37.948  86.747  0.00  0.00    -0.260 OA
BRANCH  33  34
ATOM     34  C25 1N9 d   1      20.585  37.827  87.210  0.00  0.00     0.092 A 
ATOM     35  C26 1N9 d   1      20.087  36.539  87.521  0.00  0.00    -0.027 A 
ATOM     36  C27 1N9 d   1      18.711  36.444  87.964  0.00  0.00    -0.074 A 
ATOM     37  C28 1N9 d   1      17.967  37.660  88.041  0.00  0.00    -0.082 A 
ATOM     38  H9  1N9 d   1      18.266  35.491  88.226  0.00  0.00     0.084 H 
ATOM     39  C29 1N9 d   1      18.501  38.951  87.712  0.00  0.00    -0.074 A 
ATOM     40  H10 1N9 d   1      16.935  37.605  88.368  0.00  0.00     0.083 H 
ATOM     41  C30 1N9 d   1      19.879  39.037  87.272  0.00  0.00    -0.027 A 
ATOM     42  H11 1N9 d   1      17.888  39.841  87.791  0.00  0.00     0.084 H 
BRANCH  35  43
ATOM     43  C32 1N9 d   1      20.928  35.325  87.360  0.00  0.00    -0.049 C 
ATOM     44  H15 1N9 d   1      21.932  35.617  87.018  0.00  0.00     0.033 H 
ATOM     45  H16 1N9 d   1      20.468  34.656  86.618  0.00  0.00     0.033 H 
ATOM     46  H17 1N9 d   1      21.007  34.803  88.325  0.00  0.00     0.033 H 
ENDBRANCH  35  43
BRANCH  41  47
ATOM     47  C31 1N9 d   1      20.533  40.320  86.885  0.00  0.00    -0.049 C 
ATOM     48  H12 1N9 d   1      21.575  40.126  86.590  0.00  0.00     0.033 H 
ATOM     49  H13 1N9 d   1      20.517  41.012  87.740  0.00  0.00     0.033 H 
ATOM     50  H14 1N9 d   1      19.990  40.768  86.040  0.00  0.00     0.033 H 
ENDBRANCH  41  47
ENDBRANCH  33  34
ENDBRANCH  12  33
ENDBRANCH   5  11
ENDBRANCH   1   3
BRANCH   1  51
ATOM     51  C9  1N9 d   1      28.049  36.666  82.798  0.00  0.00     0.054 A 
ATOM     52  C18 1N9 d   1      27.901  38.019  83.309  0.00  0.00    -0.022 A 
ATOM     53  C21 1N9 d   1      29.034  38.781  83.696  0.00  0.00     0.106 A 
ATOM     54  H7  1N9 d   1      26.911  38.452  83.396  0.00  0.00     0.091 H 
ATOM     55  C22 1N9 d   1      30.321  38.158  83.553  0.00  0.00     0.135 A 
ATOM     56  C23 1N9 d   1      30.478  36.819  83.055  0.00  0.00     0.106 A 
ATOM     57  C24 1N9 d   1      29.318  36.068  82.674  0.00  0.00    -0.022 A 
ATOM     58  H8  1N9 d   1      29.416  35.056  82.297  0.00  0.00     0.091 H 
BRANCH  53  59
ATOM     59  O7  1N9 d   1      28.933  40.092  84.232  0.00  0.00    -0.353 OA
BRANCH  59  60
ATOM     60  C34 1N9 d   1      27.893  41.023  83.858  0.00  0.00     0.010 C 
ATOM     61  H33 1N9 d   1      28.030  41.966  84.407  0.00  0.00     0.066 H 
ATOM     62  H34 1N9 d   1      26.911  40.594  84.106  0.00  0.00     0.066 H 
ATOM     63  H35 1N9 d   1      27.946  41.217  82.777  0.00  0.00     0.066 H 
ENDBRANCH  59  60
ENDBRANCH  53  59
BRANCH  55  64
ATOM     64  O5  1N9 d   1      31.439  38.929  83.897  0.00  0.00    -0.346 OA
BRANCH  64  65
ATOM     65  C7  1N9 d   1      31.696  38.870  85.298  0.00  0.00     0.028 C 
ATOM     66  H27 1N9 d   1      31.719  37.821  85.628  0.00  0.00     0.075 H 
ATOM     67  H28 1N9 d   1      30.908  39.409  85.844  0.00  0.00     0.075 H 
BRANCH  65  68
ATOM     68  C8  1N9 d   1      33.016  39.509  85.558  0.00  0.00    -0.022 C 
ATOM     69  H29 1N9 d   1      33.806  38.905  85.088  0.00  0.00     0.038 H 
ATOM     70  H30 1N9 d   1      33.186  39.555  86.644  0.00  0.00     0.038 H 
BRANCH  68  71
ATOM     71  C35 1N9 d   1      33.063  40.928  84.984  0.00  0.00     0.086 C 
ATOM     72  H31 1N9 d   1      32.051  41.359  85.014  0.00  0.00     0.076 H 
ATOM     73  H32 1N9 d   1      33.410  40.880  83.941  0.00  0.00     0.076 H 
BRANCH  71  74
ATOM     74  N5  1N9 d   1      33.977  41.797  85.754  0.00  0.00    -0.068 N 
ATOM     75  C4  1N9 d   1      34.280  43.004  84.919  0.00  0.00     0.106 C 
ATOM     76  C3  1N9 d   1      35.292  43.950  85.673  0.00  0.00     0.105 C 
ATOM     77  H41 1N9 d   1      34.724  42.683  83.965  0.00  0.00     0.078 H 
ATOM     78  H42 1N9 d   1      33.347  43.553  84.723  0.00  0.00     0.078 H 
ATOM     79  N2  1N9 d   1      36.529  43.178  86.054  0.00  0.00    -0.072 N 
ATOM     80  H39 1N9 d   1      35.572  44.785  85.013  0.00  0.00     0.078 H 
ATOM     81  H40 1N9 d   1      34.814  44.345  86.582  0.00  0.00     0.078 H 
ATOM     82  C1  1N9 d   1      36.252  41.969  86.911  0.00  0.00     0.105 C 
ATOM     83  H38 1N9 d   1      37.128  43.791  86.584  0.00  0.00     0.279 HD
ATOM     84  C6  1N9 d   1      35.249  41.078  86.108  0.00  0.00     0.106 C 
ATOM     85  H36 1N9 d   1      35.806  42.276  87.868  0.00  0.00     0.078 H 
ATOM     86  H37 1N9 d   1      37.184  41.416  87.101  0.00  0.00     0.078 H 
ATOM     87  H44 1N9 d   1      34.996  40.198  86.718  0.00  0.00     0.078 H 
ATOM     88  H45 1N9 d   1      35.737  40.752  85.178  0.00  0.00     0.078 H 
ATOM     89  H43 1N9 d   1      33.521  42.085  86.605  0.00  0.00     0.280 HD
BRANCH  79  90
ATOM     90  C2  1N9 d   1      37.236  42.797  84.796  0.00  0.00     0.066 C 
ATOM     91  H46 1N9 d   1      38.146  42.230  85.044  0.00  0.00     0.068 H 
ATOM     92  H47 1N9 d   1      37.510  43.706  84.240  0.00  0.00     0.068 H 
ATOM     93  H48 1N9 d   1      36.573  42.174  84.177  0.00  0.00     0.068 H 
ENDBRANCH  79  90
ENDBRANCH  71  74
ENDBRANCH  68  71
ENDBRANCH  65  68
ENDBRANCH  64  65
ENDBRANCH  55  64
BRANCH  56  94
ATOM     94  O6  1N9 d   1      31.791  36.321  82.991  0.00  0.00    -0.353 OA
BRANCH  94  95
ATOM     95  C33 1N9 d   1      32.059  35.005  82.488  0.00  0.00     0.010 C 
ATOM     96  H18 1N9 d   1      33.141  34.812  82.523  0.00  0.00     0.066 H 
ATOM     97  H19 1N9 d   1      31.707  34.931  81.448  0.00  0.00     0.066 H 
ATOM     98  H20 1N9 d   1      31.534  34.262  83.107  0.00  0.00     0.066 H 
ENDBRANCH  94  95
ENDBRANCH  56  94
ENDBRANCH   1  51
TORSDOF 22
