REMARK  6 active torsions:
REMARK  status: ('A' for Active; 'I' for Inactive)
REMARK    1  A    between atoms: C1_5  and  N15_11 
REMARK    2  A    between atoms: C9_8  and  C16_12 
REMARK    3  A    between atoms: C18_14  and  C29_19 
REMARK    4  A    between atoms: C21_17  and  C25_18 
REMARK       I    between atoms: C29_19  and  N31_21 
REMARK    5  A    between atoms: N31_21  and  C32_22 
REMARK    6  A    between atoms: C34_24  and  C5_28 
ROOT
ATOM      1  C16 242 d   1      89.766  41.233  12.895  0.00  0.00    -0.019 A 
ATOM      2  C17 242 d   1      90.121  41.562  14.237  0.00  0.00    -0.057 A 
ATOM      3  C18 242 d   1      90.378  42.926  14.580  0.00  0.00     0.033 A 
ATOM      4  C19 242 d   1      90.282  43.990  13.587  0.00  0.00    -0.067 A 
ATOM      5  C20 242 d   1      89.921  43.683  12.238  0.00  0.00    -0.075 A 
ATOM      6  C21 242 d   1      89.673  42.307  11.876  0.00  0.00    -0.051 A 
ATOM      7  H7  242 d   1      90.195  40.785  14.989  0.00  0.00     0.086 H 
ATOM      8  H8  242 d   1      90.485  45.016  13.872  0.00  0.00     0.085 H 
ATOM      9  H9  242 d   1      89.835  44.471  11.498  0.00  0.00     0.084 H 
ENDROOT
BRANCH   3  10
ATOM     10  C29 242 d   1      90.722  43.172  15.983  0.00  0.00     0.256 C 
ATOM     11  O30 242 d   1      91.053  42.241  16.747  0.00  0.00    -0.267 OA
ATOM     12  N31 242 d   1      90.697  44.481  16.410  0.00  0.00    -0.323 N 
ATOM     13  H13 242 d   1      90.335  45.160  15.771  0.00  0.00     0.169 HD
BRANCH  12  14
ATOM     14  C32 242 d   1      91.126  44.944  17.641  0.00  0.00     0.035 A 
ATOM     15  C33 242 d   1      92.147  44.232  18.391  0.00  0.00    -0.043 A 
ATOM     16  C34 242 d   1      92.579  44.687  19.660  0.00  0.00     0.050 A 
ATOM     17  H14 242 d   1      92.587  43.335  17.970  0.00  0.00     0.088 H 
ATOM     18  C35 242 d   1      91.987  45.921  20.189  0.00  0.00    -0.068 A 
ATOM     19  C36 242 d   1      90.954  46.642  19.468  0.00  0.00    -0.080 A 
ATOM     20  H15 242 d   1      92.330  46.304  21.143  0.00  0.00     0.084 H 
ATOM     21  C37 242 d   1      90.548  46.144  18.196  0.00  0.00    -0.057 A 
ATOM     22  H16 242 d   1      90.504  47.535  19.886  0.00  0.00     0.083 H 
ATOM     23  H17 242 d   1      89.790  46.677  17.634  0.00  0.00     0.086 H 
BRANCH  16  24
ATOM     24  C5  242 d   1      93.679  43.892  20.406  0.00  0.00     0.417 C 
ATOM     25  F3  242 d   1      94.200  44.652  21.333  0.00  0.00    -0.166 F 
ATOM     26  F1  242 d   1      94.630  43.548  19.576  0.00  0.00    -0.166 F 
ATOM     27  F2  242 d   1      93.144  42.793  20.922  0.00  0.00    -0.166 F 
ENDBRANCH  16  24
ENDBRANCH  12  14
ENDBRANCH   3  10
BRANCH   1  28
ATOM     28  C9  242 d   1      89.508  39.783  12.605  0.00  0.00    -0.024 A 
ATOM     29  C8  242 d   1      90.524  39.023  11.954  0.00  0.00    -0.059 A 
ATOM     30  C2  242 d   1      90.270  37.658  11.654  0.00  0.00     0.012 A 
ATOM     31  H2  242 d   1      91.472  39.478  11.693  0.00  0.00     0.086 H 
ATOM     32  C4  242 d   1      91.245  36.819  11.002  0.00  0.00     0.033 A 
ATOM     33  C3  242 d   1      88.947  37.019  12.042  0.00  0.00     0.087 A 
ATOM     34  N3  242 d   1      90.929  35.527  10.762  0.00  0.00    -0.075 NA
ATOM     35  H1  242 d   1      92.211  37.216  10.711  0.00  0.00     0.117 H 
ATOM     36  C1  242 d   1      89.714  34.991  11.119  0.00  0.00     0.720 A 
ATOM     37  N2  242 d   1      88.744  35.674  11.745  0.00  0.00    -0.063 NA
ATOM     38  C11 242 d   1      87.913  37.810  12.714  0.00  0.00    -0.053 A 
ATOM     39  C10 242 d   1      88.206  39.177  12.986  0.00  0.00    -0.070 A 
ATOM     40  H4  242 d   1      86.962  37.372  12.993  0.00  0.00     0.087 H 
ATOM     41  H3  242 d   1      87.462  39.789  13.482  0.00  0.00     0.084 H 
BRANCH  36  42
ATOM     42  N15 242 d   1      89.472  33.705  10.856  0.00  0.00    -0.231 N 
ATOM     43  H5  242 d   1      88.567  33.287  11.117  0.00  0.00     0.174 HD
ATOM     44  H6  242 d   1      90.190  33.130  10.392  0.00  0.00     0.174 HD
ENDBRANCH  36  42
ENDBRANCH   1  28
BRANCH   6  45
ATOM     45  C25 242 d   1      89.316  42.043  10.403  0.00  0.00    -0.050 C 
ATOM     46  H10 242 d   1      89.151  40.966  10.253  0.00  0.00     0.033 H 
ATOM     47  H11 242 d   1      90.142  42.381   9.759  0.00  0.00     0.033 H 
ATOM     48  H12 242 d   1      88.400  42.594  10.143  0.00  0.00     0.033 H 
ENDBRANCH   6  45
TORSDOF 6
