REMARK  14 active torsions:
REMARK  status: ('A' for Active; 'I' for Inactive)
REMARK    1  A    between atoms: C11_3  and  C14_4 
REMARK       I    between atoms: C14_4  and  N3_5 
REMARK    2  A    between atoms: N3_5  and  C15_6 
REMARK    3  A    between atoms: C20_7  and  N4_21 
REMARK    4  A    between atoms: C17_10  and  C21_12 
REMARK    5  A    between atoms: C8_36  and  C13_18 
REMARK    6  A    between atoms: C24_19  and  C25_20 
REMARK       I    between atoms: N4_21  and  C26_22 
REMARK    7  A    between atoms: C26_22  and  C27_23 
REMARK    8  A    between atoms: C27_23  and  N6_24 
REMARK    9  A    between atoms: N6_24  and  C28_25 
REMARK   10  A    between atoms: N6_24  and  C29_26 
REMARK   11  A    between atoms: C28_25  and  C30_27 
REMARK   12  A    between atoms: C29_26  and  C5_28 
REMARK   13  A    between atoms: C6_34  and  N2_39 
REMARK   14  A    between atoms: N2_39  and  C1_40 
ROOT
ATOM      1  C14 1N8 d   1       5.268  28.883  55.986  0.00  0.00     0.256 C 
ATOM      2  N3  1N8 d   1       4.443  29.909  55.655  0.00  0.00    -0.321 N 
ATOM      3  O1  1N8 d   1       6.364  28.802  55.464  0.00  0.00    -0.267 OA
ATOM      4  H3  1N8 d   1       3.692  30.113  56.283  0.00  0.00     0.169 HD
ENDROOT
BRANCH   2   5
ATOM      5  C15 1N8 d   1       4.550  30.675  54.555  0.00  0.00     0.062 A 
ATOM      6  C20 1N8 d   1       4.392  32.077  54.692  0.00  0.00     0.061 A 
ATOM      7  C19 1N8 d   1       4.485  33.019  53.583  0.00  0.00    -0.054 A 
ATOM      8  C18 1N8 d   1       4.751  32.463  52.302  0.00  0.00    -0.066 A 
ATOM      9  H4  1N8 d   1       4.358  34.086  53.727  0.00  0.00     0.087 H 
ATOM     10  C17 1N8 d   1       4.915  31.006  52.152  0.00  0.00     0.050 A 
ATOM     11  H5  1N8 d   1       4.833  33.110  51.436  0.00  0.00     0.084 H 
ATOM     12  C16 1N8 d   1       4.813  30.102  53.292  0.00  0.00    -0.040 A 
ATOM     13  H6  1N8 d   1       4.934  29.031  53.174  0.00  0.00     0.088 H 
BRANCH   6  14
ATOM     14  N4  1N8 d   1       4.144  32.469  55.970  0.00  0.00    -0.324 N 
ATOM     15  C26 1N8 d   1       3.514  33.620  56.339  0.00  0.00     0.248 C 
ATOM     16  O2  1N8 d   1       2.802  34.288  55.587  0.00  0.00    -0.271 OA
ATOM     17  H11 1N8 d   1       4.450  31.861  56.702  0.00  0.00     0.169 HD
BRANCH  15  18
ATOM     18  C27 1N8 d   1       3.776  34.015  57.781  0.00  0.00     0.156 C 
ATOM     19  H12 1N8 d   1       4.747  33.609  58.102  0.00  0.00     0.090 H 
ATOM     20  H13 1N8 d   1       2.979  33.611  58.423  0.00  0.00     0.090 H 
BRANCH  18  21
ATOM     21  N6  1N8 d   1       3.797  35.493  57.891  0.00  0.00    -0.064 N 
ATOM     22  H14 1N8 d   1       3.910  35.860  56.959  0.00  0.00     0.280 HD
BRANCH  21  23
ATOM     23  C28 1N8 d   1       4.952  35.932  58.701  0.00  0.00     0.081 C 
ATOM     24  H15 1N8 d   1       5.704  35.130  58.749  0.00  0.00     0.075 H 
ATOM     25  H16 1N8 d   1       4.622  36.187  59.719  0.00  0.00     0.075 H 
BRANCH  23  26
ATOM     26  C30 1N8 d   1       5.542  37.155  58.027  0.00  0.00    -0.053 C 
ATOM     27  H19 1N8 d   1       6.408  37.511  58.605  0.00  0.00     0.029 H 
ATOM     28  H20 1N8 d   1       4.782  37.949  57.978  0.00  0.00     0.029 H 
ATOM     29  H21 1N8 d   1       5.864  36.893  57.008  0.00  0.00     0.029 H 
ENDBRANCH  23  26
ENDBRANCH  21  23
BRANCH  21  30
ATOM     30  C29 1N8 d   1       2.563  36.072  58.444  0.00  0.00     0.081 C 
ATOM     31  H17 1N8 d   1       1.894  36.334  57.611  0.00  0.00     0.075 H 
ATOM     32  H18 1N8 d   1       2.823  36.981  59.006  0.00  0.00     0.075 H 
BRANCH  30  33
ATOM     33  C5  1N8 d   1       1.826  35.118  59.377  0.00  0.00    -0.053 C 
ATOM     34  H22 1N8 d   1       0.916  35.606  59.756  0.00  0.00     0.029 H 
ATOM     35  H23 1N8 d   1       2.479  34.853  60.221  0.00  0.00     0.029 H 
ATOM     36  H24 1N8 d   1       1.551  34.206  58.827  0.00  0.00     0.029 H 
ENDBRANCH  30  33
ENDBRANCH  21  30
ENDBRANCH  18  21
ENDBRANCH  15  18
ENDBRANCH   6  14
BRANCH  10  37
ATOM     37  C21 1N8 d   1       5.201  30.394  50.740  0.00  0.00     0.417 C 
ATOM     38  F1  1N8 d   1       4.794  29.149  50.558  0.00  0.00    -0.166 F 
ATOM     39  F2  1N8 d   1       6.470  30.409  50.452  0.00  0.00    -0.166 F 
ATOM     40  F3  1N8 d   1       4.557  31.059  49.828  0.00  0.00    -0.166 F 
ENDBRANCH  10  37
ENDBRANCH   2   5
BRANCH   1  41
ATOM     41  C11 1N8 d   1       4.799  27.872  56.970  0.00  0.00     0.033 A 
ATOM     42  C23 1N8 d   1       3.395  27.688  57.244  0.00  0.00    -0.067 A 
ATOM     43  C22 1N8 d   1       3.017  26.631  58.143  0.00  0.00    -0.075 A 
ATOM     44  H2  1N8 d   1       2.648  28.326  56.787  0.00  0.00     0.085 H 
ATOM     45  C24 1N8 d   1       4.061  25.794  58.734  0.00  0.00    -0.051 A 
ATOM     46  H1  1N8 d   1       1.974  26.457  58.379  0.00  0.00     0.084 H 
ATOM     47  C13 1N8 d   1       5.458  25.953  58.494  0.00  0.00    -0.019 A 
ATOM     48  C12 1N8 d   1       5.810  27.033  57.585  0.00  0.00    -0.057 A 
ATOM     49  H7  1N8 d   1       6.855  27.215  57.361  0.00  0.00     0.086 H 
BRANCH  45  50
ATOM     50  C25 1N8 d   1       3.559  24.713  59.599  0.00  0.00    -0.050 C 
ATOM     51  H8  1N8 d   1       2.462  24.766  59.652  0.00  0.00     0.033 H 
ATOM     52  H9  1N8 d   1       3.981  24.825  60.609  0.00  0.00     0.033 H 
ATOM     53  H10 1N8 d   1       3.859  23.740  59.182  0.00  0.00     0.033 H 
ENDBRANCH  45  50
BRANCH  47  54
ATOM     54  C8  1N8 d   1       6.572  25.122  59.053  0.00  0.00    -0.024 A 
ATOM     55  C7  1N8 d   1       7.085  24.031  58.220  0.00  0.00    -0.059 A 
ATOM     56  C3  1N8 d   1       8.196  23.217  58.601  0.00  0.00     0.012 A 
ATOM     57  H26 1N8 d   1       6.599  23.832  57.271  0.00  0.00     0.086 H 
ATOM     58  C2  1N8 d   1       8.719  22.174  57.786  0.00  0.00     0.033 A 
ATOM     59  C4  1N8 d   1       8.884  23.472  59.924  0.00  0.00     0.087 A 
ATOM     60  N1  1N8 d   1       9.790  21.452  58.190  0.00  0.00    -0.074 NA
ATOM     61  H25 1N8 d   1       8.254  21.956  56.831  0.00  0.00     0.117 H 
ATOM     62  C6  1N8 d   1      10.407  21.684  59.383  0.00  0.00     0.722 A 
ATOM     63  N5  1N8 d   1       9.981  22.665  60.240  0.00  0.00    -0.062 NA
ATOM     64  C10 1N8 d   1       8.380  24.549  60.778  0.00  0.00    -0.053 A 
ATOM     65  C9  1N8 d   1       7.232  25.371  60.350  0.00  0.00    -0.070 A 
ATOM     66  H28 1N8 d   1       8.854  24.744  61.733  0.00  0.00     0.087 H 
ATOM     67  H27 1N8 d   1       6.870  26.165  60.993  0.00  0.00     0.084 H 
BRANCH  62  68
ATOM     68  N2  1N8 d   1      11.440  20.879  59.703  0.00  0.00    -0.227 N 
ATOM     69  H29 1N8 d   1      11.679  20.119  59.051  0.00  0.00     0.177 HD
BRANCH  68  70
ATOM     70  C1  1N8 d   1      12.242  21.018  60.918  0.00  0.00    -0.005 C 
ATOM     71  H30 1N8 d   1      13.018  20.238  60.937  0.00  0.00     0.057 H 
ATOM     72  H31 1N8 d   1      11.593  20.911  61.800  0.00  0.00     0.057 H 
ATOM     73  H32 1N8 d   1      12.718  22.009  60.931  0.00  0.00     0.057 H 
ENDBRANCH  68  70
ENDBRANCH  62  68
ENDBRANCH  47  54
ENDBRANCH   1  41
TORSDOF 14
