REMARK  9 active torsions:
REMARK  status: ('A' for Active; 'I' for Inactive)
REMARK    1  A    between atoms: C1_1  and  C23_22 
REMARK    2  A    between atoms: C4_4  and  C7_7 
REMARK    3  A    between atoms: C7_7  and  C8_8 
REMARK    4  A    between atoms: C8_8  and  C9_9 
REMARK    5  A    between atoms: C9_9  and  C11_10 
REMARK    6  A    between atoms: C9_9  and  N12_11 
REMARK    7  A    between atoms: N12_11  and  C13_12 
REMARK    8  A    between atoms: C13_12  and  C14_13 
REMARK    9  A    between atoms: C14_13  and  C16_15 
REMARK       I    between atoms: C23_22  and  N24_23 
ROOT
ATOM      1  C9  U1N d   1      37.805  56.815  94.643  0.00  0.00     0.099 C 
ATOM      2  H9  U1N d   1      36.758  56.959  94.340  0.00  0.00     0.083 H 
ENDROOT
BRANCH   1   3
ATOM      3  C8  U1N d   1      37.853  55.995  95.948  0.00  0.00    -0.035 C 
ATOM      4  H7  U1N d   1      38.733  56.319  96.522  0.00  0.00     0.036 H 
ATOM      5  H8  U1N d   1      36.940  56.213  96.522  0.00  0.00     0.036 H 
BRANCH   3   6
ATOM      6  C7  U1N d   1      37.942  54.487  95.758  0.00  0.00    -0.039 C 
ATOM      7  H5  U1N d   1      38.704  54.276  94.993  0.00  0.00     0.040 H 
ATOM      8  H6  U1N d   1      38.245  54.032  96.713  0.00  0.00     0.040 H 
BRANCH   6   9
ATOM      9  C4  U1N d   1      36.645  53.867  95.324  0.00  0.00    -0.058 A 
ATOM     10  C3  U1N d   1      35.417  54.141  96.002  0.00  0.00    -0.076 A 
ATOM     11  C2  U1N d   1      34.197  53.542  95.580  0.00  0.00    -0.067 A 
ATOM     12  H2  U1N d   1      35.415  54.815  96.851  0.00  0.00     0.084 H 
ATOM     13  C1  U1N d   1      34.213  52.656  94.452  0.00  0.00     0.031 A 
ATOM     14  H1  U1N d   1      33.271  53.752  96.103  0.00  0.00     0.085 H 
ATOM     15  C6  U1N d   1      35.446  52.389  93.779  0.00  0.00    -0.067 A 
ATOM     16  C5  U1N d   1      36.646  52.990  94.213  0.00  0.00    -0.076 A 
ATOM     17  H4  U1N d   1      35.459  51.718  92.927  0.00  0.00     0.085 H 
ATOM     18  H3  U1N d   1      37.574  52.779  93.693  0.00  0.00     0.084 H 
BRANCH  13  19
ATOM     19  C23 U1N d   1      33.014  51.966  93.935  0.00  0.00     0.249 C 
ATOM     20  N24 U1N d   1      31.743  52.150  94.541  0.00  0.00    -0.366 N 
ATOM     21  H21 U1N d   1      30.942  51.674  94.177  0.00  0.00     0.159 HD
ATOM     22  H22 U1N d   1      31.649  52.755  95.332  0.00  0.00     0.159 HD
ATOM     23  O25 U1N d   1      33.039  51.211  92.988  0.00  0.00    -0.268 OA
ENDBRANCH  13  19
ENDBRANCH   6   9
ENDBRANCH   3   6
ENDBRANCH   1   3
BRANCH   1  24
ATOM     24  C11 U1N d   1      38.445  58.165  94.944  0.00  0.00    -0.050 C 
ATOM     25  H10 U1N d   1      38.433  58.787  94.037  0.00  0.00     0.030 H 
ATOM     26  H11 U1N d   1      39.484  58.013  95.271  0.00  0.00     0.030 H 
ATOM     27  H12 U1N d   1      37.880  58.669  95.742  0.00  0.00     0.030 H 
ENDBRANCH   1  24
BRANCH   1  28
ATOM     28  N12 U1N d   1      38.537  56.139  93.536  0.00  0.00    -0.064 N 
ATOM     29  H13 U1N d   1      38.391  55.146  93.625  0.00  0.00     0.278 HD
ATOM     30  H14 U1N d   1      39.518  56.345  93.638  0.00  0.00     0.278 HD
BRANCH  28  31
ATOM     31  C13 U1N d   1      38.123  56.543  92.178  0.00  0.00     0.140 C 
ATOM     32  H15 U1N d   1      38.860  56.157  91.458  0.00  0.00     0.088 H 
ATOM     33  H16 U1N d   1      38.104  57.642  92.130  0.00  0.00     0.088 H 
BRANCH  31  34
ATOM     34  C14 U1N d   1      36.727  56.010  91.785  0.00  0.00     0.185 C 
ATOM     35  O15 U1N d   1      35.687  56.553  92.120  0.00  0.00    -0.291 OA
BRANCH  34  36
ATOM     36  C16 U1N d   1      36.597  54.754  90.925  0.00  0.00     0.012 A 
ATOM     37  C17 U1N d   1      37.571  53.699  90.916  0.00  0.00    -0.067 A 
ATOM     38  C18 U1N d   1      37.387  52.559  90.094  0.00  0.00    -0.045 A 
ATOM     39  H17 U1N d   1      38.453  53.775  91.542  0.00  0.00     0.085 H 
ATOM     40  C19 U1N d   1      36.239  52.471  89.275  0.00  0.00     0.116 A 
ATOM     41  H18 U1N d   1      38.121  51.761  90.094  0.00  0.00     0.088 H 
ATOM     42  F20 U1N d   1      36.078  51.411  88.504  0.00  0.00    -0.206 F 
ATOM     43  C21 U1N d   1      35.261  53.492  89.264  0.00  0.00    -0.045 A 
ATOM     44  C22 U1N d   1      35.442  54.629  90.085  0.00  0.00    -0.067 A 
ATOM     45  H19 U1N d   1      34.383  53.404  88.634  0.00  0.00     0.088 H 
ATOM     46  H20 U1N d   1      34.697  55.417  90.079  0.00  0.00     0.085 H 
ENDBRANCH  34  36
ENDBRANCH  31  34
ENDBRANCH  28  31
ENDBRANCH   1  28
TORSDOF 9
