REMARK  7 active torsions:
REMARK  status: ('A' for Active; 'I' for Inactive)
REMARK    1  A    between atoms: C25_28  and  C17_10 
REMARK    2  A    between atoms: C20_11  and  C1_15 
REMARK    3  A    between atoms: O1_26  and  C22_13 
REMARK    4  A    between atoms: C24_14  and  O1_26 
REMARK    5  A    between atoms: C23_27  and  C24_14 
REMARK    6  A    between atoms: C23_27  and  C25_28 
REMARK    7  A    between atoms: C23_27  and  N4_29 
ROOT
ATOM      1  C24 2PY d   1      11.804   8.220   2.723  0.00  0.00     0.053 C 
ATOM      2  H8  2PY d   1      11.118   7.363   2.794  0.00  0.00     0.078 H 
ATOM      3  H9  2PY d   1      11.588   8.930   3.535  0.00  0.00     0.078 H 
ENDROOT
BRANCH   1   4
ATOM      4  O1  2PY d   1      11.675   8.855   1.463  0.00  0.00    -0.348 OA
BRANCH   4   5
ATOM      5  C22 2PY d   1      10.473   9.398   0.997  0.00  0.00     0.087 A 
ATOM      6  C21 2PY d   1       9.197   9.424   1.644  0.00  0.00    -0.037 A 
ATOM      7  C20 2PY d   1       8.073  10.008   1.006  0.00  0.00    -0.006 A 
ATOM      8  H7  2PY d   1       9.088   8.993   2.632  0.00  0.00     0.089 H 
ATOM      9  C19 2PY d   1       8.292  10.548  -0.280  0.00  0.00     0.013 A 
ATOM     10  N3  2PY d   1       9.506  10.530  -0.905  0.00  0.00    -0.269 NA
ATOM     11  H16 2PY d   1       7.454  11.000  -0.798  0.00  0.00     0.116 H 
ATOM     12  C18 2PY d   1      10.565   9.971  -0.286  0.00  0.00     0.034 A 
ATOM     13  H15 2PY d   1      11.522   9.962  -0.794  0.00  0.00     0.119 H 
BRANCH   7  14
ATOM     14  C1  2PY d   1       6.695  10.044   1.639  0.00  0.00    -0.024 A 
ATOM     15  C6  2PY d   1       5.526   9.960   0.810  0.00  0.00    -0.070 A 
ATOM     16  C5  2PY d   1       4.210   9.971   1.351  0.00  0.00    -0.052 A 
ATOM     17  H3  2PY d   1       5.650   9.886  -0.264  0.00  0.00     0.084 H 
ATOM     18  C4  2PY d   1       4.027  10.065   2.723  0.00  0.00     0.088 A 
ATOM     19  H2  2PY d   1       3.352   9.906   0.692  0.00  0.00     0.087 H 
ATOM     20  C3  2PY d   1       5.180  10.154   3.606  0.00  0.00     0.012 A 
ATOM     21  N5  2PY d   1       2.958  10.102   3.576  0.00  0.00    -0.175 NA
ATOM     22  C8  2PY d   1       4.667  10.238   4.968  0.00  0.00     0.008 A 
ATOM     23  C2  2PY d   1       6.486  10.142   3.059  0.00  0.00    -0.059 A 
ATOM     24  N1  2PY d   1       3.325  10.201   4.858  0.00  0.00    -0.288 N 
ATOM     25  H4  2PY d   1       5.249  10.315   5.885  0.00  0.00     0.115 H 
ATOM     26  H1  2PY d   1       2.671  10.243   5.653  0.00  0.00     0.188 HD
ATOM     27  H10 2PY d   1       7.342  10.208   3.721  0.00  0.00     0.086 H 
ENDBRANCH   7  14
ENDBRANCH   4   5
ENDBRANCH   1   4
BRANCH   1  28
ATOM     28  C23 2PY d   1      13.277   7.743   2.797  0.00  0.00     0.124 C 
ATOM     29  H17 2PY d   1      13.367   7.048   3.644  0.00  0.00     0.087 H 
BRANCH  28  30
ATOM     30  C25 2PY d   1      14.305   8.888   3.022  0.00  0.00    -0.010 C 
ATOM     31  H18 2PY d   1      13.898   9.555   3.796  0.00  0.00     0.043 H 
ATOM     32  H19 2PY d   1      15.238   8.432   3.384  0.00  0.00     0.043 H 
BRANCH  30  33
ATOM     33  C17 2PY d   1      14.651   9.749   1.801  0.00  0.00    -0.028 A 
ATOM     34  C13 2PY d   1      14.102  11.045   1.489  0.00  0.00    -0.002 A 
ATOM     35  C12 2PY d   1      14.704  11.449   0.272  0.00  0.00     0.042 A 
ATOM     36  C14 2PY d   1      13.129  11.937   2.131  0.00  0.00    -0.070 A 
ATOM     37  C11 2PY d   1      14.400  12.669  -0.340  0.00  0.00    -0.056 A 
ATOM     38  N2  2PY d   1      15.580  10.448  -0.133  0.00  0.00    -0.365 N 
ATOM     39  C10 2PY d   1      13.449  13.544   0.279  0.00  0.00    -0.081 A 
ATOM     40  H11 2PY d   1      14.878  12.950  -1.272  0.00  0.00     0.086 H 
ATOM     41  C15 2PY d   1      12.819  13.179   1.508  0.00  0.00    -0.082 A 
ATOM     42  H5  2PY d   1      13.206  14.491  -0.189  0.00  0.00     0.083 H 
ATOM     43  H6  2PY d   1      12.102  13.850   1.968  0.00  0.00     0.083 H 
ATOM     44  C16 2PY d   1      15.543   9.432   0.788  0.00  0.00    -0.015 A 
ATOM     45  H13 2PY d   1      16.160  10.466  -0.984  0.00  0.00     0.165 HD
ATOM     46  H14 2PY d   1      16.127   8.514   0.732  0.00  0.00     0.112 H 
ATOM     47  H12 2PY d   1      12.654  11.655   3.064  0.00  0.00     0.084 H 
ENDBRANCH  30  33
ENDBRANCH  28  30
BRANCH  28  48
ATOM     48  N4  2PY d   1      13.581   7.008   1.544  0.00  0.00    -0.073 N 
ATOM     49  H20 2PY d   1      12.906   6.271   1.415  0.00  0.00     0.274 HD
ATOM     50  H21 2PY d   1      14.505   6.610   1.603  0.00  0.00     0.274 HD
ATOM     51  H22 2PY d   1      13.538   7.644   0.763  0.00  0.00     0.274 HD
ENDBRANCH  28  48
ENDBRANCH   1  28
TORSDOF 7
