REMARK  8 active torsions:
REMARK  status: ('A' for Active; 'I' for Inactive)
REMARK    1  A    between atoms: C5_1  and  C2_30 
REMARK    2  A    between atoms: N12_6  and  C7_3 
REMARK       I    between atoms: C13_7  and  N12_6 
REMARK       I    between atoms: N15_26  and  C13_7 
REMARK    3  A    between atoms: O35_13  and  C36_12 
REMARK    4  A    between atoms: C33_14  and  O35_13 
REMARK       I    between atoms: N32_16  and  C33_14 
REMARK    5  A    between atoms: C27_17  and  N32_16 
REMARK    6  A    between atoms: O22_23  and  C23_22 
REMARK    7  A    between atoms: C19_24  and  O22_23 
REMARK    8  A    between atoms: C16_25  and  N15_26 
ROOT
ATOM      1  C17 GIG d   1       0.375  35.335  13.562  0.00  0.00    -0.054 A 
ATOM      2  C20 GIG d   1       1.324  34.265  15.959  0.00  0.00    -0.048 A 
ATOM      3  C21 GIG d   1       1.531  35.609  15.687  0.00  0.00    -0.054 A 
ATOM      4  C19 GIG d   1       0.609  33.474  15.040  0.00  0.00     0.076 A 
ATOM      5  C16 GIG d   1       1.059  36.161  14.471  0.00  0.00     0.036 A 
ATOM      6  C18 GIG d   1       0.151  33.994  13.836  0.00  0.00    -0.048 A 
ATOM      7  H4  GIG d   1       0.016  35.754  12.629  0.00  0.00     0.087 H 
ATOM      8  H5  GIG d   1       1.710  33.827  16.872  0.00  0.00     0.087 H 
ATOM      9  H6  GIG d   1       2.052  36.235  16.402  0.00  0.00     0.087 H 
ATOM     10  H16 GIG d   1      -0.371  33.364  13.125  0.00  0.00     0.087 H 
ENDROOT
BRANCH   4  11
ATOM     11  O22 GIG d   1       0.372  32.128  15.297  0.00  0.00    -0.311 OA
BRANCH  11  12
ATOM     12  C23 GIG d   1       1.371  31.266  15.669  0.00  0.00     0.078 A 
ATOM     13  C24 GIG d   1       0.977  30.249  16.539  0.00  0.00    -0.022 A 
ATOM     14  C25 GIG d   1       1.979  29.376  16.933  0.00  0.00     0.081 A 
ATOM     15  H7  GIG d   1      -0.046  30.148  16.884  0.00  0.00     0.091 H 
ATOM     16  C29 GIG d   1       3.330  29.507  16.453  0.00  0.00     0.103 A 
ATOM     17  N26 GIG d   1       1.962  28.275  17.770  0.00  0.00    -0.187 N 
ATOM     18  N28 GIG d   1       4.114  28.506  16.983  0.00  0.00    -0.062 NA
ATOM     19  C30 GIG d   1       3.697  30.551  15.573  0.00  0.00    -0.050 A 
ATOM     20  C27 GIG d   1       3.290  27.803  17.770  0.00  0.00     0.710 A 
ATOM     21  C31 GIG d   1       2.693  31.417  15.185  0.00  0.00    -0.048 A 
ATOM     22  H12 GIG d   1       4.715  30.666  15.220  0.00  0.00     0.087 H 
ATOM     23  H13 GIG d   1       2.921  32.225  14.499  0.00  0.00     0.087 H 
ATOM     24  H17 GIG d   1       1.157  27.886  18.281  0.00  0.00     0.184 HD
BRANCH  20  25
ATOM     25  N32 GIG d   1       3.661  26.658  18.500  0.00  0.00    -0.133 N 
ATOM     26  C33 GIG d   1       2.794  26.005  19.306  0.00  0.00     0.378 C 
ATOM     27  O34 GIG d   1       1.534  26.001  19.207  0.00  0.00    -0.238 OA
ATOM     28  H11 GIG d   1       4.597  26.316  18.420  0.00  0.00     0.190 HD
BRANCH  26  29
ATOM     29  O35 GIG d   1       3.386  24.930  19.864  0.00  0.00    -0.308 OA
BRANCH  29  30
ATOM     30  C36 GIG d   1       2.592  24.159  20.788  0.00  0.00     0.015 C 
ATOM     31  H8  GIG d   1       3.188  23.316  21.169  0.00  0.00     0.067 H 
ATOM     32  H9  GIG d   1       1.700  23.774  20.272  0.00  0.00     0.067 H 
ATOM     33  H10 GIG d   1       2.283  24.798  21.628  0.00  0.00     0.067 H 
ENDBRANCH  29  30
ENDBRANCH  26  29
ENDBRANCH  20  25
ENDBRANCH  11  12
ENDBRANCH   4  11
BRANCH   5  34
ATOM     34  N15 GIG d   1       1.272  37.507  14.135  0.00  0.00    -0.309 N 
ATOM     35  C13 GIG d   1       1.840  38.479  14.962  0.00  0.00     0.325 C 
ATOM     36  N12 GIG d   1       1.715  39.744  14.392  0.00  0.00    -0.306 N 
ATOM     37  O14 GIG d   1       2.754  38.214  15.796  0.00  0.00    -0.247 OA
ATOM     38  H3  GIG d   1       1.214  39.810  13.529  0.00  0.00     0.171 HD
ATOM     39  H14 GIG d   1       0.992  37.797  13.220  0.00  0.00     0.170 HD
BRANCH  36  40
ATOM     40  C7  GIG d   1       2.231  40.928  14.925  0.00  0.00     0.075 A 
ATOM     41  C6  GIG d   1       3.352  40.961  15.789  0.00  0.00    -0.039 A 
ATOM     42  C5  GIG d   1       3.818  42.163  16.266  0.00  0.00     0.050 A 
ATOM     43  H1  GIG d   1       3.843  40.038  16.075  0.00  0.00     0.088 H 
ATOM     44  C10 GIG d   1       3.209  43.368  15.918  0.00  0.00    -0.065 A 
ATOM     45  C9  GIG d   1       2.111  43.372  15.065  0.00  0.00    -0.043 A 
ATOM     46  H2  GIG d   1       3.592  44.302  16.313  0.00  0.00     0.084 H 
ATOM     47  C8  GIG d   1       1.638  42.149  14.557  0.00  0.00     0.143 A 
ATOM     48  H15 GIG d   1       1.627  44.304  14.796  0.00  0.00     0.088 H 
ATOM     49  F11 GIG d   1       0.591  42.131  13.732  0.00  0.00    -0.204 F 
BRANCH  42  50
ATOM     50  C2  GIG d   1       5.001  42.156  17.226  0.00  0.00     0.417 C 
ATOM     51  F3  GIG d   1       5.180  43.328  17.887  0.00  0.00    -0.166 F 
ATOM     52  F4  GIG d   1       4.857  41.293  18.253  0.00  0.00    -0.166 F 
ATOM     53  F1  GIG d   1       6.194  41.790  16.714  0.00  0.00    -0.166 F 
ENDBRANCH  42  50
ENDBRANCH  36  40
ENDBRANCH   5  34
TORSDOF 8
