REMARK  1 active torsions:
REMARK  status: ('A' for Active; 'I' for Inactive)
REMARK    1  A    between atoms: N1_1  and  C2_2 
ROOT
ATOM      1  C2  1SQ d   1      67.421  49.087   7.244  0.00  0.00     0.132 A 
ATOM      2  N3  1SQ d   1      67.883  50.292   7.640  0.00  0.00    -0.243 NA
ATOM      3  C4  1SQ d   1      68.651  50.333   8.735  0.00  0.00     0.005 A 
ATOM      4  C5  1SQ d   1      68.955  49.222   9.497  0.00  0.00    -0.055 A 
ATOM      5  C6  1SQ d   1      68.455  47.981   9.133  0.00  0.00    -0.021 A 
ATOM      6  C7  1SQ d   1      68.715  46.826   9.862  0.00  0.00    -0.072 A 
ATOM      7  C8  1SQ d   1      68.196  45.613   9.454  0.00  0.00    -0.082 A 
ATOM      8  C9  1SQ d   1      67.425  45.540   8.314  0.00  0.00    -0.082 A 
ATOM      9  C10 1SQ d   1      67.156  46.674   7.584  0.00  0.00    -0.069 A 
ATOM     10  C11 1SQ d   1      67.657  47.906   7.978  0.00  0.00     0.020 A 
ATOM     11  H3  1SQ d   1      69.057  51.291   9.041  0.00  0.00     0.114 H 
ATOM     12  H4  1SQ d   1      69.582  49.320  10.376  0.00  0.00     0.087 H 
ATOM     13  H5  1SQ d   1      69.328  46.878  10.755  0.00  0.00     0.084 H 
ATOM     14  H6  1SQ d   1      68.395  44.717  10.031  0.00  0.00     0.083 H 
ATOM     15  H7  1SQ d   1      67.029  44.584   7.991  0.00  0.00     0.083 H 
ATOM     16  H8  1SQ d   1      66.546  46.604   6.691  0.00  0.00     0.085 H 
ENDROOT
BRANCH   1  17
ATOM     17  N1  1SQ d   1      66.651  49.046   6.124  0.00  0.00    -0.383 N 
ATOM     18  H1  1SQ d   1      66.278  48.147   5.788  0.00  0.00     0.157 HD
ATOM     19  H2  1SQ d   1      66.440  49.914   5.612  0.00  0.00     0.157 HD
ENDBRANCH   1  17
TORSDOF 1
