REMARK  1 active torsions:
REMARK  status: ('A' for Active; 'I' for Inactive)
REMARK    1  A    between atoms: N1_1  and  C2_2 
ROOT
ATOM      1  C2  2AQ d   1      66.630  48.668   7.083  0.00  0.00     0.121 A 
ATOM      2  C3  2AQ d   1      66.923  47.502   7.779  0.00  0.00    -0.038 A 
ATOM      3  C4  2AQ d   1      67.672  47.572   8.928  0.00  0.00    -0.067 A 
ATOM      4  C5  2AQ d   1      68.100  48.810   9.381  0.00  0.00    -0.007 A 
ATOM      5  C6  2AQ d   1      68.855  48.959  10.533  0.00  0.00    -0.071 A 
ATOM      6  C7  2AQ d   1      69.252  50.212  10.947  0.00  0.00    -0.082 A 
ATOM      7  C8  2AQ d   1      68.903  51.331  10.215  0.00  0.00    -0.081 A 
ATOM      8  C9  2AQ d   1      68.158  51.202   9.060  0.00  0.00    -0.054 A 
ATOM      9  C10 2AQ d   1      67.748  49.954   8.628  0.00  0.00     0.069 A 
ATOM     10  N11 2AQ d   1      67.027  49.879   7.502  0.00  0.00    -0.231 NA
ATOM     11  H3  2AQ d   1      66.564  46.545   7.418  0.00  0.00     0.089 H 
ATOM     12  H4  2AQ d   1      67.925  46.670   9.474  0.00  0.00     0.085 H 
ATOM     13  H5  2AQ d   1      69.135  48.086  11.111  0.00  0.00     0.084 H 
ATOM     14  H6  2AQ d   1      69.841  50.320  11.851  0.00  0.00     0.083 H 
ATOM     15  H7  2AQ d   1      69.215  52.314  10.549  0.00  0.00     0.083 H 
ATOM     16  H8  2AQ d   1      67.893  52.084   8.488  0.00  0.00     0.087 H 
ENDROOT
BRANCH   1  17
ATOM     17  N1  2AQ d   1      65.939  48.629   6.013  0.00  0.00    -0.384 N 
ATOM     18  H1  2AQ d   1      65.608  47.725   5.646  0.00  0.00     0.157 HD
ATOM     19  H2  2AQ d   1      65.711  49.501   5.515  0.00  0.00     0.157 HD
ENDBRANCH   1  17
TORSDOF 1
