REMARK  3 active torsions:
REMARK  status: ('A' for Active; 'I' for Inactive)
REMARK    1  A    between atoms: C6_6  and  C7_7 
REMARK    2  A    between atoms: C7_7  and  C8_8 
REMARK    3  A    between atoms: C8_8  and  C9_9 
ROOT
ATOM      1  C8  6IP d   1      70.436  50.752   7.372  0.00  0.00    -0.036 C 
ATOM      2  H7  6IP d   1      71.064  51.631   7.576  0.00  0.00     0.040 H 
ATOM      3  H8  6IP d   1      69.729  50.986   6.563  0.00  0.00     0.040 H 
ENDROOT
BRANCH   1   4
ATOM      4  C7  6IP d   1      69.643  50.429   8.623  0.00  0.00    -0.023 C 
ATOM      5  H5  6IP d   1      70.341  50.112   9.412  0.00  0.00     0.042 H 
ATOM      6  H6  6IP d   1      69.111  51.335   8.947  0.00  0.00     0.042 H 
BRANCH   4   7
ATOM      7  C6  6IP d   1      68.636  49.331   8.400  0.00  0.00     0.011 A 
ATOM      8  C5  6IP d   1      68.621  48.191   9.196  0.00  0.00    -0.061 A 
ATOM      9  C4  6IP d   1      67.692  47.195   8.960  0.00  0.00    -0.077 A 
ATOM     10  H4  6IP d   1      69.341  48.083  10.005  0.00  0.00     0.086 H 
ATOM     11  C3  6IP d   1      66.782  47.335   7.934  0.00  0.00    -0.039 A 
ATOM     12  H3  6IP d   1      67.679  46.302   9.583  0.00  0.00     0.083 H 
ATOM     13  C2  6IP d   1      66.815  48.467   7.126  0.00  0.00     0.120 A 
ATOM     14  H2  6IP d   1      66.038  46.560   7.756  0.00  0.00     0.089 H 
ATOM     15  N1  6IP d   1      65.959  48.624   6.144  0.00  0.00    -0.284 NA
ATOM     16  N18 6IP d   1      67.726  49.453   7.386  0.00  0.00    -0.345 N 
ATOM     17  H1  6IP d   1      65.283  47.903   5.944  0.00  0.00     0.188 HD
ATOM     18  H15 6IP d   1      67.727  50.305   6.807  0.00  0.00     0.167 HD
ENDBRANCH   4   7
ENDBRANCH   1   4
BRANCH   1  19
ATOM     19  C9  6IP d   1      71.327  49.625   6.915  0.00  0.00    -0.056 A 
ATOM     20  C10 6IP d   1      72.388  49.205   7.714  0.00  0.00    -0.076 A 
ATOM     21  C11 6IP d   1      73.232  48.187   7.306  0.00  0.00    -0.070 A 
ATOM     22  H9  6IP d   1      72.555  49.684   8.672  0.00  0.00     0.084 H 
ATOM     23  C12 6IP d   1      73.022  47.588   6.070  0.00  0.00    -0.008 A 
ATOM     24  H10 6IP d   1      74.047  47.861   7.943  0.00  0.00     0.084 H 
ATOM     25  C13 6IP d   1      73.672  46.557   5.359  0.00  0.00    -0.056 A 
ATOM     26  C16 6IP d   1      71.968  48.013   5.259  0.00  0.00     0.042 A 
ATOM     27  C14 6IP d   1      73.002  46.390   4.145  0.00  0.00    -0.022 A 
ATOM     28  H11 6IP d   1      74.540  45.993   5.696  0.00  0.00     0.086 H 
ATOM     29  N15 6IP d   1      71.985  47.275   4.095  0.00  0.00    -0.365 N 
ATOM     30  H12 6IP d   1      73.257  45.668   3.370  0.00  0.00     0.111 H 
ATOM     31  H13 6IP d   1      71.326  47.382   3.311  0.00  0.00     0.165 HD
ATOM     32  C17 6IP d   1      71.118  49.032   5.673  0.00  0.00    -0.050 A 
ATOM     33  H14 6IP d   1      70.304  49.360   5.037  0.00  0.00     0.087 H 
ENDBRANCH   1  19
TORSDOF 3
