REMARK  7 active torsions:
REMARK  status: ('A' for Active; 'I' for Inactive)
REMARK    1  A    between atoms: C1_1  and  O2_2 
REMARK    2  A    between atoms: O2_2  and  C3_3 
REMARK    3  A    between atoms: C7_7  and  C9_9 
REMARK    4  A    between atoms: C13_13  and  C14_14 
REMARK    5  A    between atoms: C14_14  and  C15_15 
REMARK    6  A    between atoms: C15_15  and  C16_16 
REMARK    7  A    between atoms: C20_20  and  N21_21 
ROOT
ATOM      1  C9  7IP d   1      72.428  48.419   6.539  0.00  0.00    -0.025 A 
ATOM      2  C10 7IP d   1      73.433  48.507   7.499  0.00  0.00    -0.072 A 
ATOM      3  C11 7IP d   1      73.338  49.412   8.537  0.00  0.00    -0.082 A 
ATOM      4  C12 7IP d   1      72.242  50.240   8.634  0.00  0.00    -0.077 A 
ATOM      5  C13 7IP d   1      71.218  50.166   7.701  0.00  0.00    -0.057 A 
ATOM      6  C23 7IP d   1      71.316  49.251   6.659  0.00  0.00    -0.066 A 
ATOM      7  H8  7IP d   1      74.299  47.858   7.430  0.00  0.00     0.084 H 
ATOM      8  H9  7IP d   1      74.128  49.471   9.277  0.00  0.00     0.083 H 
ATOM      9  H10 7IP d   1      72.179  50.955   9.446  0.00  0.00     0.084 H 
ATOM     10  H20 7IP d   1      70.517  49.184   5.930  0.00  0.00     0.085 H 
ENDROOT
BRANCH   5  11
ATOM     11  C14 7IP d   1      70.030  51.086   7.808  0.00  0.00    -0.036 C 
ATOM     12  H11 7IP d   1      69.454  51.027   6.872  0.00  0.00     0.040 H 
ATOM     13  H12 7IP d   1      70.394  52.114   7.951  0.00  0.00     0.040 H 
BRANCH  11  14
ATOM     14  C15 7IP d   1      69.115  50.732   8.962  0.00  0.00    -0.023 C 
ATOM     15  H13 7IP d   1      68.440  51.578   9.156  0.00  0.00     0.042 H 
ATOM     16  H14 7IP d   1      69.726  50.538   9.856  0.00  0.00     0.042 H 
BRANCH  14  17
ATOM     17  C16 7IP d   1      68.292  49.510   8.657  0.00  0.00     0.011 A 
ATOM     18  C17 7IP d   1      68.393  48.349   9.415  0.00  0.00    -0.061 A 
ATOM     19  C18 7IP d   1      67.627  47.248   9.088  0.00  0.00    -0.077 A 
ATOM     20  H15 7IP d   1      69.074  48.308  10.264  0.00  0.00     0.086 H 
ATOM     21  C19 7IP d   1      66.771  47.306   8.007  0.00  0.00    -0.039 A 
ATOM     22  H16 7IP d   1      67.698  46.337   9.681  0.00  0.00     0.083 H 
ATOM     23  C20 7IP d   1      66.688  48.469   7.247  0.00  0.00     0.120 A 
ATOM     24  H17 7IP d   1      66.161  46.442   7.749  0.00  0.00     0.089 H 
ATOM     25  N22 7IP d   1      67.443  49.548   7.590  0.00  0.00    -0.345 N 
ATOM     26  H19 7IP d   1      67.372  50.411   7.032  0.00  0.00     0.167 HD
BRANCH  23  27
ATOM     27  N21 7IP d   1      65.893  48.546   6.179  0.00  0.00    -0.284 NA
ATOM     28  H18 7IP d   1      65.849  49.399   5.644  0.00  0.00     0.188 HD
ENDBRANCH  23  27
ENDBRANCH  14  17
ENDBRANCH  11  14
ENDBRANCH   5  11
BRANCH   1  29
ATOM     29  C7  7IP d   1      72.529  47.428   5.429  0.00  0.00    -0.023 A 
ATOM     30  C6  7IP d   1      73.365  46.323   5.550  0.00  0.00    -0.072 A 
ATOM     31  C5  7IP d   1      73.454  45.394   4.537  0.00  0.00    -0.080 A 
ATOM     32  H6  7IP d   1      73.953  46.191   6.451  0.00  0.00     0.084 H 
ATOM     33  C4  7IP d   1      72.720  45.553   3.382  0.00  0.00    -0.051 A 
ATOM     34  H5  7IP d   1      74.104  44.534   4.649  0.00  0.00     0.083 H 
ATOM     35  C3  7IP d   1      71.885  46.651   3.226  0.00  0.00     0.069 A 
ATOM     36  H4  7IP d   1      72.795  44.816   2.590  0.00  0.00     0.087 H 
ATOM     37  C8  7IP d   1      71.794  47.581   4.255  0.00  0.00    -0.040 A 
ATOM     38  H7  7IP d   1      71.141  48.439   4.143  0.00  0.00     0.089 H 
BRANCH  35  39
ATOM     39  O2  7IP d   1      71.094  46.891   2.128  0.00  0.00    -0.356 OA
BRANCH  39  40
ATOM     40  C1  7IP d   1      71.069  45.902   1.096  0.00  0.00     0.010 C 
ATOM     41  H1  7IP d   1      70.397  46.231   0.289  0.00  0.00     0.066 H 
ATOM     42  H2  7IP d   1      70.706  44.950   1.510  0.00  0.00     0.066 H 
ATOM     43  H3  7IP d   1      72.084  45.765   0.695  0.00  0.00     0.066 H 
ENDBRANCH  39  40
ENDBRANCH  35  39
ENDBRANCH   1  29
TORSDOF 7
