REMARK  5 active torsions:
REMARK  status: ('A' for Active; 'I' for Inactive)
REMARK    1  A    between atoms: N1_1  and  C2_2 
REMARK    2  A    between atoms: C7_7  and  N8_8 
REMARK    3  A    between atoms: N8_8  and  C9_9 
REMARK    4  A    between atoms: C9_9  and  C10_10 
REMARK    5  A    between atoms: C14_14  and  C16_16 
ROOT
ATOM      1  C10 8IP d   1      69.733  48.541   8.618  0.00  0.00    -0.040 A 
ATOM      2  C11 8IP d   1      70.745  48.924   9.482  0.00  0.00    -0.075 A 
ATOM      3  C12 8IP d   1      72.064  48.667   9.175  0.00  0.00    -0.082 A 
ATOM      4  C13 8IP d   1      72.392  48.005   8.012  0.00  0.00    -0.072 A 
ATOM      5  C14 8IP d   1      71.400  47.603   7.125  0.00  0.00    -0.024 A 
ATOM      6  C15 8IP d   1      70.070  47.875   7.443  0.00  0.00    -0.065 A 
ATOM      7  H9  8IP d   1      70.498  49.430  10.408  0.00  0.00     0.084 H 
ATOM      8  H10 8IP d   1      72.847  48.987   9.852  0.00  0.00     0.083 H 
ATOM      9  H11 8IP d   1      73.432  47.796   7.787  0.00  0.00     0.084 H 
ATOM     10  H12 8IP d   1      69.285  47.563   6.764  0.00  0.00     0.085 H 
ENDROOT
BRANCH   1  11
ATOM     11  C9  8IP d   1      68.293  48.843   8.968  0.00  0.00     0.017 C 
ATOM     12  H7  8IP d   1      68.110  48.498   9.996  0.00  0.00     0.071 H 
ATOM     13  H8  8IP d   1      68.148  49.932   8.916  0.00  0.00     0.071 H 
BRANCH  11  14
ATOM     14  N8  8IP d   1      67.314  48.213   8.097  0.00  0.00    -0.383 N 
ATOM     15  H6  8IP d   1      66.797  48.817   7.442  0.00  0.00     0.160 HD
BRANCH  14  16
ATOM     16  C7  8IP d   1      67.025  46.847   8.085  0.00  0.00     0.074 A 
ATOM     17  C2  8IP d   1      66.032  46.357   7.192  0.00  0.00     0.147 A 
ATOM     18  N3  8IP d   1      65.679  45.052   7.151  0.00  0.00    -0.241 NA
ATOM     19  C4  8IP d   1      66.316  44.209   7.973  0.00  0.00     0.005 A 
ATOM     20  C5  8IP d   1      67.297  44.606   8.858  0.00  0.00    -0.064 A 
ATOM     21  H3  8IP d   1      66.047  43.159   7.942  0.00  0.00     0.114 H 
ATOM     22  C6  8IP d   1      67.660  45.932   8.915  0.00  0.00    -0.052 A 
ATOM     23  H4  8IP d   1      67.778  43.880   9.503  0.00  0.00     0.085 H 
ATOM     24  H5  8IP d   1      68.433  46.259   9.601  0.00  0.00     0.087 H 
BRANCH  17  25
ATOM     25  N1  8IP d   1      65.369  47.200   6.380  0.00  0.00    -0.382 N 
ATOM     26  H1  8IP d   1      65.603  48.203   6.377  0.00  0.00     0.157 HD
ATOM     27  H2  8IP d   1      64.627  46.843   5.761  0.00  0.00     0.157 HD
ENDBRANCH  17  25
ENDBRANCH  14  16
ENDBRANCH  11  14
ENDBRANCH   1  11
BRANCH   5  28
ATOM     28  C16 8IP d   1      71.753  46.855   5.885  0.00  0.00    -0.008 A 
ATOM     29  C17 8IP d   1      72.798  45.942   5.871  0.00  0.00    -0.070 A 
ATOM     30  C18 8IP d   1      73.082  45.255   4.712  0.00  0.00    -0.065 A 
ATOM     31  H13 8IP d   1      73.386  45.771   6.765  0.00  0.00     0.085 H 
ATOM     32  C19 8IP d   1      72.299  45.466   3.597  0.00  0.00     0.002 A 
ATOM     33  H14 8IP d   1      73.911  44.557   4.677  0.00  0.00     0.085 H 
ATOM     34  N20 8IP d   1      71.284  46.334   3.572  0.00  0.00    -0.272 NA
ATOM     35  H15 8IP d   1      72.517  44.901   2.698  0.00  0.00     0.114 H 
ATOM     36  C21 8IP d   1      71.016  46.994   4.709  0.00  0.00     0.012 A 
ATOM     37  H16 8IP d   1      70.175  47.678   4.714  0.00  0.00     0.116 H 
ENDBRANCH   5  28
TORSDOF 5
