REMARK  7 active torsions:
REMARK  status: ('A' for Active; 'I' for Inactive)
REMARK    1  A    between atoms: C1_1  and  O2_2 
REMARK    2  A    between atoms: O2_2  and  C3_3 
REMARK    3  A    between atoms: C7_7  and  C9_9 
REMARK    4  A    between atoms: C13_13  and  C14_14 
REMARK    5  A    between atoms: C14_14  and  N15_15 
REMARK    6  A    between atoms: N15_15  and  C16_16 
REMARK    7  A    between atoms: C21_21  and  N22_22 
ROOT
ATOM      1  C9  9IP d   1      71.227  47.623   7.226  0.00  0.00    -0.024 A 
ATOM      2  C10 9IP d   1      72.237  47.984   8.109  0.00  0.00    -0.072 A 
ATOM      3  C11 9IP d   1      71.946  48.671   9.266  0.00  0.00    -0.082 A 
ATOM      4  C12 9IP d   1      70.640  48.997   9.573  0.00  0.00    -0.075 A 
ATOM      5  C13 9IP d   1      69.601  48.631   8.730  0.00  0.00    -0.040 A 
ATOM      6  C23 9IP d   1      69.905  47.937   7.556  0.00  0.00    -0.065 A 
ATOM      7  H7  9IP d   1      73.265  47.722   7.885  0.00  0.00     0.084 H 
ATOM      8  H8  9IP d   1      72.746  48.957   9.939  0.00  0.00     0.083 H 
ATOM      9  H9  9IP d   1      70.424  49.545  10.483  0.00  0.00     0.084 H 
ATOM     10  H18 9IP d   1      69.103  47.637   6.891  0.00  0.00     0.085 H 
ENDROOT
BRANCH   5  11
ATOM     11  C14 9IP d   1      68.181  48.991   9.097  0.00  0.00     0.017 C 
ATOM     12  H10 9IP d   1      68.086  50.086   9.044  0.00  0.00     0.071 H 
ATOM     13  H11 9IP d   1      68.004  48.657  10.130  0.00  0.00     0.071 H 
BRANCH  11  14
ATOM     14  N15 9IP d   1      67.140  48.409   8.253  0.00  0.00    -0.383 N 
ATOM     15  H12 9IP d   1      66.664  49.034   7.587  0.00  0.00     0.160 HD
BRANCH  14  16
ATOM     16  C16 9IP d   1      66.728  47.033   8.280  0.00  0.00     0.074 A 
ATOM     17  C17 9IP d   1      67.337  46.116   9.130  0.00  0.00    -0.052 A 
ATOM     18  C18 9IP d   1      66.943  44.793   9.118  0.00  0.00    -0.066 A 
ATOM     19  H13 9IP d   1      68.126  46.442   9.806  0.00  0.00     0.087 H 
ATOM     20  C19 9IP d   1      65.921  44.388   8.281  0.00  0.00    -0.021 A 
ATOM     21  H14 9IP d   1      67.436  44.071   9.767  0.00  0.00     0.085 H 
ATOM     22  N20 9IP d   1      65.314  45.257   7.454  0.00  0.00    -0.349 N 
ATOM     23  H15 9IP d   1      65.602  43.347   8.291  0.00  0.00     0.111 H 
ATOM     24  C21 9IP d   1      65.691  46.575   7.418  0.00  0.00     0.146 A 
ATOM     25  H16 9IP d   1      64.556  44.928   6.839  0.00  0.00     0.167 HD
BRANCH  24  26
ATOM     26  N22 9IP d   1      65.030  47.390   6.580  0.00  0.00    -0.282 NA
ATOM     27  H17 9IP d   1      65.278  48.365   6.525  0.00  0.00     0.188 HD
ENDBRANCH  24  26
ENDBRANCH  14  16
ENDBRANCH  11  14
ENDBRANCH   5  11
BRANCH   1  28
ATOM     28  C7  9IP d   1      71.548  46.823   6.010  0.00  0.00    -0.006 A 
ATOM     29  C6  9IP d   1      72.573  45.877   6.027  0.00  0.00     0.013 A 
ATOM     30  N5  9IP d   1      72.898  45.102   4.986  0.00  0.00    -0.269 NA
ATOM     31  H5  9IP d   1      73.143  45.763   6.942  0.00  0.00     0.116 H 
ATOM     32  C4  9IP d   1      72.161  45.230   3.881  0.00  0.00     0.034 A 
ATOM     33  C3  9IP d   1      71.119  46.140   3.751  0.00  0.00     0.086 A 
ATOM     34  H4  9IP d   1      72.388  44.588   3.038  0.00  0.00     0.119 H 
ATOM     35  C8  9IP d   1      70.799  46.931   4.846  0.00  0.00    -0.037 A 
ATOM     36  H6  9IP d   1      69.970  47.628   4.793  0.00  0.00     0.089 H 
BRANCH  33  37
ATOM     37  O2  9IP d   1      70.322  46.301   2.647  0.00  0.00    -0.354 OA
BRANCH  37  38
ATOM     38  C1  9IP d   1      70.346  45.265   1.651  0.00  0.00     0.010 C 
ATOM     39  H1  9IP d   1      69.663  45.529   0.831  0.00  0.00     0.066 H 
ATOM     40  H2  9IP d   1      70.026  44.315   2.103  0.00  0.00     0.066 H 
ATOM     41  H3  9IP d   1      71.368  45.158   1.257  0.00  0.00     0.066 H 
ENDBRANCH  37  38
ENDBRANCH  33  37
ENDBRANCH   1  28
TORSDOF 7
