REMARK  5 active torsions:
REMARK  status: ('A' for Active; 'I' for Inactive)
REMARK    1  A    between atoms: N1_1  and  C2_2 
REMARK    2  A    between atoms: C7_7  and  N8_8 
REMARK    3  A    between atoms: N8_8  and  C9_9 
REMARK    4  A    between atoms: C9_9  and  C10_10 
REMARK    5  A    between atoms: C14_14  and  C16_16 
ROOT
ATOM      1  C10 IP6 d   1      69.107  50.154   9.997  0.00  0.00    -0.040 A 
ATOM      2  C11 IP6 d   1      69.546  49.920  11.302  0.00  0.00    -0.075 A 
ATOM      3  C12 IP6 d   1      70.779  49.326  11.512  0.00  0.00    -0.082 A 
ATOM      4  C13 IP6 d   1      71.579  48.959  10.428  0.00  0.00    -0.072 A 
ATOM      5  C14 IP6 d   1      71.157  49.200   9.110  0.00  0.00    -0.025 A 
ATOM      6  C15 IP6 d   1      69.900  49.789   8.899  0.00  0.00    -0.065 A 
ATOM      7  H9  IP6 d   1      68.925  50.202  12.145  0.00  0.00     0.084 H 
ATOM      8  H10 IP6 d   1      71.125  49.145  12.523  0.00  0.00     0.083 H 
ATOM      9  H11 IP6 d   1      72.537  48.483  10.605  0.00  0.00     0.084 H 
ATOM     10  H12 IP6 d   1      69.543  49.961   7.890  0.00  0.00     0.085 H 
ENDROOT
BRANCH   1  11
ATOM     11  C9  IP6 d   1      67.744  50.800   9.795  0.00  0.00     0.017 C 
ATOM     12  H7  IP6 d   1      67.159  50.716  10.723  0.00  0.00     0.071 H 
ATOM     13  H8  IP6 d   1      67.877  51.862   9.540  0.00  0.00     0.071 H 
BRANCH  11  14
ATOM     14  N8  IP6 d   1      67.027  50.118   8.699  0.00  0.00    -0.383 N 
ATOM     15  H6  IP6 d   1      67.014  50.545   7.762  0.00  0.00     0.160 HD
BRANCH  14  16
ATOM     16  C7  IP6 d   1      66.357  48.890   8.910  0.00  0.00     0.074 A 
ATOM     17  C2  IP6 d   1      65.776  48.196   7.833  0.00  0.00     0.147 A 
ATOM     18  N3  IP6 d   1      65.148  47.039   8.037  0.00  0.00    -0.241 NA
ATOM     19  C4  IP6 d   1      65.047  46.500   9.242  0.00  0.00     0.005 A 
ATOM     20  C5  IP6 d   1      65.592  47.118  10.353  0.00  0.00    -0.064 A 
ATOM     21  H3  IP6 d   1      64.527  45.556   9.360  0.00  0.00     0.114 H 
ATOM     22  C6  IP6 d   1      66.257  48.326  10.185  0.00  0.00    -0.052 A 
ATOM     23  H4  IP6 d   1      65.502  46.669  11.335  0.00  0.00     0.085 H 
ATOM     24  H5  IP6 d   1      66.696  48.829  11.039  0.00  0.00     0.087 H 
BRANCH  17  25
ATOM     25  N1  IP6 d   1      65.861  48.717   6.544  0.00  0.00    -0.382 N 
ATOM     26  H1  IP6 d   1      66.346  49.611   6.381  0.00  0.00     0.157 HD
ATOM     27  H2  IP6 d   1      65.439  48.208   5.754  0.00  0.00     0.157 HD
ENDBRANCH  17  25
ENDBRANCH  14  16
ENDBRANCH  11  14
ENDBRANCH   1  11
BRANCH   5  28
ATOM     28  C16 IP6 d   1      72.031  48.784   7.984  0.00  0.00    -0.024 A 
ATOM     29  C17 IP6 d   1      73.438  48.823   8.125  0.00  0.00    -0.071 A 
ATOM     30  C18 IP6 d   1      74.253  48.418   7.092  0.00  0.00    -0.070 A 
ATOM     31  H13 IP6 d   1      73.877  49.174   9.052  0.00  0.00     0.084 H 
ATOM     32  C19 IP6 d   1      73.695  47.950   5.881  0.00  0.00    -0.008 A 
ATOM     33  H14 IP6 d   1      75.330  48.458   7.208  0.00  0.00     0.084 H 
ATOM     34  C20 IP6 d   1      74.249  47.455   4.605  0.00  0.00    -0.056 A 
ATOM     35  C23 IP6 d   1      72.278  47.879   5.725  0.00  0.00     0.043 A 
ATOM     36  C21 IP6 d   1      73.211  47.131   3.796  0.00  0.00    -0.022 A 
ATOM     37  H15 IP6 d   1      75.306  47.366   4.357  0.00  0.00     0.086 H 
ATOM     38  N22 IP6 d   1      72.025  47.384   4.440  0.00  0.00    -0.365 N 
ATOM     39  H16 IP6 d   1      73.304  46.730   2.788  0.00  0.00     0.111 H 
ATOM     40  H17 IP6 d   1      71.089  47.232   4.038  0.00  0.00     0.165 HD
ATOM     41  C24 IP6 d   1      71.456  48.298   6.796  0.00  0.00    -0.046 A 
ATOM     42  H18 IP6 d   1      70.377  48.245   6.701  0.00  0.00     0.088 H 
ENDBRANCH   5  28
TORSDOF 5
