REMARK  8 active torsions:
REMARK  status: ('A' for Active; 'I' for Inactive)
REMARK    1  A    between atoms: N1_1  and  C2_2 
REMARK    2  A    between atoms: C7_7  and  N8_8 
REMARK    3  A    between atoms: N8_8  and  C9_9 
REMARK    4  A    between atoms: C9_9  and  C10_10 
REMARK    5  A    between atoms: C12_12  and  C24_24 
REMARK    6  A    between atoms: C15_15  and  O16_16 
REMARK    7  A    between atoms: O16_16  and  C17_17 
REMARK    8  A    between atoms: C17_17  and  C18_18 
ROOT
ATOM      1  C10 IP7 d   1      68.854  50.056   9.763  0.00  0.00    -0.006 A 
ATOM      2  C11 IP7 d   1      69.779  49.724   8.784  0.00  0.00    -0.062 A 
ATOM      3  C12 IP7 d   1      70.990  49.120   9.136  0.00  0.00    -0.025 A 
ATOM      4  C13 IP7 d   1      71.279  48.826  10.491  0.00  0.00    -0.070 A 
ATOM      5  C14 IP7 d   1      70.351  49.147  11.476  0.00  0.00    -0.049 A 
ATOM      6  C15 IP7 d   1      69.136  49.763  11.122  0.00  0.00     0.077 A 
ATOM      7  H9  IP7 d   1      69.562  49.934   7.743  0.00  0.00     0.085 H 
ATOM      8  H10 IP7 d   1      72.217  48.354  10.759  0.00  0.00     0.085 H 
ATOM      9  H11 IP7 d   1      70.563  48.923  12.515  0.00  0.00     0.087 H 
ENDROOT
BRANCH   1  10
ATOM     10  C9  IP7 d   1      67.559  50.732   9.344  0.00  0.00     0.019 C 
ATOM     11  H7  IP7 d   1      66.867  50.717  10.199  0.00  0.00     0.071 H 
ATOM     12  H8  IP7 d   1      67.783  51.774   9.072  0.00  0.00     0.071 H 
BRANCH  10  13
ATOM     13  N8  IP7 d   1      66.901  50.087   8.203  0.00  0.00    -0.383 N 
ATOM     14  H6  IP7 d   1      66.916  50.545   7.281  0.00  0.00     0.160 HD
BRANCH  13  15
ATOM     15  C7  IP7 d   1      66.247  48.845   8.354  0.00  0.00     0.074 A 
ATOM     16  C2  IP7 d   1      65.828  48.107   7.225  0.00  0.00     0.147 A 
ATOM     17  N3  IP7 d   1      65.229  46.925   7.377  0.00  0.00    -0.241 NA
ATOM     18  C4  IP7 d   1      65.012  46.385   8.574  0.00  0.00     0.005 A 
ATOM     19  C5  IP7 d   1      65.399  47.046   9.730  0.00  0.00    -0.064 A 
ATOM     20  H3  IP7 d   1      64.528  45.418   8.646  0.00  0.00     0.114 H 
ATOM     21  C6  IP7 d   1      66.028  48.285   9.622  0.00  0.00    -0.052 A 
ATOM     22  H4  IP7 d   1      65.215  46.605  10.703  0.00  0.00     0.085 H 
ATOM     23  H5  IP7 d   1      66.347  48.814  10.513  0.00  0.00     0.087 H 
BRANCH  16  24
ATOM     24  N1  IP7 d   1      66.036  48.611   5.949  0.00  0.00    -0.382 N 
ATOM     25  H1  IP7 d   1      66.498  49.523   5.824  0.00  0.00     0.157 HD
ATOM     26  H2  IP7 d   1      65.728  48.073   5.126  0.00  0.00     0.157 HD
ENDBRANCH  16  24
ENDBRANCH  13  15
ENDBRANCH  10  13
ENDBRANCH   1  10
BRANCH   6  27
ATOM     27  O16 IP7 d   1      68.238  50.074  12.109  0.00  0.00    -0.345 OA
BRANCH  27  28
ATOM     28  C17 IP7 d   1      68.589  51.346  12.668  0.00  0.00     0.066 C 
ATOM     29  H12 IP7 d   1      69.650  51.557  12.467  0.00  0.00     0.084 H 
ATOM     30  H13 IP7 d   1      68.418  51.331  13.755  0.00  0.00     0.084 H 
BRANCH  28  31
ATOM     31  C18 IP7 d   1      67.732  52.416  12.036  0.00  0.00     0.058 A 
ATOM     32  C19 IP7 d   1      66.380  52.519  12.387  0.00  0.00    -0.057 A 
ATOM     33  C20 IP7 d   1      65.584  53.511  11.802  0.00  0.00    -0.080 A 
ATOM     34  H14 IP7 d   1      65.952  51.833  13.109  0.00  0.00     0.086 H 
ATOM     35  C21 IP7 d   1      66.209  54.367  10.891  0.00  0.00    -0.066 A 
ATOM     36  H15 IP7 d   1      64.532  53.611  12.044  0.00  0.00     0.083 H 
ATOM     37  C22 IP7 d   1      67.555  54.212  10.574  0.00  0.00     0.003 A 
ATOM     38  H16 IP7 d   1      65.638  55.162  10.425  0.00  0.00     0.085 H 
ATOM     39  N23 IP7 d   1      68.268  53.247  11.142  0.00  0.00    -0.263 NA
ATOM     40  H17 IP7 d   1      68.023  54.881   9.861  0.00  0.00     0.114 H 
ENDBRANCH  28  31
ENDBRANCH  27  28
ENDBRANCH   6  27
BRANCH   3  41
ATOM     41  C24 IP7 d   1      71.947  48.746   8.074  0.00  0.00    -0.024 A 
ATOM     42  C25 IP7 d   1      73.339  48.844   8.279  0.00  0.00    -0.071 A 
ATOM     43  C26 IP7 d   1      74.201  48.447   7.289  0.00  0.00    -0.070 A 
ATOM     44  H18 IP7 d   1      73.726  49.231   9.215  0.00  0.00     0.084 H 
ATOM     45  C27 IP7 d   1      73.690  47.940   6.073  0.00  0.00    -0.008 A 
ATOM     46  H19 IP7 d   1      75.272  48.522   7.439  0.00  0.00     0.084 H 
ATOM     47  C28 IP7 d   1      74.293  47.445   4.841  0.00  0.00    -0.056 A 
ATOM     48  C31 IP7 d   1      72.285  47.809   5.870  0.00  0.00     0.043 A 
ATOM     49  C29 IP7 d   1      73.302  47.069   4.012  0.00  0.00    -0.022 A 
ATOM     50  H20 IP7 d   1      75.360  47.389   4.629  0.00  0.00     0.086 H 
ATOM     51  N30 IP7 d   1      72.092  47.282   4.589  0.00  0.00    -0.365 N 
ATOM     52  H21 IP7 d   1      73.450  46.652   3.017  0.00  0.00     0.111 H 
ATOM     53  H22 IP7 d   1      71.179  47.087   4.154  0.00  0.00     0.165 HD
ATOM     54  C32 IP7 d   1      71.423  48.212   6.900  0.00  0.00    -0.046 A 
ATOM     55  H23 IP7 d   1      70.350  48.108   6.782  0.00  0.00     0.088 H 
ENDBRANCH   3  41
TORSDOF 8
