REMARK  7 active torsions:
REMARK  status: ('A' for Active; 'I' for Inactive)
REMARK    1  A    between atoms: C9_10  and  C11_11 
REMARK    2  A    between atoms: C11_11  and  CG_12 
REMARK    3  A    between atoms: CG_12  and  CD_13 
REMARK    4  A    between atoms: CG_12  and  CB_16 
REMARK    5  A    between atoms: CB_16  and  CA_17 
REMARK    6  A    between atoms: CA_17  and  N_18 
REMARK    7  A    between atoms: CA_17  and  C_19 
ROOT
ATOM      1  C11 NHL d   1      37.887  33.785  70.244  0.00  0.00    -0.028 C 
ATOM      2  H8  NHL d   1      38.675  33.125  69.853  0.00  0.00     0.041 H 
ATOM      3  H9  NHL d   1      37.958  33.831  71.341  0.00  0.00     0.041 H 
ENDROOT
BRANCH   1   4
ATOM      4  C9  NHL d   1      36.517  33.220  69.852  0.00  0.00    -0.056 A 
ATOM      5  C8  NHL d   1      36.247  32.894  68.470  0.00  0.00    -0.076 A 
ATOM      6  C7  NHL d   1      34.978  32.374  68.082  0.00  0.00    -0.072 A 
ATOM      7  H1  NHL d   1      37.017  33.046  67.722  0.00  0.00     0.084 H 
ATOM      8  C3  NHL d   1      33.961  32.166  69.054  0.00  0.00    -0.026 A 
ATOM      9  H2  NHL d   1      34.787  32.136  67.042  0.00  0.00     0.084 H 
ATOM     10  C2  NHL d   1      32.694  31.649  68.663  0.00  0.00    -0.072 A 
ATOM     11  C4  NHL d   1      34.226  32.486  70.454  0.00  0.00    -0.025 A 
ATOM     12  C1  NHL d   1      31.682  31.444  69.636  0.00  0.00    -0.082 A 
ATOM     13  H3  NHL d   1      32.502  31.412  67.623  0.00  0.00     0.084 H 
ATOM     14  C6  NHL d   1      31.931  31.755  71.010  0.00  0.00    -0.082 A 
ATOM     15  H4  NHL d   1      30.717  31.050  69.337  0.00  0.00     0.083 H 
ATOM     16  C5  NHL d   1      33.200  32.275  71.419  0.00  0.00    -0.072 A 
ATOM     17  H5  NHL d   1      31.152  31.596  71.747  0.00  0.00     0.083 H 
ATOM     18  H6  NHL d   1      33.380  32.508  72.462  0.00  0.00     0.084 H 
ATOM     19  C10 NHL d   1      35.500  33.008  70.841  0.00  0.00    -0.066 A 
ATOM     20  H7  NHL d   1      35.697  33.243  71.881  0.00  0.00     0.085 H 
ENDBRANCH   1   4
BRANCH   1  21
ATOM     21  CG  NHL d   1      38.084  35.225  69.656  0.00  0.00     0.036 C 
ATOM     22  H10 NHL d   1      37.293  35.414  68.915  0.00  0.00     0.057 H 
BRANCH  21  23
ATOM     23  CD  NHL d   1      39.453  35.325  68.952  0.00  0.00     0.177 C 
ATOM     24  OE2 NHL d   1      39.511  35.299  67.619  0.00  0.00    -0.648 OA
ATOM     25  OE1 NHL d   1      40.510  35.434  69.583  0.00  0.00    -0.648 OA
ENDBRANCH  21  23
BRANCH  21  26
ATOM     26  CB  NHL d   1      37.971  36.302  70.797  0.00  0.00    -0.016 C 
ATOM     27  H11 NHL d   1      38.739  36.064  71.547  0.00  0.00     0.038 H 
ATOM     28  H12 NHL d   1      36.973  36.196  71.248  0.00  0.00     0.038 H 
BRANCH  26  29
ATOM     29  CA  NHL d   1      38.147  37.796  70.417  0.00  0.00     0.183 C 
ATOM     30  H13 NHL d   1      39.199  37.984  70.155  0.00  0.00     0.101 H 
BRANCH  29  31
ATOM     31  N   NHL d   1      37.292  38.122  69.229  0.00  0.00    -0.065 N 
ATOM     32  H14 NHL d   1      37.410  39.093  68.987  0.00  0.00     0.275 HD
ATOM     33  H15 NHL d   1      36.325  37.947  69.453  0.00  0.00     0.275 HD
ATOM     34  H16 NHL d   1      37.566  37.545  68.449  0.00  0.00     0.275 HD
ENDBRANCH  29  31
BRANCH  29  35
ATOM     35  C   NHL d   1      37.782  38.640  71.625  0.00  0.00     0.204 C 
ATOM     36  OXT NHL d   1      38.512  38.726  72.589  0.00  0.00    -0.646 OA
ATOM     37  O   NHL d   1      36.611  39.278  71.589  0.00  0.00    -0.646 OA
ENDBRANCH  29  35
ENDBRANCH  26  29
ENDBRANCH  21  26
ENDBRANCH   1  21
TORSDOF 7
