REMARK WARNING: 32 MAX_TORS EXCEEDED!!!
REMARK  47 active torsions:
REMARK  status: ('A' for Active; 'I' for Inactive)
REMARK    1  A    between atoms: C_1  and  CH3_3 
REMARK       I    between atoms: C_1  and  N_4 
REMARK    2  A    between atoms: N_4  and  CA_5 
REMARK    3  A    between atoms: CA_5  and  C_6 
REMARK    4  A    between atoms: CA_5  and  CB_8 
REMARK       I    between atoms: C_6  and  N_14 
REMARK    5  A    between atoms: CB_8  and  CG_9 
REMARK    6  A    between atoms: N_14  and  CA_15 
REMARK    7  A    between atoms: CA_15  and  C_16 
REMARK    8  A    between atoms: CA_15  and  CB_18 
REMARK       I    between atoms: C_16  and  N_20 
REMARK    9  A    between atoms: CB_18  and  OG_19 
REMARK   10  A    between atoms: N_20  and  CA_21 
REMARK   11  A    between atoms: CA_21  and  C_22 
REMARK   12  A    between atoms: CA_21  and  CB_24 
REMARK       I    between atoms: C_22  and  N_29 
REMARK   13  A    between atoms: CB_24  and  CG_25 
REMARK   14  A    between atoms: CG_25  and  CD_26 
REMARK   15  A    between atoms: CD_26  and  CE_27 
REMARK   16  A    between atoms: CE_27  and  NZ_28 
REMARK   17  A    between atoms: N_29  and  CA_30 
REMARK   18  A    between atoms: CA_30  and  C_31 
REMARK   19  A    between atoms: CA_30  and  CB_33 
REMARK       I    between atoms: C_31  and  N_41 
REMARK   20  A    between atoms: CB_33  and  CG_34 
REMARK   21  A    between atoms: CZ_39  and  OH_40 
REMARK   22  A    between atoms: CA_42  and  C_43 
REMARK       I    between atoms: C_43  and  N_48 
REMARK   23  A    between atoms: N_48  and  CA_49 
REMARK   24  A    between atoms: CA_49  and  C_50 
REMARK   25  A    between atoms: CA_49  and  CB_52 
REMARK       I    between atoms: C_50  and  N_56 
REMARK   26  A    between atoms: CB_52  and  CG_53 
REMARK   27  A    between atoms: CG_53  and  CD1_54 
REMARK   28  A    between atoms: CG_53  and  CD2_55 
REMARK   29  A    between atoms: CA_57  and  C_58 
REMARK       I    between atoms: C_58  and  N_63 
REMARK   30  A    between atoms: CA_64  and  C_65 
REMARK       I    between atoms: C_65  and  N_70 
REMARK   31  A    between atoms: N_70  and  CA_71 
REMARK   32  A    between atoms: CA_71  and  C_72 
REMARK   33  A    between atoms: CA_71  and  CB_74 
REMARK       I    between atoms: C_72  and  N_78 
REMARK   34  A    between atoms: CB_74  and  CG_75 
REMARK   35  A    between atoms: CG_75  and  CD1_76 
REMARK   36  A    between atoms: CG_75  and  CD2_77 
REMARK   37  A    between atoms: CA_79  and  C_80 
REMARK       I    between atoms: C_80  and  N_85 
REMARK   38  A    between atoms: N_85  and  CA_86 
REMARK   39  A    between atoms: CA_86  and  C_87 
REMARK   40  A    between atoms: CA_86  and  CB_89 
REMARK       I    between atoms: C_87  and  N_91 
REMARK   41  A    between atoms: CB_89  and  OG_90 
REMARK   42  A    between atoms: N_91  and  CA_92 
REMARK   43  A    between atoms: CA_92  and  C_93 
REMARK   44  A    between atoms: CA_92  and  CB_95 
REMARK       I    between atoms: C_93  and  N_99 
REMARK   45  A    between atoms: CB_95  and  CG_96 
REMARK   46  A    between atoms: CG_96  and  CD1_97 
REMARK   47  A    between atoms: CG_96  and  CD2_98 
ROOT
ATOM      1  CA  LEU d   1      36.172   1.335 -60.286  0.00  0.00     0.090 C 
ATOM      2  H46 LEU d   1      35.941   0.512 -59.594  0.00  0.00     0.087 H 
ENDROOT
BRANCH   1   3
ATOM      3  N   LEU d   1      36.784   0.708 -61.470  0.00  0.00    -0.346 N 
ATOM      4  C   PRO d   1      37.179   1.256 -62.628  0.00  0.00     0.241 C 
ATOM      5  O   PRO d   1      37.220   2.477 -62.810  0.00  0.00    -0.271 OA
ATOM      6  H45 LEU d   1      36.927  -0.279 -61.399  0.00  0.00     0.163 HD
BRANCH   4   7
ATOM      7  CA  PRO d   1      37.571   0.259 -63.750  0.00  0.00     0.091 C 
ATOM      8  N   PRO d   1      36.564  -0.791 -63.974  0.00  0.00    -0.337 N 
ATOM      9  C   TYR d   1      36.375  -1.864 -63.178  0.00  0.00     0.243 C 
ATOM     10  CD  PRO d   1      35.866  -0.539 -65.232  0.00  0.00    -0.001 C 
ATOM     11  O   TYR d   1      37.004  -2.010 -62.126  0.00  0.00    -0.271 OA
ATOM     12  CG  PRO d   1      36.352   0.822 -65.727  0.00  0.00    -0.048 C 
ATOM     13  H43 PRO d   1      34.779  -0.518 -65.067  0.00  0.00     0.064 H 
ATOM     14  H44 PRO d   1      36.110  -1.321 -65.966  0.00  0.00     0.064 H 
ATOM     15  CB  PRO d   1      37.754   0.908 -65.130  0.00  0.00    -0.036 C 
ATOM     16  H41 PRO d   1      36.385   0.857 -66.826  0.00  0.00     0.035 H 
ATOM     17  H42 PRO d   1      35.710   1.633 -65.353  0.00  0.00     0.035 H 
ATOM     18  H39 PRO d   1      38.480   0.349 -65.739  0.00  0.00     0.036 H 
ATOM     19  H40 PRO d   1      38.082   1.954 -65.037  0.00  0.00     0.036 H 
ATOM     20  H38 PRO d   1      38.519  -0.211 -63.449  0.00  0.00     0.087 H 
BRANCH   9  21
ATOM     21  CA  TYR d   1      35.288  -2.903 -63.526  0.00  0.00     0.093 C 
ATOM     22  H30 TYR d   1      35.210  -3.005 -64.618  0.00  0.00     0.088 H 
BRANCH  21  23
ATOM     23  N   TYR d   1      35.657  -4.200 -62.935  0.00  0.00    -0.346 N 
ATOM     24  C   LYS d   1      35.349  -5.412 -63.397  0.00  0.00     0.241 C 
ATOM     25  O   LYS d   1      34.719  -5.601 -64.437  0.00  0.00    -0.271 OA
ATOM     26  H29 TYR d   1      36.198  -4.168 -62.095  0.00  0.00     0.163 HD
BRANCH  24  27
ATOM     27  CA  LYS d   1      35.844  -6.612 -62.570  0.00  0.00     0.089 C 
ATOM     28  H17 LYS d   1      36.055  -7.420 -63.286  0.00  0.00     0.087 H 
BRANCH  27  29
ATOM     29  N   LYS d   1      37.078  -6.380 -61.792  0.00  0.00    -0.346 N 
ATOM     30  C   SER d   1      38.254  -5.912 -62.233  0.00  0.00     0.243 C 
ATOM     31  O   SER d   1      38.440  -5.590 -63.409  0.00  0.00    -0.271 OA
ATOM     32  H16 LYS d   1      37.030  -6.599 -60.817  0.00  0.00     0.163 HD
BRANCH  30  33
ATOM     33  CA  SER d   1      39.360  -5.885 -61.163  0.00  0.00     0.109 C 
ATOM     34  H12 SER d   1      39.130  -5.055 -60.479  0.00  0.00     0.090 H 
BRANCH  33  35
ATOM     35  N   SER d   1      39.348  -7.137 -60.377  0.00  0.00    -0.344 N 
ATOM     36  C   HIS d   1      39.530  -7.222 -59.057  0.00  0.00     0.241 C 
ATOM     37  O   HIS d   1      39.824  -6.236 -58.386  0.00  0.00    -0.271 OA
ATOM     38  H11 SER d   1      39.191  -7.990 -60.875  0.00  0.00     0.163 HD
BRANCH  36  39
ATOM     39  CA  HIS d   1      39.281  -8.600 -58.411  0.00  0.00     0.094 C 
ATOM     40  H5  HIS d   1      39.809  -9.360 -59.006  0.00  0.00     0.088 H 
BRANCH  39  41
ATOM     41  N   HIS d   1      39.771  -8.657 -57.029  0.00  0.00    -0.348 N 
ATOM     42  C   ACE d   1      40.348  -9.709 -56.452  0.00  0.00     0.214 C 
ATOM     43  O   ACE d   1      40.697 -10.717 -57.063  0.00  0.00    -0.274 OA
ATOM     44  H4  HIS d   1      39.662  -7.834 -56.472  0.00  0.00     0.163 HD
BRANCH  42  45
ATOM     45  CH3 ACE d   1      40.565  -9.612 -54.958  0.00  0.00    -0.003 C 
ATOM     46  H1  ACE d   1      40.191  -8.643 -54.595  0.00  0.00     0.040 H 
ATOM     47  H2  ACE d   1      41.639  -9.696 -54.737  0.00  0.00     0.040 H 
ATOM     48  H3  ACE d   1      40.023 -10.426 -54.455  0.00  0.00     0.040 H 
ENDBRANCH  42  45
ENDBRANCH  39  41
BRANCH  39  49
ATOM     49  CB  HIS d   1      37.767  -8.930 -58.396  0.00  0.00     0.002 C 
ATOM     50  H6  HIS d   1      37.327  -8.525 -59.319  0.00  0.00     0.046 H 
ATOM     51  H7  HIS d   1      37.323  -8.425 -57.526  0.00  0.00     0.046 H 
BRANCH  49  52
ATOM     52  CG  HIS d   1      37.399 -10.395 -58.315  0.00  0.00     0.030 A 
ATOM     53  ND1 HIS d   1      38.233 -11.482 -58.460  0.00  0.00    -0.353 N 
ATOM     54  CE1 HIS d   1      37.490 -12.600 -58.436  0.00  0.00     0.063 A 
ATOM     55  H8  HIS d   1      39.257 -11.443 -58.569  0.00  0.00     0.166 HD
ATOM     56  NE2 HIS d   1      36.191 -12.290 -58.286  0.00  0.00    -0.254 NA
ATOM     57  H10 HIS d   1      37.883 -13.612 -58.525  0.00  0.00     0.143 H 
ATOM     58  CD2 HIS d   1      36.128 -10.892 -58.200  0.00  0.00     0.025 A 
ATOM     59  H9  HIS d   1      35.223 -10.302 -58.065  0.00  0.00     0.117 H 
ENDBRANCH  49  52
ENDBRANCH  39  49
ENDBRANCH  36  39
ENDBRANCH  33  35
BRANCH  33  60
ATOM     60  CB  SER d   1      40.755  -5.632 -61.727  0.00  0.00     0.044 C 
ATOM     61  H13 SER d   1      40.894  -6.242 -62.631  0.00  0.00     0.077 H 
ATOM     62  H14 SER d   1      41.505  -5.915 -60.974  0.00  0.00     0.077 H 
BRANCH  60  63
ATOM     63  OG  SER d   1      40.924  -4.265 -62.059  0.00  0.00    -0.398 OA
ATOM     64  H15 SER d   1      40.280  -4.017 -62.712  0.00  0.00     0.209 HD
ENDBRANCH  60  63
ENDBRANCH  33  60
ENDBRANCH  30  33
ENDBRANCH  27  29
BRANCH  27  65
ATOM     65  CB  LYS d   1      34.764  -7.113 -61.588  0.00  0.00    -0.038 C 
ATOM     66  H18 LYS d   1      35.133  -8.029 -61.103  0.00  0.00     0.036 H 
ATOM     67  H19 LYS d   1      33.853  -7.342 -62.160  0.00  0.00     0.036 H 
BRANCH  65  68
ATOM     68  CG  LYS d   1      34.405  -6.088 -60.488  0.00  0.00    -0.061 C 
ATOM     69  H20 LYS d   1      33.709  -5.351 -60.914  0.00  0.00     0.033 H 
ATOM     70  H21 LYS d   1      35.328  -5.581 -60.172  0.00  0.00     0.033 H 
BRANCH  68  71
ATOM     71  CD  LYS d   1      33.749  -6.714 -59.252  0.00  0.00    -0.043 C 
ATOM     72  H22 LYS d   1      33.490  -5.913 -58.544  0.00  0.00     0.035 H 
ATOM     73  H23 LYS d   1      34.466  -7.402 -58.781  0.00  0.00     0.035 H 
BRANCH  71  74
ATOM     74  CE  LYS d   1      32.477  -7.491 -59.604  0.00  0.00     0.080 C 
ATOM     75  H24 LYS d   1      32.753  -8.428 -60.110  0.00  0.00     0.075 H 
ATOM     76  H25 LYS d   1      31.854  -6.882 -60.275  0.00  0.00     0.075 H 
BRANCH  74  77
ATOM     77  NZ  LYS d   1      31.713  -7.805 -58.381  0.00  0.00    -0.079 N 
ATOM     78  H26 LYS d   1      30.880  -8.316 -58.627  0.00  0.00     0.274 HD
ATOM     79  H27 LYS d   1      31.457  -6.948 -57.916  0.00  0.00     0.274 HD
ATOM     80  H28 LYS d   1      32.281  -8.365 -57.765  0.00  0.00     0.274 HD
ENDBRANCH  74  77
ENDBRANCH  71  74
ENDBRANCH  68  71
ENDBRANCH  65  68
ENDBRANCH  27  65
ENDBRANCH  24  27
ENDBRANCH  21  23
BRANCH  21  81
ATOM     81  CB  TYR d   1      33.932  -2.436 -62.953  0.00  0.00    -0.014 C 
ATOM     82  H31 TYR d   1      33.934  -1.336 -62.934  0.00  0.00     0.043 H 
ATOM     83  H32 TYR d   1      33.848  -2.820 -61.926  0.00  0.00     0.043 H 
BRANCH  81  84
ATOM     84  CG  TYR d   1      32.700  -2.889 -63.724  0.00  0.00    -0.056 A 
ATOM     85  CD1 TYR d   1      32.115  -4.146 -63.473  0.00  0.00    -0.074 A 
ATOM     86  CE1 TYR d   1      30.972  -4.557 -64.187  0.00  0.00    -0.051 A 
ATOM     87  H33 TYR d   1      32.547  -4.801 -62.725  0.00  0.00     0.084 H 
ATOM     88  CZ  TYR d   1      30.396  -3.699 -65.149  0.00  0.00     0.065 A 
ATOM     89  H35 TYR d   1      30.535  -5.531 -63.998  0.00  0.00     0.087 H 
ATOM     90  CE2 TYR d   1      30.969  -2.432 -65.388  0.00  0.00    -0.051 A 
ATOM     91  CD2 TYR d   1      32.118  -2.030 -64.679  0.00  0.00    -0.074 A 
ATOM     92  H36 TYR d   1      30.524  -1.766 -66.119  0.00  0.00     0.087 H 
ATOM     93  H34 TYR d   1      32.556  -1.057 -64.868  0.00  0.00     0.084 H 
BRANCH  88  94
ATOM     94  OH  TYR d   1      29.289  -4.083 -65.840  0.00  0.00    -0.361 OA
ATOM     95  H37 TYR d   1      29.031  -4.955 -65.564  0.00  0.00     0.217 HD
ENDBRANCH  88  94
ENDBRANCH  81  84
ENDBRANCH  21  81
ENDBRANCH   9  21
ENDBRANCH   4   7
ENDBRANCH   1   3
BRANCH   1  96
ATOM     96  C   LEU d   1      34.817   2.062 -60.531  0.00  0.00     0.243 C 
ATOM     97  O   LEU d   1      34.522   2.503 -61.647  0.00  0.00    -0.271 OA
ATOM     98  N   PRO d   1      33.964   2.180 -59.490  0.00  0.00    -0.337 N 
ATOM     99  CA  PRO d   1      32.709   2.926 -59.546  0.00  0.00     0.092 C 
ATOM    100  CD  PRO d   1      34.171   1.629 -58.168  0.00  0.00    -0.001 C 
ATOM    101  CB  PRO d   1      31.940   2.582 -58.267  0.00  0.00    -0.036 C 
ATOM    102  H56 PRO d   1      32.133   2.598 -60.424  0.00  0.00     0.087 H 
ATOM    103  CG  PRO d   1      32.922   1.898 -57.341  0.00  0.00    -0.048 C 
ATOM    104  H57 PRO d   1      31.103   1.907 -58.498  0.00  0.00     0.036 H 
ATOM    105  H58 PRO d   1      31.553   3.499 -57.799  0.00  0.00     0.036 H 
ATOM    106  H59 PRO d   1      32.500   0.953 -56.969  0.00  0.00     0.035 H 
ATOM    107  H60 PRO d   1      33.162   2.552 -56.490  0.00  0.00     0.035 H 
ATOM    108  H61 PRO d   1      35.041   2.109 -57.696  0.00  0.00     0.064 H 
ATOM    109  H62 PRO d   1      34.344   0.545 -58.239  0.00  0.00     0.064 H 
BRANCH  99 110
ATOM    110  C   PRO d   1      32.921   4.445 -59.645  0.00  0.00     0.243 C 
ATOM    111  O   PRO d   1      33.966   4.949 -59.215  0.00  0.00    -0.271 OA
ATOM    112  N   PRO d   1      31.917   5.197 -60.136  0.00  0.00    -0.337 N 
ATOM    113  CA  PRO d   1      31.958   6.653 -60.164  0.00  0.00     0.091 C 
ATOM    114  CD  PRO d   1      30.578   4.730 -60.502  0.00  0.00    -0.001 C 
ATOM    115  CB  PRO d   1      30.858   7.057 -61.148  0.00  0.00    -0.036 C 
ATOM    116  H63 PRO d   1      32.933   7.001 -60.535  0.00  0.00     0.087 H 
ATOM    117  CG  PRO d   1      29.804   5.955 -61.000  0.00  0.00    -0.048 C 
ATOM    118  H64 PRO d   1      31.247   7.090 -62.176  0.00  0.00     0.036 H 
ATOM    119  H65 PRO d   1      30.437   8.038 -60.883  0.00  0.00     0.036 H 
ATOM    120  H66 PRO d   1      29.327   5.744 -61.968  0.00  0.00     0.035 H 
ATOM    121  H67 PRO d   1      29.036   6.250 -60.270  0.00  0.00     0.035 H 
ATOM    122  H68 PRO d   1      30.076   4.295 -59.625  0.00  0.00     0.064 H 
ATOM    123  H69 PRO d   1      30.645   3.974 -61.299  0.00  0.00     0.064 H 
BRANCH 113 124
ATOM    124  C   PRO d   1      31.742   7.210 -58.759  0.00  0.00     0.241 C 
ATOM    125  O   PRO d   1      30.683   7.054 -58.146  0.00  0.00    -0.271 OA
ATOM    126  N   LEU d   1      32.792   7.868 -58.266  0.00  0.00    -0.346 N 
ATOM    127  H70 LEU d   1      33.633   7.874 -58.806  0.00  0.00     0.163 HD
BRANCH 126 128
ATOM    128  CA  LEU d   1      32.797   8.578 -56.996  0.00  0.00     0.090 C 
ATOM    129  H71 LEU d   1      32.672   7.843 -56.188  0.00  0.00     0.087 H 
BRANCH 128 130
ATOM    130  C   LEU d   1      31.648   9.609 -56.879  0.00  0.00     0.243 C 
ATOM    131  O   LEU d   1      31.143  10.098 -57.900  0.00  0.00    -0.271 OA
ATOM    132  N   PRO d   1      31.230   9.954 -55.644  0.00  0.00    -0.337 N 
ATOM    133  CA  PRO d   1      30.090  10.826 -55.397  0.00  0.00     0.091 C 
ATOM    134  CD  PRO d   1      31.866   9.606 -54.386  0.00  0.00    -0.001 C 
ATOM    135  CB  PRO d   1      29.734  10.642 -53.912  0.00  0.00    -0.036 C 
ATOM    136  H81 PRO d   1      29.244  10.490 -56.014  0.00  0.00     0.087 H 
ATOM    137  CG  PRO d   1      30.786   9.709 -53.332  0.00  0.00    -0.048 C 
ATOM    138  H82 PRO d   1      28.733  10.196 -53.813  0.00  0.00     0.036 H 
ATOM    139  H83 PRO d   1      29.757  11.611 -53.392  0.00  0.00     0.036 H 
ATOM    140  H84 PRO d   1      30.351   8.719 -53.130  0.00  0.00     0.035 H 
ATOM    141  H85 PRO d   1      31.197  10.126 -52.401  0.00  0.00     0.035 H 
ATOM    142  H86 PRO d   1      32.684  10.307 -54.164  0.00  0.00     0.064 H 
ATOM    143  H87 PRO d   1      32.262   8.581 -54.428  0.00  0.00     0.064 H 
BRANCH 133 144
ATOM    144  C   PRO d   1      30.371  12.298 -55.750  0.00  0.00     0.241 C 
ATOM    145  O   PRO d   1      31.469  12.687 -56.158  0.00  0.00    -0.271 OA
ATOM    146  N   SER d   1      29.353  13.136 -55.546  0.00  0.00    -0.344 N 
ATOM    147  H88 SER d   1      28.485  12.743 -55.243  0.00  0.00     0.163 HD
BRANCH 146 148
ATOM    148  CA  SER d   1      29.410  14.599 -55.733  0.00  0.00     0.109 C 
ATOM    149  H89 SER d   1      29.797  14.787 -56.745  0.00  0.00     0.090 H 
BRANCH 148 150
ATOM    150  C   SER d   1      30.331  15.334 -54.741  0.00  0.00     0.243 C 
ATOM    151  O   SER d   1      30.735  16.469 -55.008  0.00  0.00    -0.271 OA
ATOM    152  N   LEU d   1      30.671  14.696 -53.608  0.00  0.00    -0.346 N 
ATOM    153  H93 LEU d   1      30.354  13.752 -53.514  0.00  0.00     0.163 HD
BRANCH 152 154
ATOM    154  CA  LEU d   1      31.463  15.241 -52.489  0.00  0.00     0.089 C 
ATOM    155  H94 LEU d   1      31.401  14.498 -51.680  0.00  0.00     0.087 H 
BRANCH 154 156
ATOM    156  C   LEU d   1      30.903  16.557 -51.891  0.00  0.00     0.238 C 
ATOM    157  O   LEU d   1      31.621  17.329 -51.253  0.00  0.00    -0.271 OA
ATOM    158  N   NH2 d   1      29.618  16.844 -52.074  0.00  0.00    -0.368 N 
ATOM    159 4H10 NH2 d   1      29.235  17.688 -51.697  0.00  0.00     0.159 HD
ATOM    160 5H10 NH2 d   1      29.034  16.216 -52.589  0.00  0.00     0.159 HD
ENDBRANCH 154 156
BRANCH 154 161
ATOM    161  CB  LEU d   1      32.958  15.335 -52.881  0.00  0.00    -0.035 C 
ATOM    162  H95 LEU d   1      33.525  15.610 -51.979  0.00  0.00     0.037 H 
ATOM    163  H96 LEU d   1      33.058  16.130 -53.634  0.00  0.00     0.037 H 
BRANCH 161 164
ATOM    164  CG  LEU d   1      33.591  14.054 -53.462  0.00  0.00    -0.059 C 
ATOM    165  H97 LEU d   1      33.072  13.808 -54.400  0.00  0.00     0.038 H 
BRANCH 164 166
ATOM    166  CD1 LEU d   1      35.072  14.298 -53.754  0.00  0.00    -0.073 C 
ATOM    167  H98 LEU d   1      35.520  13.383 -54.168  0.00  0.00     0.028 H 
ATOM    168  H99 LEU d   1      35.590  14.570 -52.822  0.00  0.00     0.028 H 
ATOM    169 0H10 LEU d   1      35.172  15.117 -54.482  0.00  0.00     0.028 H 
ENDBRANCH 164 166
BRANCH 164 170
ATOM    170  CD2 LEU d   1      33.485  12.855 -52.517  0.00  0.00    -0.073 C 
ATOM    171 1H10 LEU d   1      32.426  12.659 -52.291  0.00  0.00     0.028 H 
ATOM    172 2H10 LEU d   1      34.024  13.075 -51.584  0.00  0.00     0.028 H 
ATOM    173 3H10 LEU d   1      33.928  11.970 -52.997  0.00  0.00     0.028 H 
ENDBRANCH 164 170
ENDBRANCH 161 164
ENDBRANCH 154 161
ENDBRANCH 152 154
ENDBRANCH 148 150
BRANCH 148 174
ATOM    174  CB  SER d   1      27.996  15.185 -55.635  0.00  0.00     0.044 C 
ATOM    175  H90 SER d   1      27.359  14.723 -56.403  0.00  0.00     0.077 H 
ATOM    176  H91 SER d   1      28.042  16.271 -55.801  0.00  0.00     0.077 H 
BRANCH 174 177
ATOM    177  OG  SER d   1      27.440  14.932 -54.353  0.00  0.00    -0.398 OA
ATOM    178  H92 SER d   1      26.566  15.301 -54.310  0.00  0.00     0.209 HD
ENDBRANCH 174 177
ENDBRANCH 148 174
ENDBRANCH 146 148
ENDBRANCH 133 144
ENDBRANCH 128 130
BRANCH 128 179
ATOM    179  CB  LEU d   1      34.161   9.257 -56.837  0.00  0.00    -0.035 C 
ATOM    180  H72 LEU d   1      34.059  10.026 -56.057  0.00  0.00     0.037 H 
ATOM    181  H73 LEU d   1      34.405   9.738 -57.796  0.00  0.00     0.037 H 
BRANCH 179 182
ATOM    182  CG  LEU d   1      35.349   8.364 -56.453  0.00  0.00    -0.059 C 
ATOM    183  H74 LEU d   1      35.544   7.653 -57.269  0.00  0.00     0.038 H 
BRANCH 182 184
ATOM    184  CD1 LEU d   1      36.589   9.224 -56.211  0.00  0.00    -0.073 C 
ATOM    185  H75 LEU d   1      37.436   8.578 -55.937  0.00  0.00     0.028 H 
ATOM    186  H76 LEU d   1      36.389   9.934 -55.394  0.00  0.00     0.028 H 
ATOM    187  H77 LEU d   1      36.834   9.780 -57.128  0.00  0.00     0.028 H 
ENDBRANCH 182 184
BRANCH 182 188
ATOM    188  CD2 LEU d   1      35.060   7.603 -55.175  0.00  0.00    -0.073 C 
ATOM    189  H78 LEU d   1      34.170   6.972 -55.317  0.00  0.00     0.028 H 
ATOM    190  H79 LEU d   1      34.878   8.316 -54.357  0.00  0.00     0.028 H 
ATOM    191  H80 LEU d   1      35.922   6.968 -54.923  0.00  0.00     0.028 H 
ENDBRANCH 182 188
ENDBRANCH 179 182
ENDBRANCH 128 179
ENDBRANCH 126 128
ENDBRANCH 113 124
ENDBRANCH  99 110
ENDBRANCH   1  96
BRANCH   1 192
ATOM    192  CB  LEU d   1      37.206   2.234 -59.572  0.00  0.00    -0.035 C 
ATOM    193  H47 LEU d   1      36.669   2.888 -58.869  0.00  0.00     0.037 H 
ATOM    194  H48 LEU d   1      37.712   2.849 -60.331  0.00  0.00     0.037 H 
BRANCH 192 195
ATOM    195  CG  LEU d   1      38.279   1.456 -58.785  0.00  0.00    -0.059 C 
ATOM    196  H49 LEU d   1      38.599   0.614 -59.416  0.00  0.00     0.038 H 
BRANCH 195 197
ATOM    197  CD1 LEU d   1      39.506   2.335 -58.545  0.00  0.00    -0.073 C 
ATOM    198  H50 LEU d   1      40.261   1.765 -57.983  0.00  0.00     0.028 H 
ATOM    199  H51 LEU d   1      39.213   3.224 -57.968  0.00  0.00     0.028 H 
ATOM    200  H52 LEU d   1      39.928   2.648 -59.512  0.00  0.00     0.028 H 
ENDBRANCH 195 197
BRANCH 195 201
ATOM    201  CD2 LEU d   1      37.737   0.855 -57.485  0.00  0.00    -0.073 C 
ATOM    202  H53 LEU d   1      36.858   0.233 -57.707  0.00  0.00     0.028 H 
ATOM    203  H54 LEU d   1      37.449   1.665 -56.799  0.00  0.00     0.028 H 
ATOM    204  H55 LEU d   1      38.515   0.236 -57.015  0.00  0.00     0.028 H 
ENDBRANCH 195 201
ENDBRANCH 192 195
ENDBRANCH   1 192
TORSDOF 47
