REMARK WARNING: 32 MAX_TORS EXCEEDED!!!
REMARK  36 active torsions:
REMARK  status: ('A' for Active; 'I' for Inactive)
REMARK    1  A    between atoms: CA_2  and  N_1 
REMARK    2  A    between atoms: CA_2  and  CB_5 
REMARK    3  A    between atoms: C_3  and  CA_2 
REMARK       I    between atoms: N_10  and  C_3 
REMARK    4  A    between atoms: CB_5  and  CG_6 
REMARK    5  A    between atoms: CG_6  and  CD_7 
REMARK       I    between atoms: CD_7  and  NE2_9 
REMARK    6  A    between atoms: CA_11  and  N_10 
REMARK    7  A    between atoms: CA_11  and  CB_14 
REMARK    8  A    between atoms: C_12  and  CA_11 
REMARK       I    between atoms: N_18  and  C_12 
REMARK    9  A    between atoms: CB_14  and  CG_15 
REMARK   10  A    between atoms: CG_15  and  CD1_16 
REMARK   11  A    between atoms: CG_15  and  CD2_17 
REMARK   12  A    between atoms: CA_19  and  N_18 
REMARK   13  A    between atoms: CA_19  and  CB_22 
REMARK   14  A    between atoms: C_20  and  CA_19 
REMARK       I    between atoms: N_24  and  C_20 
REMARK   15  A    between atoms: CB_22  and  OG_23 
REMARK   16  A    between atoms: C_26  and  CA_25 
REMARK       I    between atoms: N_31  and  C_26 
REMARK   17  A    between atoms: CA_32  and  N_31 
REMARK   18  A    between atoms: CA_32  and  CB_35 
REMARK   19  A    between atoms: C_33  and  CA_32 
REMARK       I    between atoms: N_42  and  C_33 
REMARK   20  A    between atoms: CB_35  and  CG_36 
REMARK   21  A    between atoms: C_44  and  CA_43 
REMARK       I    between atoms: N_49  and  C_44 
REMARK   22  A    between atoms: CA_50  and  N_49 
REMARK   23  A    between atoms: CA_50  and  CB_53 
REMARK   24  A    between atoms: C_51  and  CA_50 
REMARK       I    between atoms: N_60  and  C_51 
REMARK   25  A    between atoms: CB_53  and  CG_54 
REMARK   26  A    between atoms: CA_61  and  N_60 
REMARK   27  A    between atoms: CA_61  and  CB_64 
REMARK   28  A    between atoms: C_62  and  CA_61 
REMARK       I    between atoms: C_62  and  N_68 
REMARK   29  A    between atoms: CB_64  and  CG_65 
REMARK   30  A    between atoms: N_68  and  CA_69 
REMARK   31  A    between atoms: CA_69  and  CB_72 
REMARK   32  A    between atoms: CA_69  and  C_70 
REMARK   33  A    between atoms: C_70  and  O1_76 
REMARK   34  A    between atoms: CB_72  and  CG_73 
REMARK   35  A    between atoms: CG_73  and  CD1_74 
REMARK   36  A    between atoms: CG_73  and  CD2_75 
ROOT
ATOM      1  CA  PHE d   1     -15.016 -59.677  -3.335  0.00  0.00     0.093 C 
ATOM      2  H35 PHE d   1     -14.805 -58.993  -4.170  0.00  0.00     0.088 H 
ENDROOT
BRANCH   1   3
ATOM      3  N   PHE d   1     -15.567 -58.903  -2.232  0.00  0.00    -0.346 N 
ATOM      4  C   PRO d   1     -16.671 -58.166  -2.339  0.00  0.00     0.241 C 
ATOM      5  O   PRO d   1     -17.373 -58.117  -3.363  0.00  0.00    -0.271 OA
ATOM      6  H34 PHE d   1     -15.094 -58.926  -1.351  0.00  0.00     0.163 HD
BRANCH   4   7
ATOM      7  CA  PRO d   1     -17.061 -57.344  -1.113  0.00  0.00     0.091 C 
ATOM      8  CB  PRO d   1     -17.749 -58.222  -0.067  0.00  0.00    -0.036 C 
ATOM      9  CG  PRO d   1     -19.208 -58.122  -0.409  0.00  0.00    -0.048 C 
ATOM     10  H28 PRO d   1     -17.559 -57.843   0.948  0.00  0.00     0.036 H 
ATOM     11  H29 PRO d   1     -17.401 -59.263  -0.141  0.00  0.00     0.036 H 
ATOM     12  CD  PRO d   1     -19.375 -56.682  -0.801  0.00  0.00    -0.001 C 
ATOM     13  H30 PRO d   1     -19.463 -58.790  -1.245  0.00  0.00     0.035 H 
ATOM     14  H31 PRO d   1     -19.834 -58.368   0.461  0.00  0.00     0.035 H 
ATOM     15  N   PRO d   1     -18.100 -56.385  -1.480  0.00  0.00    -0.337 N 
ATOM     16  H32 PRO d   1     -20.228 -56.552  -1.483  0.00  0.00     0.064 H 
ATOM     17  H33 PRO d   1     -19.512 -56.043   0.084  0.00  0.00     0.064 H 
ATOM     18  C   SER d   1     -17.790 -55.412  -2.360  0.00  0.00     0.245 C 
ATOM     19  O   SER d   1     -16.641 -55.230  -2.765  0.00  0.00    -0.271 OA
ATOM     20  H27 PRO d   1     -16.175 -56.843  -0.696  0.00  0.00     0.087 H 
BRANCH  18  21
ATOM     21  CA  SER d   1     -18.932 -54.534  -2.880  0.00  0.00     0.109 C 
ATOM     22  H23 SER d   1     -19.727 -54.490  -2.121  0.00  0.00     0.090 H 
BRANCH  21  23
ATOM     23  N   SER d   1     -18.440 -53.185  -3.135  0.00  0.00    -0.344 N 
ATOM     24  C   LEU d   1     -17.920 -52.414  -2.184  0.00  0.00     0.241 C 
ATOM     25  O   LEU d   1     -17.906 -52.731  -0.994  0.00  0.00    -0.271 OA
ATOM     26  H22 SER d   1     -18.496 -52.824  -4.066  0.00  0.00     0.163 HD
BRANCH  24  27
ATOM     27  CA  LEU d   1     -17.366 -51.071  -2.643  0.00  0.00     0.089 C 
ATOM     28  H12 LEU d   1     -18.181 -50.520  -3.135  0.00  0.00     0.087 H 
BRANCH  27  29
ATOM     29  N   LEU d   1     -16.879 -50.275  -1.540  0.00  0.00    -0.346 N 
ATOM     30  C   GLN d   1     -17.627 -49.455  -0.818  0.00  0.00     0.249 C 
ATOM     31  O   GLN d   1     -18.848 -49.365  -0.930  0.00  0.00    -0.271 OA
ATOM     32  H11 LEU d   1     -15.910 -50.349  -1.306  0.00  0.00     0.163 HD
BRANCH  30  33
ATOM     33  CA  GLN d   1     -16.838 -48.647   0.221  0.00  0.00     0.176 C 
ATOM     34  H4  GLN d   1     -15.796 -48.993   0.155  0.00  0.00     0.099 H 
BRANCH  33  35
ATOM     35  N   GLN d   1     -16.800 -47.167  -0.001  0.00  0.00    -0.066 N 
ATOM     36  H1  GLN d   1     -16.261 -46.731   0.731  0.00  0.00     0.275 HD
ATOM     37  H2  GLN d   1     -17.739 -46.801   0.010  0.00  0.00     0.275 HD
ATOM     38  H3  GLN d   1     -16.374 -46.972  -0.894  0.00  0.00     0.275 HD
ENDBRANCH  33  35
BRANCH  33  39
ATOM     39  CB  GLN d   1     -17.334 -48.973   1.617  0.00  0.00    -0.022 C 
ATOM     40  H5  GLN d   1     -17.530 -50.054   1.668  0.00  0.00     0.037 H 
ATOM     41  H6  GLN d   1     -18.271 -48.422   1.785  0.00  0.00     0.037 H 
BRANCH  39  42
ATOM     42  CG  GLN d   1     -16.367 -48.614   2.733  0.00  0.00     0.011 C 
ATOM     43  H7  GLN d   1     -16.765 -49.008   3.680  0.00  0.00     0.047 H 
ATOM     44  H8  GLN d   1     -16.295 -47.518   2.794  0.00  0.00     0.047 H 
BRANCH  42  45
ATOM     45  CD  GLN d   1     -14.990 -49.170   2.527  0.00  0.00     0.215 C 
ATOM     46  NE2 GLN d   1     -14.630 -50.184   3.326  0.00  0.00    -0.370 N 
ATOM     47  H9  GLN d   1     -13.723 -50.595   3.234  0.00  0.00     0.159 HD
ATOM     48  H10 GLN d   1     -15.268 -50.529   4.014  0.00  0.00     0.159 HD
ATOM     49  OE1 GLN d   1     -14.242 -48.686   1.668  0.00  0.00    -0.274 OA
ENDBRANCH  42  45
ENDBRANCH  39  42
ENDBRANCH  33  39
ENDBRANCH  30  33
ENDBRANCH  27  29
BRANCH  27  50
ATOM     50  CB  LEU d   1     -16.227 -51.257  -3.647  0.00  0.00    -0.035 C 
ATOM     51  H13 LEU d   1     -16.483 -52.122  -4.276  0.00  0.00     0.037 H 
ATOM     52  H14 LEU d   1     -15.316 -51.478  -3.072  0.00  0.00     0.037 H 
BRANCH  50  53
ATOM     53  CG  LEU d   1     -15.900 -50.082  -4.592  0.00  0.00    -0.059 C 
ATOM     54  H15 LEU d   1     -16.299 -50.360  -5.579  0.00  0.00     0.038 H 
BRANCH  53  55
ATOM     55  CD1 LEU d   1     -16.576 -48.762  -4.207  0.00  0.00    -0.073 C 
ATOM     56  H16 LEU d   1     -16.292 -47.981  -4.928  0.00  0.00     0.028 H 
ATOM     57  H17 LEU d   1     -16.253 -48.465  -3.198  0.00  0.00     0.028 H 
ATOM     58  H18 LEU d   1     -17.668 -48.892  -4.219  0.00  0.00     0.028 H 
ENDBRANCH  53  55
BRANCH  53  59
ATOM     59  CD2 LEU d   1     -14.395 -49.895  -4.758  0.00  0.00    -0.073 C 
ATOM     60  H19 LEU d   1     -13.934 -50.855  -5.034  0.00  0.00     0.028 H 
ATOM     61  H20 LEU d   1     -13.963 -49.540  -3.811  0.00  0.00     0.028 H 
ATOM     62  H21 LEU d   1     -14.202 -49.155  -5.549  0.00  0.00     0.028 H 
ENDBRANCH  53  59
ENDBRANCH  50  53
ENDBRANCH  27  50
ENDBRANCH  24  27
ENDBRANCH  21  23
BRANCH  21  63
ATOM     63  CB  SER d   1     -19.505 -55.131  -4.174  0.00  0.00     0.044 C 
ATOM     64  H24 SER d   1     -18.831 -54.879  -5.006  0.00  0.00     0.077 H 
ATOM     65  H25 SER d   1     -20.495 -54.687  -4.357  0.00  0.00     0.077 H 
BRANCH  63  66
ATOM     66  OG  SER d   1     -19.645 -56.543  -4.115  0.00  0.00    -0.398 OA
ATOM     67  H26 SER d   1     -18.794 -56.938  -3.965  0.00  0.00     0.209 HD
ENDBRANCH  63  66
ENDBRANCH  21  63
ENDBRANCH  18  21
ENDBRANCH   4   7
ENDBRANCH   1   3
BRANCH   1  68
ATOM     68  CB  PHE d   1     -13.686 -60.336  -2.910  0.00  0.00    -0.014 C 
ATOM     69  H36 PHE d   1     -13.912 -61.147  -2.202  0.00  0.00     0.043 H 
ATOM     70  H37 PHE d   1     -13.067 -59.576  -2.411  0.00  0.00     0.043 H 
BRANCH  68  71
ATOM     71  CG  PHE d   1     -12.898 -60.911  -4.050  0.00  0.00    -0.056 A 
ATOM     72  CD1 PHE d   1     -12.251 -60.082  -4.960  0.00  0.00    -0.077 A 
ATOM     73  CE1 PHE d   1     -11.528 -60.619  -6.019  0.00  0.00    -0.082 A 
ATOM     74  H38 PHE d   1     -12.311 -59.006  -4.842  0.00  0.00     0.084 H 
ATOM     75  CZ  PHE d   1     -11.430 -61.997  -6.171  0.00  0.00    -0.083 A 
ATOM     76  H40 PHE d   1     -11.039 -59.961  -6.728  0.00  0.00     0.083 H 
ATOM     77  CE2 PHE d   1     -12.068 -62.835  -5.262  0.00  0.00    -0.082 A 
ATOM     78  H42 PHE d   1     -10.860 -62.416  -6.992  0.00  0.00     0.083 H 
ATOM     79  CD2 PHE d   1     -12.787 -62.285  -4.204  0.00  0.00    -0.077 A 
ATOM     80  H41 PHE d   1     -12.006 -63.911  -5.377  0.00  0.00     0.083 H 
ATOM     81  H39 PHE d   1     -13.268 -62.942  -3.489  0.00  0.00     0.084 H 
ENDBRANCH  68  71
ENDBRANCH   1  68
BRANCH   1  82
ATOM     82  C   PHE d   1     -16.047 -60.707  -3.811  0.00  0.00     0.243 C 
ATOM     83  O   PHE d   1     -16.574 -61.476  -3.001  0.00  0.00    -0.271 OA
ATOM     84  N   PRO d   1     -16.370 -60.697  -5.117  0.00  0.00    -0.337 N 
ATOM     85  CA  PRO d   1     -17.400 -61.584  -5.690  0.00  0.00     0.091 C 
ATOM     86  CD  PRO d   1     -15.757 -59.822  -6.136  0.00  0.00    -0.001 C 
ATOM     87  CB  PRO d   1     -17.663 -60.962  -7.066  0.00  0.00    -0.036 C 
ATOM     88  H43 PRO d   1     -18.308 -61.550  -5.070  0.00  0.00     0.087 H 
ATOM     89  CG  PRO d   1     -16.384 -60.298  -7.422  0.00  0.00    -0.048 C 
ATOM     90  H44 PRO d   1     -18.480 -60.228  -7.011  0.00  0.00     0.036 H 
ATOM     91  H45 PRO d   1     -17.916 -61.739  -7.802  0.00  0.00     0.036 H 
ATOM     92  H46 PRO d   1     -15.716 -61.012  -7.926  0.00  0.00     0.035 H 
ATOM     93  H47 PRO d   1     -16.575 -59.443  -8.087  0.00  0.00     0.035 H 
ATOM     94  H48 PRO d   1     -14.665 -59.949  -6.159  0.00  0.00     0.064 H 
ATOM     95  H49 PRO d   1     -15.999 -58.766  -5.946  0.00  0.00     0.064 H 
BRANCH  85  96
ATOM     96  C   PRO d   1     -16.963 -63.060  -5.833  0.00  0.00     0.241 C 
ATOM     97  O   PRO d   1     -15.768 -63.344  -5.937  0.00  0.00    -0.271 OA
ATOM     98  N   PHE d   1     -17.943 -63.972  -5.842  0.00  0.00    -0.346 N 
ATOM     99  H50 PHE d   1     -18.885 -63.653  -5.739  0.00  0.00     0.163 HD
BRANCH  98 100
ATOM    100  CA  PHE d   1     -17.714 -65.415  -5.994  0.00  0.00     0.093 C 
ATOM    101  H51 PHE d   1     -16.908 -65.710  -5.307  0.00  0.00     0.088 H 
BRANCH 100 102
ATOM    102  CB  PHE d   1     -18.981 -66.190  -5.626  0.00  0.00    -0.014 C 
ATOM    103  H52 PHE d   1     -18.841 -67.240  -5.923  0.00  0.00     0.043 H 
ATOM    104  H53 PHE d   1     -19.823 -65.759  -6.187  0.00  0.00     0.043 H 
BRANCH 102 105
ATOM    105  CG  PHE d   1     -19.328 -66.158  -4.155  0.00  0.00    -0.056 A 
ATOM    106  CD1 PHE d   1     -20.166 -67.125  -3.617  0.00  0.00    -0.077 A 
ATOM    107  CE1 PHE d   1     -20.495 -67.117  -2.273  0.00  0.00    -0.082 A 
ATOM    108  H54 PHE d   1     -20.569 -67.899  -4.260  0.00  0.00     0.084 H 
ATOM    109  CZ  PHE d   1     -19.986 -66.154  -1.443  0.00  0.00    -0.083 A 
ATOM    110  H56 PHE d   1     -21.159 -67.876  -1.875  0.00  0.00     0.083 H 
ATOM    111  CE2 PHE d   1     -19.133 -65.187  -1.954  0.00  0.00    -0.082 A 
ATOM    112  H58 PHE d   1     -20.249 -66.147  -0.391  0.00  0.00     0.083 H 
ATOM    113  CD2 PHE d   1     -18.805 -65.188  -3.303  0.00  0.00    -0.077 A 
ATOM    114  H57 PHE d   1     -18.721 -64.428  -1.298  0.00  0.00     0.083 H 
ATOM    115  H55 PHE d   1     -18.138 -64.429  -3.696  0.00  0.00     0.084 H 
ENDBRANCH 102 105
ENDBRANCH 100 102
BRANCH 100 116
ATOM    116  C   PHE d   1     -17.288 -65.777  -7.423  0.00  0.00     0.241 C 
ATOM    117  O   PHE d   1     -17.518 -65.004  -8.334  0.00  0.00    -0.271 OA
ATOM    118  N   ASP d   1     -16.681 -66.949  -7.616  0.00  0.00    -0.345 N 
ATOM    119  H59 ASP d   1     -16.512 -67.540  -6.827  0.00  0.00     0.163 HD
BRANCH 118 120
ATOM    120  CA  ASP d   1     -16.253 -67.402  -8.941  0.00  0.00     0.098 C 
ATOM    121  H60 ASP d   1     -15.566 -66.657  -9.369  0.00  0.00     0.088 H 
BRANCH 120 122
ATOM    122  CB  ASP d   1     -15.554 -68.765  -8.858  0.00  0.00     0.043 C 
ATOM    123  H61 ASP d   1     -15.264 -69.068  -9.875  0.00  0.00     0.052 H 
ATOM    124  H62 ASP d   1     -16.267 -69.495  -8.447  0.00  0.00     0.052 H 
BRANCH 122 125
ATOM    125  CG  ASP d   1     -14.309 -68.768  -7.985  0.00  0.00     0.175 C 
ATOM    126  OD1 ASP d   1     -13.892 -67.701  -7.468  0.00  0.00    -0.648 OA
ATOM    127  OD2 ASP d   1     -13.752 -69.885  -7.811  0.00  0.00    -0.648 OA
ENDBRANCH 122 125
ENDBRANCH 120 122
BRANCH 120 128
ATOM    128  C   ASP d   1     -17.459 -67.584  -9.861  0.00  0.00     0.241 C 
ATOM    129  O   ASP d   1     -18.521 -68.018  -9.423  0.00  0.00    -0.271 OA
ATOM    130  N   LEU d   1     -17.271 -67.298 -11.143  0.00  0.00    -0.345 N 
ATOM    131  H63 LEU d   1     -16.370 -66.979 -11.438  0.00  0.00     0.163 HD
BRANCH 130 132
ATOM    132  CA  LEU d   1     -18.332 -67.432 -12.139  0.00  0.00     0.093 C 
ATOM    133  H64 LEU d   1     -19.246 -66.969 -11.739  0.00  0.00     0.089 H 
BRANCH 132 134
ATOM    134  CB  LEU d   1     -17.924 -66.692 -13.412  0.00  0.00    -0.034 C 
ATOM    135  H65 LEU d   1     -17.872 -67.438 -14.219  0.00  0.00     0.037 H 
ATOM    136  H66 LEU d   1     -16.923 -66.271 -13.236  0.00  0.00     0.037 H 
BRANCH 134 137
ATOM    137  CG  LEU d   1     -18.808 -65.556 -13.908  0.00  0.00    -0.059 C 
ATOM    138  H67 LEU d   1     -19.669 -65.997 -14.431  0.00  0.00     0.038 H 
BRANCH 137 139
ATOM    139  CD1 LEU d   1     -19.343 -64.724 -12.758  0.00  0.00    -0.073 C 
ATOM    140  H68 LEU d   1     -19.975 -63.916 -13.153  0.00  0.00     0.028 H 
ATOM    141  H69 LEU d   1     -18.502 -64.291 -12.197  0.00  0.00     0.028 H 
ATOM    142  H70 LEU d   1     -19.940 -65.362 -12.090  0.00  0.00     0.028 H 
ENDBRANCH 137 139
BRANCH 137 143
ATOM    143  CD2 LEU d   1     -18.039 -64.701 -14.903  0.00  0.00    -0.073 C 
ATOM    144  H71 LEU d   1     -17.667 -65.335 -15.721  0.00  0.00     0.028 H 
ATOM    145  H72 LEU d   1     -17.189 -64.222 -14.395  0.00  0.00     0.028 H 
ATOM    146  H73 LEU d   1     -18.705 -63.927 -15.313  0.00  0.00     0.028 H 
ENDBRANCH 137 143
ENDBRANCH 134 137
ENDBRANCH 132 134
BRANCH 132 147
ATOM    147  C   LEU d   1     -18.634 -68.901 -12.449  0.00  0.00     0.163 C 
ATOM    148  O   LEU d   1     -17.731 -69.740 -12.391  0.00  0.00    -0.648 OA
BRANCH 147 149
ATOM    149  O1  LEU d   1     -19.867 -69.272 -12.780  0.00  0.00    -0.775 OA
ATOM    150  H74 LEU d   1     -19.858 -69.660 -13.647  0.00  0.00     0.167 HD
ENDBRANCH 147 149
ENDBRANCH 132 147
ENDBRANCH 130 132
ENDBRANCH 120 128
ENDBRANCH 118 120
ENDBRANCH 100 116
ENDBRANCH  98 100
ENDBRANCH  85  96
ENDBRANCH   1  82
TORSDOF 36
