REMARK  7 active torsions:
REMARK  status: ('A' for Active; 'I' for Inactive)
REMARK    1  A    between atoms: C25_2  and  N3_31 
REMARK    2  A    between atoms: C23_4  and  N4_34 
REMARK    3  A    between atoms: C22_5  and  O6_32 
REMARK    4  A    between atoms: C21_6  and  C26_7 
REMARK    5  A    between atoms: C21_6  and  N2_8 
REMARK    6  A    between atoms: O6_32  and  C27_33 
REMARK    7  A    between atoms: N4_34  and  C28_35 
ROOT
ATOM      1  O4  STU d   1     -19.206  12.595  -3.927  0.00  0.00    -0.333 OA
ATOM      2  C25 STU d   1     -19.484  11.969  -5.196  0.00  0.00     0.115 C 
ATOM      3  C24 STU d   1     -20.147  12.962  -6.170  0.00  0.00     0.005 C 
ATOM      4  C23 STU d   1     -21.259  13.852  -5.608  0.00  0.00     0.134 C 
ATOM      5  C22 STU d   1     -21.471  13.681  -4.107  0.00  0.00     0.113 C 
ATOM      6  C21 STU d   1     -20.281  13.191  -3.215  0.00  0.00     0.168 C 
ATOM      7  H1  STU d   1     -18.504  11.746  -5.642  0.00  0.00     0.118 H 
ATOM      8  H2  STU d   1     -20.576  12.378  -6.998  0.00  0.00     0.042 H 
ATOM      9  H3  STU d   1     -19.358  13.623  -6.558  0.00  0.00     0.042 H 
ATOM     10  H4  STU d   1     -22.177  13.449  -6.061  0.00  0.00     0.088 H 
ATOM     11  H5  STU d   1     -21.812  14.633  -3.674  0.00  0.00     0.094 H 
ENDROOT
BRANCH   4  12
ATOM     12  N4  STU d   1     -21.235  15.249  -6.043  0.00  0.00    -0.072 N 
ATOM     13  H23 STU d   1     -21.550  15.251  -7.000  0.00  0.00     0.277 HD
ATOM     14  H24 STU d   1     -20.270  15.538  -6.006  0.00  0.00     0.277 HD
BRANCH  12  15
ATOM     15  C28 STU d   1     -22.006  16.302  -5.355  0.00  0.00     0.065 C 
ATOM     16  H25 STU d   1     -21.835  17.267  -5.854  0.00  0.00     0.067 H 
ATOM     17  H26 STU d   1     -21.680  16.369  -4.306  0.00  0.00     0.067 H 
ATOM     18  H27 STU d   1     -23.077  16.055  -5.391  0.00  0.00     0.067 H 
ENDBRANCH  12  15
ENDBRANCH   4  12
BRANCH   5  19
ATOM     19  O6  STU d   1     -22.561  12.740  -4.192  0.00  0.00    -0.384 OA
BRANCH  19  20
ATOM     20  C27 STU d   1     -23.778  13.196  -3.634  0.00  0.00     0.005 C 
ATOM     21  H20 STU d   1     -24.547  12.417  -3.744  0.00  0.00     0.066 H 
ATOM     22  H21 STU d   1     -24.102  14.107  -4.157  0.00  0.00     0.066 H 
ATOM     23  H22 STU d   1     -23.631  13.418  -2.567  0.00  0.00     0.066 H 
ENDBRANCH  19  20
ENDBRANCH   5  19
BRANCH   2  24
ATOM     24  N3  STU d   1     -20.142  10.636  -5.038  0.00  0.00    -0.316 N 
ATOM     25  C19 STU d   1     -20.742  10.137  -3.851  0.00  0.00     0.077 A 
ATOM     26  C18 STU d   1     -21.180  10.827  -2.725  0.00  0.00     0.077 A 
ATOM     27  C6  STU d   1     -21.094   8.799  -4.008  0.00  0.00     0.022 A 
ATOM     28  N2  STU d   1     -20.840  12.134  -2.312  0.00  0.00    -0.308 N 
ATOM     29  C11 STU d   1     -21.869  10.187  -1.693  0.00  0.00     0.015 A 
ATOM     30  C17 STU d   1     -21.559  12.355  -1.111  0.00  0.00     0.049 A 
ATOM     31  C12 STU d   1     -22.099  11.146  -0.694  0.00  0.00     0.004 A 
ATOM     32  C16 STU d   1     -21.598  13.506  -0.306  0.00  0.00    -0.056 A 
ATOM     33  C13 STU d   1     -22.748  11.038   0.525  0.00  0.00    -0.070 A 
ATOM     34  C14 STU d   1     -22.822  12.191   1.315  0.00  0.00    -0.082 A 
ATOM     35  H12 STU d   1     -23.180  10.100   0.853  0.00  0.00     0.084 H 
ATOM     36  C15 STU d   1     -22.267  13.412   0.918  0.00  0.00    -0.081 A 
ATOM     37  H11 STU d   1     -23.329  12.136   2.272  0.00  0.00     0.083 H 
ATOM     38  H10 STU d   1     -22.355  14.283   1.558  0.00  0.00     0.083 H 
ATOM     39  H9  STU d   1     -21.128  14.430  -0.622  0.00  0.00     0.087 H 
ATOM     40  C10 STU d   1     -22.191   8.827  -1.813  0.00  0.00    -0.010 A 
ATOM     41  C7  STU d   1     -21.793   8.165  -2.960  0.00  0.00     0.054 A 
ATOM     42  C9  STU d   1     -22.939   7.954  -0.925  0.00  0.00     0.021 A 
ATOM     43  C8  STU d   1     -22.276   6.846  -2.831  0.00  0.00     0.253 A 
ATOM     44  N1  STU d   1     -22.964   6.664  -1.659  0.00  0.00    -0.353 N 
ATOM     45  O5  STU d   1     -22.142   5.878  -3.687  0.00  0.00    -0.268 OA
ATOM     46  H15 STU d   1     -23.402   5.818  -1.355  0.00  0.00     0.163 HD
ATOM     47  H13 STU d   1     -23.958   8.335  -0.763  0.00  0.00     0.071 H 
ATOM     48  H14 STU d   1     -22.429   7.847   0.044  0.00  0.00     0.071 H 
ATOM     49  C5  STU d   1     -20.586   8.392  -5.243  0.00  0.00     0.004 A 
ATOM     50  C20 STU d   1     -19.924   9.475  -5.823  0.00  0.00     0.048 A 
ATOM     51  C4  STU d   1     -20.650   7.150  -5.857  0.00  0.00    -0.070 A 
ATOM     52  C1  STU d   1     -19.362   9.366  -7.094  0.00  0.00    -0.056 A 
ATOM     53  C2  STU d   1     -19.401   8.114  -7.728  0.00  0.00    -0.081 A 
ATOM     54  H16 STU d   1     -18.908  10.223  -7.579  0.00  0.00     0.087 H 
ATOM     55  C3  STU d   1     -20.038   7.021  -7.106  0.00  0.00    -0.082 A 
ATOM     56  H17 STU d   1     -18.939   7.987  -8.700  0.00  0.00     0.083 H 
ATOM     57  H18 STU d   1     -20.053   6.060  -7.608  0.00  0.00     0.083 H 
ATOM     58  H19 STU d   1     -21.154   6.314  -5.387  0.00  0.00     0.084 H 
ENDBRANCH   2  24
BRANCH   6  59
ATOM     59  C26 STU d   1     -19.673  14.344  -2.403  0.00  0.00    -0.028 C 
ATOM     60  H6  STU d   1     -20.465  14.845  -1.828  0.00  0.00     0.034 H 
ATOM     61  H7  STU d   1     -19.204  15.066  -3.087  0.00  0.00     0.034 H 
ATOM     62  H8  STU d   1     -18.915  13.946  -1.713  0.00  0.00     0.034 H 
ENDBRANCH   6  59
TORSDOF 7
