REMARK  6 active torsions:
REMARK  status: ('A' for Active; 'I' for Inactive)
REMARK    1  A    between atoms: C1_5  and  N_3 
REMARK    2  A    between atoms: N_3  and  C4_8 
REMARK    3  A    between atoms: C4_8  and  C8_12 
REMARK    4  A    between atoms: C17_25  and  C10_15 
REMARK    5  A    between atoms: C12_17  and  N3_19 
REMARK    6  A    between atoms: C19_28  and  C21_30 
ROOT
ATOM      1  C   BMI d   1       3.146  -4.525  18.441  0.00  0.00     0.194 A 
ATOM      2  O   BMI d   1       2.756  -5.636  17.883  0.00  0.00    -0.174 OA
ATOM      3  N1  BMI d   1       2.898  -3.331  17.932  0.00  0.00    -0.237 NA
ATOM      4  C1  BMI d   1       4.224  -3.363  20.427  0.00  0.00     0.026 A 
ATOM      5  C2  BMI d   1       3.951  -2.166  19.742  0.00  0.00    -0.043 A 
ATOM      6  C3  BMI d   1       3.289  -2.238  18.576  0.00  0.00     0.007 A 
ATOM      7  C10 BMI d   1       3.819  -4.549  19.750  0.00  0.00     0.110 A 
ATOM      8  H2  BMI d   1       4.268  -1.206  20.146  0.00  0.00     0.088 H 
ATOM      9  H3  BMI d   1       3.044  -1.288  18.103  0.00  0.00     0.114 H 
ATOM     10  H10 BMI d   1       2.850  -4.538  20.270  0.00  0.00     0.075 H 
ENDROOT
BRANCH   7  11
ATOM     11  C17 BMI d   1       4.162  -5.822  20.321  0.00  0.00     0.123 A 
ATOM     12  N5  BMI d   1       4.679  -5.943  21.420  0.00  0.00    -0.232 NA
ATOM     13  C18 BMI d   1       5.003  -7.257  21.587  0.00  0.00     0.091 A 
ATOM     14  C16 BMI d   1       4.738  -7.889  20.515  0.00  0.00     0.065 A 
ATOM     15  C19 BMI d   1       5.531  -7.888  22.618  0.00  0.00    -0.029 A 
ATOM     16  C13 BMI d   1       5.023  -9.259  20.449  0.00  0.00    -0.029 A 
ATOM     17  N6  BMI d   1       4.205  -6.953  19.674  0.00  0.00    -0.341 N 
ATOM     18  C12 BMI d   1       5.565  -9.854  21.528  0.00  0.00     0.042 A 
ATOM     19  H12 BMI d   1       4.812  -9.827  19.550  0.00  0.00     0.090 H 
ATOM     20  C20 BMI d   1       5.799  -9.170  22.620  0.00  0.00    -0.049 A 
ATOM     21  H16 BMI d   1       6.204  -9.652  23.502  0.00  0.00     0.087 H 
ATOM     22  H15 BMI d   1       3.894  -7.112  18.705  0.00  0.00     0.167 HD
BRANCH  18  23
ATOM     23  N3  BMI d   1       5.905 -11.214  21.502  0.00  0.00    -0.315 N 
ATOM     24  C11 BMI d   1       5.925 -12.107  22.539  0.00  0.00     0.003 A 
ATOM     25  C15 BMI d   1       6.352 -13.341  21.989  0.00  0.00     0.019 A 
ATOM     26  H11 BMI d   1       5.665 -11.909  23.578  0.00  0.00     0.114 H 
ATOM     27  N4  BMI d   1       6.600 -13.151  20.650  0.00  0.00    -0.254 NA
ATOM     28  H14 BMI d   1       6.464 -14.278  22.533  0.00  0.00     0.117 H 
ATOM     29  C14 BMI d   1       6.311 -11.860  20.405  0.00  0.00     0.070 A 
ATOM     30  H13 BMI d   1       6.398 -11.395  19.424  0.00  0.00     0.144 H 
ENDBRANCH  18  23
BRANCH  15  31
ATOM     31  C21 BMI d   1       5.795  -7.059  23.834  0.00  0.00    -0.049 C 
ATOM     32  H17 BMI d   1       5.507  -6.016  23.636  0.00  0.00     0.033 H 
ATOM     33  H18 BMI d   1       6.866  -7.103  24.082  0.00  0.00     0.033 H 
ATOM     34  H19 BMI d   1       5.207  -7.448  24.678  0.00  0.00     0.033 H 
ENDBRANCH  15  31
ENDBRANCH   7  11
BRANCH   4  35
ATOM     35  N   BMI d   1       4.931  -3.267  21.682  0.00  0.00    -0.386 N 
ATOM     36  H1  BMI d   1       4.622  -3.840  22.480  0.00  0.00     0.159 HD
BRANCH  35  37
ATOM     37  C4  BMI d   1       6.146  -2.319  21.852  0.00  0.00     0.032 C 
ATOM     38  H4  BMI d   1       5.917  -1.503  22.553  0.00  0.00     0.073 H 
ATOM     39  H5  BMI d   1       6.456  -1.896  20.885  0.00  0.00     0.073 H 
BRANCH  37  40
ATOM     40  C8  BMI d   1       7.211  -3.234  22.412  0.00  0.00     0.051 A 
ATOM     41  C6  BMI d   1       7.542  -3.167  23.748  0.00  0.00    -0.058 A 
ATOM     42  C5  BMI d   1       8.458  -4.030  24.291  0.00  0.00    -0.080 A 
ATOM     43  H7  BMI d   1       7.071  -2.421  24.378  0.00  0.00     0.086 H 
ATOM     44  C7  BMI d   1       9.036  -4.965  23.423  0.00  0.00    -0.066 A 
ATOM     45  H6  BMI d   1       8.722  -3.991  25.341  0.00  0.00     0.083 H 
ATOM     46  C9  BMI d   1       8.657  -5.006  22.063  0.00  0.00     0.003 A 
ATOM     47  H8  BMI d   1       9.778  -5.661  23.797  0.00  0.00     0.085 H 
ATOM     48  N2  BMI d   1       7.762  -4.150  21.576  0.00  0.00    -0.264 NA
ATOM     49  H9  BMI d   1       9.101  -5.745  21.407  0.00  0.00     0.114 H 
ENDBRANCH  37  40
ENDBRANCH  35  37
ENDBRANCH   4  35
TORSDOF 6
