REMARK  7 active torsions:
REMARK  status: ('A' for Active; 'I' for Inactive)
REMARK    1  A    between atoms: C10_5  and  C6_3 
REMARK    2  A    between atoms: C6_3  and  C2_14 
REMARK    3  A    between atoms: C12_19  and  C10_5 
REMARK    4  A    between atoms: C10_5  and  N13_20 
REMARK    5  A    between atoms: O14_21  and  C15_6 
REMARK    6  A    between atoms: C18_23  and  C20_8 
REMARK    7  A    between atoms: C12_19  and  O14_21 
ROOT
ATOM      1  C12 4PY d   1      11.952   9.693   3.318  0.00  0.00     0.053 C 
ATOM      2  H13 4PY d   1      11.446  10.556   3.775  0.00  0.00     0.078 H 
ATOM      3  H14 4PY d   1      11.404   8.772   3.567  0.00  0.00     0.078 H 
ENDROOT
BRANCH   1   4
ATOM      4  C10 4PY d   1      13.415   9.598   3.841  0.00  0.00     0.124 C 
ATOM      5  H6  4PY d   1      13.349   9.526   4.937  0.00  0.00     0.087 H 
BRANCH   4   6
ATOM      6  C6  4PY d   1      14.398  10.790   3.536  0.00  0.00    -0.010 C 
ATOM      7  H3  4PY d   1      15.337  10.611   4.080  0.00  0.00     0.043 H 
ATOM      8  H4  4PY d   1      13.936  11.720   3.898  0.00  0.00     0.043 H 
BRANCH   6   9
ATOM      9  C2  4PY d   1      14.729  10.964   2.051  0.00  0.00    -0.028 A 
ATOM     10  C5  4PY d   1      15.574  10.131   1.272  0.00  0.00    -0.015 A 
ATOM     11  N7  4PY d   1      15.617  10.596  -0.011  0.00  0.00    -0.365 N 
ATOM     12  H2  4PY d   1      16.106   9.255   1.641  0.00  0.00     0.112 H 
ATOM     13  C3  4PY d   1      14.810  11.740  -0.128  0.00  0.00     0.042 A 
ATOM     14  H10 4PY d   1      16.159  10.172  -0.777  0.00  0.00     0.165 HD
ATOM     15  C8  4PY d   1      14.505  12.590  -1.197  0.00  0.00    -0.056 A 
ATOM     16  C1  4PY d   1      14.238  11.993   1.171  0.00  0.00    -0.002 A 
ATOM     17  C11 4PY d   1      13.633  13.702  -1.008  0.00  0.00    -0.081 A 
ATOM     18  H5  4PY d   1      14.934  12.402  -2.175  0.00  0.00     0.086 H 
ATOM     19  C9  4PY d   1      13.065  13.955   0.275  0.00  0.00    -0.082 A 
ATOM     20  H12 4PY d   1      13.402  14.356  -1.841  0.00  0.00     0.083 H 
ATOM     21  C4  4PY d   1      13.374  13.089   1.365  0.00  0.00    -0.070 A 
ATOM     22  H11 4PY d   1      12.402  14.800   0.421  0.00  0.00     0.083 H 
ATOM     23  H1  4PY d   1      12.944  13.274   2.343  0.00  0.00     0.084 H 
ENDBRANCH   6   9
ENDBRANCH   4   6
BRANCH   4  24
ATOM     24  N13 4PY d   1      14.005   8.354   3.333  0.00  0.00    -0.073 N 
ATOM     25  H15 4PY d   1      14.955   8.274   3.662  0.00  0.00     0.274 HD
ATOM     26  H16 4PY d   1      13.998   8.366   2.325  0.00  0.00     0.274 HD
ATOM     27  H17 4PY d   1      13.468   7.568   3.663  0.00  0.00     0.274 HD
ENDBRANCH   4  24
ENDBRANCH   1   4
BRANCH   1  28
ATOM     28  O14 4PY d   1      12.009   9.858   1.894  0.00  0.00    -0.348 OA
BRANCH  28  29
ATOM     29  C15 4PY d   1      10.835   9.987   1.130  0.00  0.00     0.087 A 
ATOM     30  C17 4PY d   1      10.942  10.160  -0.271  0.00  0.00     0.034 A 
ATOM     31  N19 4PY d   1       9.847  10.297  -1.069  0.00  0.00    -0.269 NA
ATOM     32  H7  4PY d   1      11.927  10.184  -0.723  0.00  0.00     0.119 H 
ATOM     33  C21 4PY d   1       8.594  10.267  -0.515  0.00  0.00     0.014 A 
ATOM     34  C18 4PY d   1       8.366  10.099   0.869  0.00  0.00     0.013 A 
ATOM     35  H8  4PY d   1       7.737  10.377  -1.170  0.00  0.00     0.116 H 
ATOM     36  C16 4PY d   1       9.522   9.956   1.696  0.00  0.00    -0.036 A 
ATOM     37  H18 4PY d   1       9.403   9.822   2.765  0.00  0.00     0.089 H 
BRANCH  34  38
ATOM     38  C20 4PY d   1       6.962  10.070   1.411  0.00  0.00     0.069 A 
ATOM     39  C22 4PY d   1       6.643  10.166   2.797  0.00  0.00    -0.041 A 
ATOM     40  C24 4PY d   1       5.309  10.123   3.208  0.00  0.00     0.015 A 
ATOM     41  H9  4PY d   1       7.434  10.272   3.530  0.00  0.00     0.088 H 
ATOM     42  C26 4PY d   1       4.250   9.980   2.219  0.00  0.00     0.106 A 
ATOM     43  C27 4PY d   1       4.675  10.194   4.524  0.00  0.00     0.008 A 
ATOM     44  C25 4PY d   1       4.581   9.891   0.880  0.00  0.00     0.033 A 
ATOM     45  N28 4PY d   1       3.104   9.974   2.980  0.00  0.00    -0.173 NA
ATOM     46  N23 4PY d   1       5.892   9.936   0.503  0.00  0.00    -0.258 NA
ATOM     47  H19 4PY d   1       3.803   9.786   0.133  0.00  0.00     0.118 H 
ATOM     48  N29 4PY d   1       3.367  10.098   4.298  0.00  0.00    -0.288 N 
ATOM     49  H21 4PY d   1       2.647  10.116   5.035  0.00  0.00     0.188 HD
ATOM     50  H20 4PY d   1       5.170  10.303   5.488  0.00  0.00     0.115 H 
ENDBRANCH  34  38
ENDBRANCH  28  29
ENDBRANCH   1  28
TORSDOF 7
