REMARK  5 active torsions:
REMARK  status: ('A' for Active; 'I' for Inactive)
REMARK    1  A    between atoms: C6_5  and  C8_7 
REMARK    2  A    between atoms: C13_12  and  C14_13 
REMARK    3  A    between atoms: C18_16  and  C20_18 
REMARK       I    between atoms: C20_18  and  N22_20 
REMARK    4  A    between atoms: N22_20  and  C23_21 
REMARK    5  A    between atoms: C23_21  and  C24_22 
ROOT
ATOM      1  C14 33A d   1     -15.324  11.953  40.268  0.00  0.00     0.013 A 
ATOM      2  C15 33A d   1     -15.146  11.217  39.116  0.00  0.00    -0.010 A 
ATOM      3  N16 33A d   1     -13.834  11.227  38.786  0.00  0.00    -0.361 N 
ATOM      4  C18 33A d   1     -13.140  11.977  39.723  0.00  0.00     0.101 A 
ATOM      5  C19 33A d   1     -14.046  12.425  40.638  0.00  0.00    -0.038 A 
ATOM      6  H7  33A d   1     -15.934  10.710  38.561  0.00  0.00     0.112 H 
ATOM      7  H8  33A d   1     -13.418  10.754  37.971  0.00  0.00     0.165 HD
ATOM      8  H9  33A d   1     -13.822  13.042  41.507  0.00  0.00     0.088 H 
ENDROOT
BRANCH   1   9
ATOM      9  C13 33A d   1     -16.653  12.180  40.980  0.00  0.00     0.101 A 
ATOM     10  C8  33A d   1     -17.104  13.300  41.797  0.00  0.00     0.022 A 
ATOM     11  C9  33A d   1     -18.378  13.010  42.199  0.00  0.00     0.009 A 
ATOM     12  N10 33A d   1     -18.723  11.816  41.700  0.00  0.00    -0.288 N 
ATOM     13  H5  33A d   1     -19.008  13.644  42.821  0.00  0.00     0.115 H 
ATOM     14  N12 33A d   1     -17.656  11.313  40.953  0.00  0.00    -0.174 NA
ATOM     15  H6  33A d   1     -19.628  11.345  41.844  0.00  0.00     0.188 HD
BRANCH  10  16
ATOM     16  C6  33A d   1     -16.399  14.567  42.192  0.00  0.00    -0.021 A 
ATOM     17  C5  33A d   1     -16.506  14.991  43.545  0.00  0.00    -0.072 A 
ATOM     18  C4  33A d   1     -15.881  16.168  43.979  0.00  0.00    -0.081 A 
ATOM     19  H3  33A d   1     -17.078  14.397  44.249  0.00  0.00     0.084 H 
ATOM     20  C3  33A d   1     -15.133  16.942  43.066  0.00  0.00    -0.062 A 
ATOM     21  H2  33A d   1     -15.972  16.483  45.012  0.00  0.00     0.083 H 
ATOM     22  C2  33A d   1     -15.019  16.528  41.721  0.00  0.00     0.034 A 
ATOM     23  H1  33A d   1     -14.647  17.853  43.397  0.00  0.00     0.086 H 
ATOM     24  C7  33A d   1     -15.646  15.351  41.278  0.00  0.00    -0.051 A 
ATOM     25 CL1  33A d   1     -14.095  17.480  40.619  0.00  0.00    -0.084 Cl
ATOM     26  H4  33A d   1     -15.555  15.043  40.243  0.00  0.00     0.087 H 
ENDBRANCH  10  16
ENDBRANCH   1   9
BRANCH   4  27
ATOM     27  C20 33A d   1     -11.687  12.244  39.741  0.00  0.00     0.268 C 
ATOM     28  O21 33A d   1     -10.967  11.628  38.974  0.00  0.00    -0.266 OA
ATOM     29  N22 33A d   1     -11.161  13.189  40.601  0.00  0.00    -0.351 N 
ATOM     30  H10 33A d   1     -11.779  13.680  41.215  0.00  0.00     0.163 HD
BRANCH  29  31
ATOM     31  C23 33A d   1      -9.702  13.503  40.646  0.00  0.00     0.019 C 
ATOM     32  H11 33A d   1      -9.134  12.622  40.313  0.00  0.00     0.071 H 
ATOM     33  H12 33A d   1      -9.420  13.752  41.679  0.00  0.00     0.071 H 
BRANCH  31  34
ATOM     34  C24 33A d   1      -9.367  14.684  39.739  0.00  0.00    -0.041 A 
ATOM     35  C25 33A d   1      -8.052  14.851  39.236  0.00  0.00    -0.075 A 
ATOM     36  C26 33A d   1      -7.749  15.947  38.390  0.00  0.00    -0.082 A 
ATOM     37  H13 33A d   1      -7.277  14.140  39.499  0.00  0.00     0.084 H 
ATOM     38  C27 33A d   1      -8.753  16.881  38.040  0.00  0.00    -0.083 A 
ATOM     39  H14 33A d   1      -6.742  16.071  38.009  0.00  0.00     0.083 H 
ATOM     40  C28 33A d   1     -10.060  16.730  38.532  0.00  0.00    -0.082 A 
ATOM     41  H15 33A d   1      -8.513  17.715  37.391  0.00  0.00     0.083 H 
ATOM     42  C29 33A d   1     -10.369  15.631  39.384  0.00  0.00    -0.075 A 
ATOM     43  H16 33A d   1     -10.829  17.446  38.265  0.00  0.00     0.083 H 
ATOM     44  H17 33A d   1     -11.377  15.515  39.766  0.00  0.00     0.084 H 
ENDBRANCH  31  34
ENDBRANCH  29  31
ENDBRANCH   4  27
TORSDOF 5
