REMARK  5 active torsions:
REMARK  status: ('A' for Active; 'I' for Inactive)
REMARK    1  A    between atoms: C6_5  and  C8_7 
REMARK    2  A    between atoms: C13_12  and  C14_13 
REMARK    3  A    between atoms: C18_16  and  C20_18 
REMARK       I    between atoms: C20_18  and  N22_20 
REMARK    4  A    between atoms: N22_20  and  C23_21 
REMARK    5  A    between atoms: C23_21  and  C24_22 
ROOT
ATOM      1  C14 33A d   1      -9.221  10.122  22.443  0.00  0.00     0.011 A 
ATOM      2  C15 33A d   1      -8.855  10.891  23.522  0.00  0.00    -0.010 A 
ATOM      3  N16 33A d   1      -9.906  11.666  23.879  0.00  0.00    -0.361 N 
ATOM      4  C18 33A d   1     -10.964  11.400  23.035  0.00  0.00     0.101 A 
ATOM      5  C19 33A d   1     -10.555  10.452  22.145  0.00  0.00    -0.038 A 
ATOM      6  H7  33A d   1      -7.881  10.879  24.009  0.00  0.00     0.112 H 
ATOM      7  H8  33A d   1      -9.914  12.344  24.654  0.00  0.00     0.165 HD
ATOM      8  H9  33A d   1     -11.156  10.025  21.344  0.00  0.00     0.088 H 
ENDROOT
BRANCH   1   9
ATOM      9  C13 33A d   1      -8.424   9.097  21.682  0.00  0.00     0.074 A 
ATOM     10  C8  33A d   1      -7.001   9.021  21.337  0.00  0.00     0.022 A 
ATOM     11  C9  33A d   1      -6.853   7.856  20.630  0.00  0.00     0.035 A 
ATOM     12  N10 33A d   1      -8.042   7.250  20.529  0.00  0.00    -0.186 NA
ATOM     13  H5  33A d   1      -5.917   7.483  20.216  0.00  0.00     0.118 H 
ATOM     14  N12 33A d   1      -8.994   8.023  21.179  0.00  0.00    -0.277 N 
ATOM     15  H6  33A d   1      -9.995   7.791  21.256  0.00  0.00     0.189 HD
BRANCH  10  16
ATOM     16  C6  33A d   1      -5.843   9.953  21.634  0.00  0.00    -0.021 A 
ATOM     17  C5  33A d   1      -6.019  11.350  21.861  0.00  0.00    -0.072 A 
ATOM     18  C4  33A d   1      -4.909  12.174  22.128  0.00  0.00    -0.081 A 
ATOM     19  H3  33A d   1      -7.013  11.780  21.828  0.00  0.00     0.084 H 
ATOM     20  C3  33A d   1      -3.607  11.632  22.158  0.00  0.00    -0.062 A 
ATOM     21  H2  33A d   1      -5.056  13.232  22.312  0.00  0.00     0.083 H 
ATOM     22  C2  33A d   1      -3.406  10.252  21.931  0.00  0.00     0.034 A 
ATOM     23  H1  33A d   1      -2.758  12.276  22.356  0.00  0.00     0.086 H 
ATOM     24  C7  33A d   1      -4.511   9.416  21.667  0.00  0.00    -0.051 A 
ATOM     25 CL1  33A d   1      -1.792   9.587  21.964  0.00  0.00    -0.084 Cl
ATOM     26  H4  33A d   1      -4.354   8.359  21.487  0.00  0.00     0.087 H 
ENDBRANCH  10  16
ENDBRANCH   1   9
BRANCH   4  27
ATOM     27  C20 33A d   1     -12.301  12.018  23.073  0.00  0.00     0.268 C 
ATOM     28  O21 33A d   1     -12.546  12.887  23.899  0.00  0.00    -0.266 OA
ATOM     29  N22 33A d   1     -13.248  11.610  22.177  0.00  0.00    -0.351 N 
ATOM     30  H10 33A d   1     -13.012  10.896  21.518  0.00  0.00     0.163 HD
BRANCH  29  31
ATOM     31  C23 33A d   1     -14.602  12.183  22.146  0.00  0.00     0.019 C 
ATOM     32  H11 33A d   1     -14.735  12.867  22.997  0.00  0.00     0.071 H 
ATOM     33  H12 33A d   1     -15.348  11.377  22.203  0.00  0.00     0.071 H 
BRANCH  31  34
ATOM     34  C24 33A d   1     -14.769  12.939  20.855  0.00  0.00    -0.041 A 
ATOM     35  C25 33A d   1     -14.543  14.334  20.822  0.00  0.00    -0.075 A 
ATOM     36  C26 33A d   1     -14.696  15.044  19.610  0.00  0.00    -0.082 A 
ATOM     37  H13 33A d   1     -14.253  14.858  21.725  0.00  0.00     0.084 H 
ATOM     38  C27 33A d   1     -15.066  14.363  18.432  0.00  0.00    -0.083 A 
ATOM     39  H14 33A d   1     -14.529  16.115  19.586  0.00  0.00     0.083 H 
ATOM     40  C28 33A d   1     -15.292  12.970  18.466  0.00  0.00    -0.082 A 
ATOM     41  H15 33A d   1     -15.177  14.908  17.502  0.00  0.00     0.083 H 
ATOM     42  C29 33A d   1     -15.139  12.256  19.677  0.00  0.00    -0.075 A 
ATOM     43  H16 33A d   1     -15.583  12.447  17.562  0.00  0.00     0.083 H 
ATOM     44  H17 33A d   1     -15.306  11.185  19.700  0.00  0.00     0.084 H 
ENDBRANCH  31  34
ENDBRANCH  29  31
ENDBRANCH   4  27
TORSDOF 5
