REMARK  5 active torsions:
REMARK  status: ('A' for Active; 'I' for Inactive)
REMARK    1  A    between atoms: N1_1  and  C1_2 
REMARK    2  A    between atoms: C1_2  and  C2_3 
REMARK    3  A    between atoms: C2_3  and  C3_4 
REMARK    4  A    between atoms: C3_4  and  O1_5 
REMARK    5  A    between atoms: O1_5  and  N2_6 
ROOT
ATOM      1  C2  XAP d   1     -26.165 -12.281  18.959  0.00  0.00    -0.021 C 
ATOM      2  H6  XAP d   1     -26.246 -13.314  19.328  0.00  0.00     0.038 H 
ATOM      3  H7  XAP d   1     -25.215 -11.843  19.300  0.00  0.00     0.038 H 
ENDROOT
BRANCH   1   4
ATOM      4  C1  XAP d   1     -27.325 -11.457  19.505  0.00  0.00     0.082 C 
ATOM      5  H4  XAP d   1     -27.078 -10.388  19.422  0.00  0.00     0.075 H 
ATOM      6  H5  XAP d   1     -28.229 -11.672  18.916  0.00  0.00     0.075 H 
BRANCH   4   7
ATOM      7  N1  XAP d   1     -27.577 -11.778  20.892  0.00  0.00    -0.079 N 
ATOM      8  H1  XAP d   1     -28.347 -11.222  21.231  0.00  0.00     0.274 HD
ATOM      9  H2  XAP d   1     -26.753 -11.580  21.438  0.00  0.00     0.274 HD
ATOM     10  H3  XAP d   1     -27.807 -12.756  20.974  0.00  0.00     0.274 HD
ENDBRANCH   4   7
ENDBRANCH   1   4
BRANCH   1  11
ATOM     11  C3  XAP d   1     -26.200 -12.286  17.449  0.00  0.00     0.053 C 
ATOM     12  H8  XAP d   1     -25.998 -13.292  17.053  0.00  0.00     0.078 H 
ATOM     13  H9  XAP d   1     -25.469 -11.576  17.035  0.00  0.00     0.078 H 
BRANCH  11  14
ATOM     14  O1  XAP d   1     -27.533 -11.878  17.154  0.00  0.00    -0.207 OA
BRANCH  14  15
ATOM     15  N2  XAP d   1     -28.617 -12.781  17.452  0.00  0.00     0.035 N 
ATOM     16  H10 XAP d   1     -29.492 -12.354  17.189  0.00  0.00     0.312 HD
ATOM     17  H11 XAP d   1     -28.625 -12.982  18.440  0.00  0.00     0.312 HD
ATOM     18  H12 XAP d   1     -28.492 -13.638  16.935  0.00  0.00     0.312 HD
ENDBRANCH  14  15
ENDBRANCH  11  14
ENDBRANCH   1  11
TORSDOF 5
