REMARK  4 active torsions:
REMARK  status: ('A' for Active; 'I' for Inactive)
REMARK    1  A    between atoms: C2_4  and  C1_3 
REMARK    2  A    between atoms: C1_3  and  P1_5 
REMARK    3  A    between atoms: C3_6  and  C2_4 
REMARK    4  A    between atoms: C3_6  and  P2_7 
ROOT
ATOM      1  C2  7PA d   1      51.314 -16.548  27.753  0.00  0.00    -0.042 C 
ATOM      2  H3  7PA d   1      51.951 -16.964  28.547  0.00  0.00     0.034 H 
ATOM      3  H4  7PA d   1      50.414 -16.102  28.201  0.00  0.00     0.034 H 
ENDROOT
BRANCH   1   4
ATOM      4  C1  7PA d   1      50.879 -17.694  26.831  0.00  0.00     0.040 C 
ATOM      5  H1  7PA d   1      51.699 -17.761  26.101  0.00  0.00     0.053 H 
ATOM      6  H2  7PA d   1      49.980 -17.298  26.337  0.00  0.00     0.053 H 
BRANCH   4   7
ATOM      7  P1  7PA d   1      50.448 -19.462  27.157  0.00  0.00     0.259 P 
ATOM      8  O3  7PA d   1      51.540 -19.848  28.178  0.00  0.00    -0.640 OA
ATOM      9  O4  7PA d   1      50.627 -20.264  25.867  0.00  0.00    -0.640 OA
ATOM     10  O6  7PA d   1      49.053 -19.572  27.713  0.00  0.00    -0.640 OA
ENDBRANCH   4   7
ENDBRANCH   1   4
BRANCH   1  11
ATOM     11  C3  7PA d   1      52.097 -15.440  27.035  0.00  0.00     0.040 C 
ATOM     12  H5  7PA d   1      52.488 -15.940  26.137  0.00  0.00     0.053 H 
ATOM     13  H6  7PA d   1      52.927 -15.222  27.724  0.00  0.00     0.053 H 
BRANCH  11  14
ATOM     14  P2  7PA d   1      51.592 -13.762  26.415  0.00  0.00     0.259 P 
ATOM     15  O1  7PA d   1      51.481 -14.009  24.891  0.00  0.00    -0.640 OA
ATOM     16  O2  7PA d   1      52.718 -12.777  26.734  0.00  0.00    -0.640 OA
ATOM     17  O5  7PA d   1      50.256 -13.358  27.020  0.00  0.00    -0.640 OA
ENDBRANCH  11  14
ENDBRANCH   1  11
TORSDOF 4
