REMARK  4 active torsions:
REMARK  status: ('A' for Active; 'I' for Inactive)
REMARK    1  A    between atoms: C2_21  and  N1_1 
REMARK    2  A    between atoms: C8_5  and  N6_19 
REMARK    3  A    between atoms: C19_17  and  C20_9 
REMARK    4  A    between atoms: C19_17  and  N18_18 
ROOT
ATOM      1  C20 SY1 d   1     -40.650 -20.722  14.110  0.00  0.00    -0.019 A 
ATOM      2  C21 SY1 d   1     -40.022 -21.620  13.243  0.00  0.00    -0.074 A 
ATOM      3  C22 SY1 d   1     -38.632 -21.774  13.228  0.00  0.00    -0.082 A 
ATOM      4  C24 SY1 d   1     -38.463 -20.126  14.967  0.00  0.00    -0.062 A 
ATOM      5  C26 SY1 d   1     -40.365 -19.137  15.807  0.00  0.00     0.100 C 
ATOM      6  N27 SY1 d   1     -40.861 -18.435  16.582  0.00  0.00    -0.191 NA
ATOM      7  C25 SY1 d   1     -39.852 -19.976  14.978  0.00  0.00     0.052 A 
ATOM      8  C23 SY1 d   1     -37.842 -21.022  14.095  0.00  0.00    -0.082 A 
ATOM      9  H11 SY1 d   1     -40.627 -22.212  12.566  0.00  0.00     0.084 H 
ATOM     10  H12 SY1 d   1     -38.170 -22.477  12.544  0.00  0.00     0.083 H 
ATOM     11  H13 SY1 d   1     -37.858 -19.537  15.647  0.00  0.00     0.085 H 
ATOM     12  H14 SY1 d   1     -36.764 -21.131  14.092  0.00  0.00     0.083 H 
ENDROOT
BRANCH   1  13
ATOM     13  C19 SY1 d   1     -42.175 -20.612  14.080  0.00  0.00     0.030 C 
ATOM     14  H15 SY1 d   1     -42.560 -21.020  15.026  0.00  0.00     0.072 H 
ATOM     15  H16 SY1 d   1     -42.539 -21.224  13.242  0.00  0.00     0.072 H 
BRANCH  13  16
ATOM     16  N18 SY1 d   1     -42.729 -19.244  13.917  0.00  0.00    -0.285 N 
ATOM     17  C8  SY1 d   1     -43.738 -18.724  14.691  0.00  0.00     0.165 A 
ATOM     18  N9  SY1 d   1     -44.201 -17.468  14.465  0.00  0.00    -0.331 N 
ATOM     19  C10 SY1 d   1     -43.722 -16.657  13.499  0.00  0.00     0.050 A 
ATOM     20  H20 SY1 d   1     -44.960 -17.114  15.064  0.00  0.00     0.168 HD
ATOM     21  C15 SY1 d   1     -42.701 -17.123  12.683  0.00  0.00     0.059 A 
ATOM     22  C11 SY1 d   1     -44.236 -15.373  13.323  0.00  0.00    -0.056 A 
ATOM     23  C16 SY1 d   1     -42.201 -18.492  12.930  0.00  0.00     0.262 A 
ATOM     24  C14 SY1 d   1     -42.172 -16.328  11.672  0.00  0.00    -0.065 A 
ATOM     25  O17 SY1 d   1     -41.280 -18.925  12.194  0.00  0.00    -0.267 OA
ATOM     26  C13 SY1 d   1     -42.683 -15.043  11.494  0.00  0.00    -0.082 A 
ATOM     27  H21 SY1 d   1     -41.378 -16.700  11.035  0.00  0.00     0.085 H 
ATOM     28  C12 SY1 d   1     -43.708 -14.568  12.321  0.00  0.00    -0.081 A 
ATOM     29  H10 SY1 d   1     -42.284 -14.408  10.711  0.00  0.00     0.083 H 
ATOM     30  H22 SY1 d   1     -44.093 -13.565  12.178  0.00  0.00     0.083 H 
ATOM     31  H23 SY1 d   1     -45.035 -15.008  13.958  0.00  0.00     0.086 H 
BRANCH  17  32
ATOM     32  N6  SY1 d   1     -44.467 -19.349  15.749  0.00  0.00    -0.252 NA
ATOM     33  C5  SY1 d   1     -44.855 -20.711  15.371  0.00  0.00    -0.014 C 
ATOM     34  C4  SY1 d   1     -45.834 -21.238  16.398  0.00  0.00    -0.052 C 
ATOM     35  H6  SY1 d   1     -45.330 -20.699  14.379  0.00  0.00     0.056 H 
ATOM     36  H7  SY1 d   1     -43.964 -21.356  15.344  0.00  0.00     0.056 H 
ATOM     37  C3  SY1 d   1     -45.167 -21.275  17.776  0.00  0.00    -0.036 C 
ATOM     38  H4  SY1 d   1     -46.148 -22.254  16.116  0.00  0.00     0.034 H 
ATOM     39  H5  SY1 d   1     -46.714 -20.579  16.436  0.00  0.00     0.034 H 
ATOM     40  C2  SY1 d   1     -44.532 -19.908  18.125  0.00  0.00     0.111 C 
ATOM     41  H17 SY1 d   1     -44.382 -22.046  17.774  0.00  0.00     0.036 H 
ATOM     42  H18 SY1 d   1     -45.924 -21.524  18.535  0.00  0.00     0.036 H 
ATOM     43  C7  SY1 d   1     -43.678 -19.387  16.968  0.00  0.00     0.013 C 
ATOM     44  H19 SY1 d   1     -45.248 -19.173  18.522  0.00  0.00     0.085 H 
ATOM     45  H8  SY1 d   1     -43.323 -18.373  17.204  0.00  0.00     0.059 H 
ATOM     46  H9  SY1 d   1     -42.815 -20.053  16.823  0.00  0.00     0.059 H 
BRANCH  40  47
ATOM     47  N1  SY1 d   1     -43.477 -20.330  19.022  0.00  0.00    -0.074 N 
ATOM     48  H1  SY1 d   1     -42.963 -19.523  19.340  0.00  0.00     0.274 HD
ATOM     49  H2  SY1 d   1     -42.853 -20.956  18.537  0.00  0.00     0.274 HD
ATOM     50  H3  SY1 d   1     -43.880 -20.805  19.814  0.00  0.00     0.274 HD
ENDBRANCH  40  47
ENDBRANCH  17  32
ENDBRANCH  13  16
ENDBRANCH   1  13
TORSDOF 4
