REMARK  3 active torsions:
REMARK  status: ('A' for Active; 'I' for Inactive)
REMARK    1  A    between atoms: N2_13  and  C10_2 
REMARK    2  A    between atoms: S1_14  and  N2_13 
REMARK    3  A    between atoms: C8_17  and  S1_14 
ROOT
ATOM      1  C1  TMJ d   1      28.956  46.053  19.338  0.00  0.00    -0.018 C 
ATOM      2  C6  TMJ d   1      28.180  46.117  16.937  0.00  0.00    -0.075 A 
ATOM      3  C4  TMJ d   1      28.529  43.958  17.944  0.00  0.00    -0.025 A 
ATOM      4  C2  TMJ d   1      29.042  45.083  20.515  0.00  0.00     0.086 C 
ATOM      5  C3  TMJ d   1      28.900  43.090  19.151  0.00  0.00     0.106 C 
ATOM      6  C8  TMJ d   1      27.792  44.116  15.651  0.00  0.00     0.080 A 
ATOM      7  C9  TMJ d   1      28.155  43.345  16.751  0.00  0.00    -0.052 A 
ATOM      8  C7  TMJ d   1      27.803  45.505  15.745  0.00  0.00    -0.060 A 
ATOM      9  C5  TMJ d   1      28.545  45.346  18.039  0.00  0.00    -0.049 A 
ATOM     10  N1  TMJ d   1      29.735  43.858  20.084  0.00  0.00    -0.071 N 
ATOM     11  H1  TMJ d   1      29.940  46.521  19.191  0.00  0.00     0.042 H 
ATOM     12  H2  TMJ d   1      28.212  46.829  19.571  0.00  0.00     0.042 H 
ATOM     13  H7  TMJ d   1      28.190  47.199  17.008  0.00  0.00     0.084 H 
ATOM     14  H8  TMJ d   1      28.028  44.830  20.858  0.00  0.00     0.076 H 
ATOM     15  H9  TMJ d   1      29.602  45.552  21.338  0.00  0.00     0.076 H 
ATOM     16  H10 TMJ d   1      29.457  42.206  18.807  0.00  0.00     0.083 H 
ATOM     17  H11 TMJ d   1      27.982  42.768  19.664  0.00  0.00     0.083 H 
ATOM     18  H13 TMJ d   1      28.147  42.263  16.679  0.00  0.00     0.086 H 
ATOM     19  H14 TMJ d   1      27.518  46.109  14.891  0.00  0.00     0.085 H 
ATOM     20  H15 TMJ d   1      29.936  43.290  20.892  0.00  0.00     0.277 HD
ATOM     21  H16 TMJ d   1      30.597  44.109  19.626  0.00  0.00     0.277 HD
ENDROOT
BRANCH   6  22
ATOM     22  S1  TMJ d   1      27.318  43.337  14.157  0.00  0.00     0.263 S 
ATOM     23  O2  TMJ d   1      25.896  43.205  14.119  0.00  0.00    -0.200 OA
ATOM     24  O1  TMJ d   1      27.944  41.976  14.078  0.00  0.00    -0.200 OA
BRANCH  22  25
ATOM     25  N2  TMJ d   1      27.828  44.220  12.885  0.00  0.00    -0.281 N 
ATOM     26  H12 TMJ d   1      28.807  44.269  12.689  0.00  0.00     0.179 HD
BRANCH  25  27
ATOM     27  C10 TMJ d   1      26.888  44.948  12.017  0.00  0.00     0.042 A 
ATOM     28  C12 TMJ d   1      25.809  45.643  12.563  0.00  0.00    -0.055 A 
ATOM     29  C13 TMJ d   1      24.965  46.380  11.739  0.00  0.00    -0.060 A 
ATOM     30  H5  TMJ d   1      25.628  45.609  13.631  0.00  0.00     0.087 H 
ATOM     31  C14 TMJ d   1      25.199  46.424  10.367  0.00  0.00     0.034 A 
ATOM     32  H3  TMJ d   1      24.126  46.919  12.164  0.00  0.00     0.086 H 
ATOM     33  C15 TMJ d   1      26.270  45.726   9.821  0.00  0.00    -0.060 A 
ATOM     34 CL1  TMJ d   1      24.178  47.364   9.332  0.00  0.00    -0.084 Cl
ATOM     35  C11 TMJ d   1      27.115  44.984  10.647  0.00  0.00    -0.055 A 
ATOM     36  H4  TMJ d   1      26.449  45.758   8.752  0.00  0.00     0.086 H 
ATOM     37  H6  TMJ d   1      27.948  44.436  10.220  0.00  0.00     0.087 H 
ENDBRANCH  25  27
ENDBRANCH  22  25
ENDBRANCH   6  22
TORSDOF 3
