REMARK  3 active torsions:
REMARK  status: ('A' for Active; 'I' for Inactive)
REMARK    1  A    between atoms: N2_13  and  C10_2 
REMARK    2  A    between atoms: S1_14  and  N2_13 
REMARK    3  A    between atoms: C8_17  and  S1_14 
ROOT
ATOM      1  C1  TMJ d   1      29.146  45.748  19.214  0.00  0.00    -0.018 C 
ATOM      2  C6  TMJ d   1      28.371  45.825  16.811  0.00  0.00    -0.075 A 
ATOM      3  C4  TMJ d   1      28.633  43.665  17.842  0.00  0.00    -0.025 A 
ATOM      4  C2  TMJ d   1      29.307  44.771  20.383  0.00  0.00     0.086 C 
ATOM      5  C3  TMJ d   1      29.026  42.792  19.037  0.00  0.00     0.106 C 
ATOM      6  C8  TMJ d   1      27.903  43.830  15.546  0.00  0.00     0.080 A 
ATOM      7  C9  TMJ d   1      28.231  43.058  16.652  0.00  0.00    -0.052 A 
ATOM      8  C7  TMJ d   1      27.974  45.222  15.627  0.00  0.00    -0.060 A 
ATOM      9  C5  TMJ d   1      28.702  45.050  17.926  0.00  0.00    -0.049 A 
ATOM     10  N1  TMJ d   1      29.948  43.535  19.910  0.00  0.00    -0.071 N 
ATOM     11  H1  TMJ d   1      30.111  46.243  19.032  0.00  0.00     0.042 H 
ATOM     12  H2  TMJ d   1      28.392  46.502  19.485  0.00  0.00     0.042 H 
ATOM     13  H7  TMJ d   1      28.425  46.906  16.872  0.00  0.00     0.084 H 
ATOM     14  H8  TMJ d   1      28.317  44.533  20.800  0.00  0.00     0.076 H 
ATOM     15  H9  TMJ d   1      29.932  45.232  21.162  0.00  0.00     0.076 H 
ATOM     16  H10 TMJ d   1      29.521  41.878  18.676  0.00  0.00     0.083 H 
ATOM     17  H11 TMJ d   1      28.124  42.521  19.604  0.00  0.00     0.083 H 
ATOM     18  H13 TMJ d   1      28.174  41.977  16.591  0.00  0.00     0.086 H 
ATOM     19  H14 TMJ d   1      27.719  45.830  14.766  0.00  0.00     0.085 H 
ATOM     20  H15 TMJ d   1      30.192  42.962  20.702  0.00  0.00     0.277 HD
ATOM     21  H16 TMJ d   1      30.782  43.768  19.394  0.00  0.00     0.277 HD
ENDROOT
BRANCH   6  22
ATOM     22  S1  TMJ d   1      27.394  43.054  14.063  0.00  0.00     0.263 S 
ATOM     23  O2  TMJ d   1      25.970  42.935  14.053  0.00  0.00    -0.200 OA
ATOM     24  O1  TMJ d   1      28.008  41.689  13.983  0.00  0.00    -0.200 OA
BRANCH  22  25
ATOM     25  N2  TMJ d   1      27.875  43.934  12.776  0.00  0.00    -0.281 N 
ATOM     26  H12 TMJ d   1      28.845  43.955  12.535  0.00  0.00     0.179 HD
BRANCH  25  27
ATOM     27  C10 TMJ d   1      26.918  44.696  11.963  0.00  0.00     0.042 A 
ATOM     28  C12 TMJ d   1      25.856  45.375  12.559  0.00  0.00    -0.055 A 
ATOM     29  C13 TMJ d   1      25.001  46.156  11.785  0.00  0.00    -0.060 A 
ATOM     30  H5  TMJ d   1      25.695  45.295  13.628  0.00  0.00     0.087 H 
ATOM     31  C14 TMJ d   1      25.200  46.263  10.413  0.00  0.00     0.034 A 
ATOM     32  H3  TMJ d   1      24.177  46.682  12.254  0.00  0.00     0.086 H 
ATOM     33  C15 TMJ d   1      26.255  45.575   9.817  0.00  0.00    -0.060 A 
ATOM     34 CL1  TMJ d   1      24.176  47.274   9.450  0.00  0.00    -0.084 Cl
ATOM     35  C11 TMJ d   1      27.110  44.794  10.588  0.00  0.00    -0.055 A 
ATOM     36  H4  TMJ d   1      26.410  45.649   8.747  0.00  0.00     0.086 H 
ATOM     37  H6  TMJ d   1      27.928  44.261  10.117  0.00  0.00     0.087 H 
ENDBRANCH  25  27
ENDBRANCH  22  25
ENDBRANCH   6  22
TORSDOF 3
