REMARK  13 active torsions:
REMARK  status: ('A' for Active; 'I' for Inactive)
REMARK    1  A    between atoms: C28_1  and  N6_2 
REMARK    2  A    between atoms: N6_2  and  C29_3 
REMARK    3  A    between atoms: N6_2  and  C27_4 
REMARK    4  A    between atoms: C27_4  and  C26_5 
REMARK    5  A    between atoms: C26_5  and  C25_6 
REMARK    6  A    between atoms: C25_6  and  C20_7 
REMARK    7  A    between atoms: C22_10  and  C24_11 
REMARK    8  A    between atoms: C18_16  and  N5_17 
REMARK       I    between atoms: N5_17  and  C17_18 
REMARK    9  A    between atoms: C17_18  and  C12_20 
REMARK   10  A    between atoms: C15_24  and  C16_25 
REMARK   11  A    between atoms: C10_26  and  N4_27 
REMARK   12  A    between atoms: N4_27  and  C9_28 
REMARK   13  A    between atoms: C5_33  and  C3_34 
ROOT
ATOM      1  N5  RAJ d   1      53.144   1.380  70.859  0.00  0.00    -0.323 N 
ATOM      2  C17 RAJ d   1      53.619   1.327  72.115  0.00  0.00     0.256 C 
ATOM      3  O1  RAJ d   1      54.197   2.252  72.677  0.00  0.00    -0.267 OA
ATOM      4  H17 RAJ d   1      52.647   0.578  70.528  0.00  0.00     0.169 HD
ENDROOT
BRANCH   2   5
ATOM      5  C12 RAJ d   1      53.390   0.011  72.886  0.00  0.00     0.034 A 
ATOM      6  C11 RAJ d   1      53.613   0.003  74.262  0.00  0.00    -0.041 A 
ATOM      7  C10 RAJ d   1      53.422  -1.160  75.022  0.00  0.00     0.040 A 
ATOM      8  H18 RAJ d   1      53.940   0.912  74.753  0.00  0.00     0.088 H 
ATOM      9  C15 RAJ d   1      53.040  -2.342  74.369  0.00  0.00    -0.035 A 
ATOM     10  C14 RAJ d   1      52.821  -2.345  72.976  0.00  0.00    -0.074 A 
ATOM     11  C13 RAJ d   1      53.007  -1.171  72.235  0.00  0.00    -0.067 A 
ATOM     12  H20 RAJ d   1      52.509  -3.256  72.478  0.00  0.00     0.084 H 
ATOM     13  H19 RAJ d   1      52.855  -1.176  71.162  0.00  0.00     0.085 H 
BRANCH   7  14
ATOM     14  N4  RAJ d   1      53.676  -1.123  76.347  0.00  0.00    -0.340 N 
ATOM     15  H24 RAJ d   1      54.660  -1.245  76.626  0.00  0.00     0.167 HD
BRANCH  14  16
ATOM     16  C9  RAJ d   1      52.805  -0.948  77.332  0.00  0.00     0.140 A 
ATOM     17  N3  RAJ d   1      51.518  -0.725  77.031  0.00  0.00    -0.242 NA
ATOM     18  C8  RAJ d   1      50.591  -0.539  77.961  0.00  0.00     0.004 A 
ATOM     19  C7  RAJ d   1      50.937  -0.559  79.309  0.00  0.00    -0.065 A 
ATOM     20  H25 RAJ d   1      49.560  -0.371  77.670  0.00  0.00     0.114 H 
ATOM     21  C6  RAJ d   1      52.266  -0.767  79.676  0.00  0.00    -0.066 A 
ATOM     22  H26 RAJ d   1      50.178  -0.414  80.069  0.00  0.00     0.085 H 
ATOM     23  C5  RAJ d   1      53.224  -0.981  78.679  0.00  0.00     0.039 A 
ATOM     24  H27 RAJ d   1      52.553  -0.763  80.721  0.00  0.00     0.085 H 
BRANCH  23  25
ATOM     25  C3  RAJ d   1      54.554  -1.173  79.075  0.00  0.00     0.073 A 
ATOM     26  C2  RAJ d   1      54.895  -1.131  80.420  0.00  0.00    -0.037 A 
ATOM     27  C1  RAJ d   1      56.230  -1.313  80.779  0.00  0.00     0.006 A 
ATOM     28  H28 RAJ d   1      54.138  -0.960  81.177  0.00  0.00     0.089 H 
ATOM     29  N2  RAJ d   1      57.141  -1.504  79.841  0.00  0.00    -0.254 NA
ATOM     30  H29 RAJ d   1      56.519  -1.298  81.823  0.00  0.00     0.114 H 
ATOM     31  C4  RAJ d   1      56.799  -1.513  78.562  0.00  0.00     0.086 A 
ATOM     32  N1  RAJ d   1      55.538  -1.341  78.184  0.00  0.00    -0.241 NA
ATOM     33  H30 RAJ d   1      57.564  -1.664  77.809  0.00  0.00     0.146 H 
ENDBRANCH  23  25
ENDBRANCH  14  16
ENDBRANCH   7  14
BRANCH   9  34
ATOM     34  C16 RAJ d   1      52.835  -3.650  75.160  0.00  0.00    -0.049 C 
ATOM     35  H21 RAJ d   1      52.540  -4.454  74.469  0.00  0.00     0.033 H 
ATOM     36  H22 RAJ d   1      52.045  -3.504  75.912  0.00  0.00     0.033 H 
ATOM     37  H23 RAJ d   1      53.774  -3.925  75.663  0.00  0.00     0.033 H 
ENDBRANCH   9  34
ENDBRANCH   2   5
BRANCH   1  38
ATOM     38  C18 RAJ d   1      53.276   2.415  70.003  0.00  0.00     0.036 A 
ATOM     39  C19 RAJ d   1      52.340   2.606  68.978  0.00  0.00    -0.051 A 
ATOM     40  C20 RAJ d   1      52.505   3.647  68.051  0.00  0.00    -0.055 A 
ATOM     41  H14 RAJ d   1      51.483   1.946  68.900  0.00  0.00     0.087 H 
ATOM     42  C21 RAJ d   1      53.612   4.505  68.133  0.00  0.00    -0.062 A 
ATOM     43  C22 RAJ d   1      54.578   4.307  69.135  0.00  0.00     0.050 A 
ATOM     44  H15 RAJ d   1      53.722   5.319  67.425  0.00  0.00     0.085 H 
ATOM     45  C23 RAJ d   1      54.408   3.265  70.061  0.00  0.00    -0.043 A 
ATOM     46  H16 RAJ d   1      55.154   3.109  70.832  0.00  0.00     0.088 H 
BRANCH  40  47
ATOM     47  C25 RAJ d   1      51.459   3.882  66.938  0.00  0.00    -0.039 C 
ATOM     48  H12 RAJ d   1      51.663   4.848  66.452  0.00  0.00     0.040 H 
ATOM     49  H13 RAJ d   1      51.537   3.074  66.196  0.00  0.00     0.040 H 
BRANCH  47  50
ATOM     50  C26 RAJ d   1      50.042   3.900  67.508  0.00  0.00    -0.039 C 
ATOM     51  H10 RAJ d   1      49.362   3.380  66.817  0.00  0.00     0.035 H 
ATOM     52  H11 RAJ d   1      50.033   3.391  68.483  0.00  0.00     0.035 H 
BRANCH  50  53
ATOM     53  C27 RAJ d   1      49.577   5.354  67.686  0.00  0.00     0.083 C 
ATOM     54  H8  RAJ d   1      50.136   5.791  68.526  0.00  0.00     0.075 H 
ATOM     55  H9  RAJ d   1      49.814   5.903  66.763  0.00  0.00     0.075 H 
BRANCH  53  56
ATOM     56  N6  RAJ d   1      48.131   5.520  67.961  0.00  0.00    -0.079 N 
ATOM     57  H4  RAJ d   1      47.968   6.501  68.124  0.00  0.00     0.278 HD
BRANCH  56  58
ATOM     58  C28 RAJ d   1      47.722   4.805  69.194  0.00  0.00     0.066 C 
ATOM     59  H1  RAJ d   1      46.645   4.952  69.363  0.00  0.00     0.068 H 
ATOM     60  H2  RAJ d   1      48.285   5.201  70.052  0.00  0.00     0.068 H 
ATOM     61  H3  RAJ d   1      47.932   3.731  69.082  0.00  0.00     0.068 H 
ENDBRANCH  56  58
BRANCH  56  62
ATOM     62  C29 RAJ d   1      47.322   5.135  66.783  0.00  0.00     0.066 C 
ATOM     63  H5  RAJ d   1      47.669   5.694  65.901  0.00  0.00     0.068 H 
ATOM     64  H6  RAJ d   1      46.264   5.368  66.973  0.00  0.00     0.068 H 
ATOM     65  H7  RAJ d   1      47.432   4.056  66.599  0.00  0.00     0.068 H 
ENDBRANCH  56  62
ENDBRANCH  53  56
ENDBRANCH  50  53
ENDBRANCH  47  50
ENDBRANCH  40  47
BRANCH  43  66
ATOM     66  C24 RAJ d   1      55.800   5.248  69.245  0.00  0.00     0.417 C 
ATOM     67  F2  RAJ d   1      55.429   6.411  69.789  0.00  0.00    -0.166 F 
ATOM     68  F3  RAJ d   1      56.750   4.674  70.006  0.00  0.00    -0.166 F 
ATOM     69  F1  RAJ d   1      56.306   5.518  68.037  0.00  0.00    -0.166 F 
ENDBRANCH  43  66
ENDBRANCH   1  38
TORSDOF 13
