REMARK  5 active torsions:
REMARK  status: ('A' for Active; 'I' for Inactive)
REMARK    1  A    between atoms: C1_1  and  O1_2 
REMARK    2  A    between atoms: C4_5  and  C7_8 
REMARK    3  A    between atoms: N8_9  and  O9_10 
REMARK    4  A    between atoms: O9_10  and  C10_11 
REMARK    5  A    between atoms: C10_11  and  C11_13 
ROOT
ATOM      1  C10 OX3 d   1     -54.040  25.648  30.151  0.00  0.00     0.287 C 
ATOM      2  O10 OX3 d   1     -52.984  26.079  29.783  0.00  0.00    -0.263 OA
ENDROOT
BRANCH   1   3
ATOM      3  O9  OX3 d   1     -54.113  24.351  30.625  0.00  0.00    -0.175 OA
BRANCH   3   4
ATOM      4  N8  OX3 d   1     -54.785  24.062  31.796  0.00  0.00    -0.136 NA
ATOM      5  C7  OX3 d   1     -54.225  23.629  32.891  0.00  0.00     0.039 C 
ATOM      6  H6  OX3 d   1     -54.936  23.482  33.703  0.00  0.00     0.119 H 
BRANCH   5   7
ATOM      7  C4  OX3 d   1     -52.897  23.309  33.255  0.00  0.00    -0.016 A 
ATOM      8  C3  OX3 d   1     -52.376  22.064  33.682  0.00  0.00    -0.069 A 
ATOM      9  C2  OX3 d   1     -50.977  21.912  33.868  0.00  0.00    -0.050 A 
ATOM     10  H3  OX3 d   1     -53.043  21.230  33.866  0.00  0.00     0.085 H 
ATOM     11  C1  OX3 d   1     -50.104  23.002  33.628  0.00  0.00     0.065 A 
ATOM     12  H2  OX3 d   1     -50.575  20.959  34.194  0.00  0.00     0.087 H 
ATOM     13  C6  OX3 d   1     -50.630  24.254  33.208  0.00  0.00    -0.050 A 
ATOM     14  C5  OX3 d   1     -52.023  24.402  33.023  0.00  0.00    -0.069 A 
ATOM     15  H5  OX3 d   1     -49.965  25.092  33.030  0.00  0.00     0.087 H 
ATOM     16  H4  OX3 d   1     -52.426  25.356  32.702  0.00  0.00     0.085 H 
BRANCH  11  17
ATOM     17  O1  OX3 d   1     -48.771  22.857  33.792  0.00  0.00    -0.361 OA
ATOM     18  H1  OX3 d   1     -48.337  23.678  33.591  0.00  0.00     0.217 HD
ENDBRANCH  11  17
ENDBRANCH   5   7
ENDBRANCH   3   4
ENDBRANCH   1   3
BRANCH   1  19
ATOM     19  C11 OX3 d   1     -55.296  26.505  30.108  0.00  0.00     0.032 C 
ATOM     20  C12 OX3 d   1     -56.404  25.771  29.290  0.00  0.00    -0.053 C 
ATOM     21  C13 OX3 d   1     -57.684  26.640  29.269  0.00  0.00    -0.064 C 
ATOM     22  H8  OX3 d   1     -56.626  24.801  29.759  0.00  0.00     0.034 H 
ATOM     23  H9  OX3 d   1     -56.053  25.608  28.260  0.00  0.00     0.034 H 
ATOM     24  C14 OX3 d   1     -57.381  28.001  28.613  0.00  0.00    -0.065 C 
ATOM     25  H10 OX3 d   1     -58.033  26.801  30.300  0.00  0.00     0.033 H 
ATOM     26  H11 OX3 d   1     -58.467  26.124  28.694  0.00  0.00     0.033 H 
ATOM     27  C15 OX3 d   1     -56.291  28.734  29.409  0.00  0.00    -0.064 C 
ATOM     28  H12 OX3 d   1     -58.296  28.611  28.600  0.00  0.00     0.033 H 
ATOM     29  H13 OX3 d   1     -57.033  27.840  27.582  0.00  0.00     0.033 H 
ATOM     30  C16 OX3 d   1     -54.997  27.884  29.434  0.00  0.00    -0.053 C 
ATOM     31  H14 OX3 d   1     -56.640  28.898  30.439  0.00  0.00     0.033 H 
ATOM     32  H15 OX3 d   1     -56.082  29.704  28.934  0.00  0.00     0.033 H 
ATOM     33  H16 OX3 d   1     -54.645  27.721  28.405  0.00  0.00     0.034 H 
ATOM     34  H17 OX3 d   1     -54.221  28.413  30.008  0.00  0.00     0.034 H 
ATOM     35  H7  OX3 d   1     -55.651  26.674  31.135  0.00  0.00     0.055 H 
ENDBRANCH   1  19
TORSDOF 5
