REMARK  3 active torsions:
REMARK  status: ('A' for Active; 'I' for Inactive)
REMARK    1  A    between atoms: O1_1  and  C1_2 
REMARK    2  A    between atoms: C4_5  and  C7_8 
REMARK    3  A    between atoms: N8_9  and  O9_10 
ROOT
ATOM      1  C1  OX5 d   1      27.053  37.007  27.939  0.00  0.00     0.065 A 
ATOM      2  C2  OX5 d   1      27.098  38.413  28.151  0.00  0.00    -0.050 A 
ATOM      3  C3  OX5 d   1      27.192  39.279  27.055  0.00  0.00    -0.069 A 
ATOM      4  C4  OX5 d   1      27.244  38.747  25.731  0.00  0.00    -0.016 A 
ATOM      5  C5  OX5 d   1      27.196  37.347  25.522  0.00  0.00    -0.069 A 
ATOM      6  C6  OX5 d   1      27.101  36.479  26.624  0.00  0.00    -0.050 A 
ATOM      7  H2  OX5 d   1      27.060  38.812  29.158  0.00  0.00     0.087 H 
ATOM      8  H3  OX5 d   1      27.225  40.351  27.211  0.00  0.00     0.085 H 
ATOM      9  H4  OX5 d   1      27.232  36.946  24.516  0.00  0.00     0.085 H 
ATOM     10  H5  OX5 d   1      27.064  35.407  26.468  0.00  0.00     0.087 H 
ENDROOT
BRANCH   4  11
ATOM     11  C7  OX5 d   1      27.345  39.642  24.602  0.00  0.00     0.038 C 
ATOM     12  N8  OX5 d   1      26.431  40.493  24.448  0.00  0.00    -0.148 NA
ATOM     13  H6  OX5 d   1      28.183  39.583  23.909  0.00  0.00     0.119 H 
BRANCH  12  14
ATOM     14  O9  OX5 d   1      26.469  41.381  23.410  0.00  0.00    -0.266 OA
ATOM     15  H7  OX5 d   1      26.472  40.905  22.588  0.00  0.00     0.247 HD
ENDBRANCH  12  14
ENDBRANCH   4  11
BRANCH   1  16
ATOM     16  O1  OX5 d   1      26.966  36.173  28.996  0.00  0.00    -0.361 OA
ATOM     17  H1  OX5 d   1      26.946  35.275  28.688  0.00  0.00     0.217 HD
ENDBRANCH   1  16
TORSDOF 3
