REMARK  4 active torsions:
REMARK  status: ('A' for Active; 'I' for Inactive)
REMARK    1  A    between atoms: C16_3  and  C17_2 
REMARK    2  A    between atoms: O_10  and  C16_3 
REMARK    3  A    between atoms: C3_8  and  O_10 
REMARK    4  A    between atoms: C2_9  and  C6_17 
ROOT
ATOM      1  C5  TF5 d   1      24.116  39.157  10.397  0.00  0.00    -0.080 A 
ATOM      2  C4  TF5 d   1      22.753  39.021  10.203  0.00  0.00    -0.050 A 
ATOM      3  C3  TF5 d   1      22.139  37.821  10.536  0.00  0.00     0.080 A 
ATOM      4  C2  TF5 d   1      22.877  36.784  11.084  0.00  0.00     0.011 A 
ATOM      5  C   TF5 d   1      24.867  38.115  10.923  0.00  0.00    -0.082 A 
ATOM      6  C1  TF5 d   1      24.250  36.919  11.273  0.00  0.00    -0.069 A 
ATOM      7  H5  TF5 d   1      24.604  40.089  10.135  0.00  0.00     0.083 H 
ATOM      8  H6  TF5 d   1      22.172  39.841   9.796  0.00  0.00     0.087 H 
ATOM      9  H7  TF5 d   1      25.936  38.234  11.061  0.00  0.00     0.083 H 
ATOM     10  H9  TF5 d   1      24.830  36.102  11.688  0.00  0.00     0.085 H 
ENDROOT
BRANCH   4  11
ATOM     11  C6  TF5 d   1      22.164  35.513  11.396  0.00  0.00     0.019 A 
ATOM     12  C7  TF5 d   1      21.029  35.521  12.167  0.00  0.00     0.169 A 
ATOM     13  C8  TF5 d   1      20.367  34.323  12.426  0.00  0.00     0.194 A 
ATOM     14  F   TF5 d   1      20.644  36.735  12.644  0.00  0.00    -0.202 F 
ATOM     15  F13 TF5 d   1      19.257  34.278  13.160  0.00  0.00    -0.200 F 
ATOM     16  C9  TF5 d   1      20.813  33.127  11.901  0.00  0.00     0.158 A 
ATOM     17  C10 TF5 d   1      21.956  33.114  11.123  0.00  0.00    -0.042 A 
ATOM     18  F14 TF5 d   1      20.140  31.974  12.159  0.00  0.00    -0.203 F 
ATOM     19  C11 TF5 d   1      22.631  34.312  10.869  0.00  0.00    -0.066 A 
ATOM     20  H1  TF5 d   1      22.326  32.181  10.713  0.00  0.00     0.088 H 
ATOM     21  H8  TF5 d   1      23.525  34.306  10.257  0.00  0.00     0.085 H 
ENDBRANCH   4  11
BRANCH   3  22
ATOM     22  O   TF5 d   1      20.778  37.642  10.377  0.00  0.00    -0.344 OA
BRANCH  22  23
ATOM     23  C16 TF5 d   1      20.005  38.247   9.355  0.00  0.00     0.074 C 
ATOM     24  H3  TF5 d   1      20.210  39.327   9.330  0.00  0.00     0.086 H 
ATOM     25  H4  TF5 d   1      20.266  37.801   8.384  0.00  0.00     0.086 H 
BRANCH  23  26
ATOM     26  C17 TF5 d   1      18.539  38.018   9.638  0.00  0.00     0.111 C 
ATOM     27  O20 TF5 d   1      17.953  39.081   9.558  0.00  0.00    -0.305 OA
ATOM     28  H2  TF5 d   1      18.082  37.059   9.875  0.00  0.00     0.146 H 
ENDBRANCH  23  26
ENDBRANCH  22  23
ENDBRANCH   3  22
TORSDOF 4
