REMARK  13 active torsions:
REMARK  status: ('A' for Active; 'I' for Inactive)
REMARK    1  A    between atoms: C15_2  and  O5_3 
REMARK       I    between atoms: C15_2  and  N2_11 
REMARK    2  A    between atoms: O5_3  and  C16_4 
REMARK    3  A    between atoms: C16_4  and  C17_5 
REMARK    4  A    between atoms: N2_11  and  C7_12 
REMARK    5  A    between atoms: C7_12  and  C8_13 
REMARK    6  A    between atoms: C7_12  and  C6_20 
REMARK    7  A    between atoms: C8_13  and  C9_14 
REMARK       I    between atoms: C6_20  and  N1_22 
REMARK    8  A    between atoms: N1_22  and  C4_23 
REMARK    9  A    between atoms: C4_23  and  C5_24 
REMARK   10  A    between atoms: C4_23  and  C3_25 
REMARK   11  A    between atoms: C3_25  and  C2_27 
REMARK   12  A    between atoms: C2_27  and  C1_28 
REMARK   13  A    between atoms: C1_28  and  O1_29 
ROOT
ATOM      1  C7  WR1 d   1      -6.966  29.761  73.737  0.00  0.00     0.095 C 
ATOM      2  H9  WR1 d   1      -7.282  30.305  72.835  0.00  0.00     0.088 H 
ENDROOT
BRANCH   1   3
ATOM      3  N2  WR1 d   1      -6.695  28.382  73.384  0.00  0.00    -0.323 N 
ATOM      4  C15 WR1 d   1      -6.525  27.890  72.157  0.00  0.00     0.361 C 
ATOM      5  O4  WR1 d   1      -6.552  28.515  71.106  0.00  0.00    -0.238 OA
ATOM      6  H8  WR1 d   1      -6.629  27.731  74.140  0.00  0.00     0.165 HD
BRANCH   4   7
ATOM      7  O5  WR1 d   1      -6.231  26.468  72.134  0.00  0.00    -0.299 OA
BRANCH   7   8
ATOM      8  C16 WR1 d   1      -5.516  25.818  71.078  0.00  0.00     0.054 C 
ATOM      9  H1  WR1 d   1      -6.139  25.856  70.172  0.00  0.00     0.082 H 
ATOM     10  H2  WR1 d   1      -5.358  24.770  71.370  0.00  0.00     0.082 H 
BRANCH   8  11
ATOM     11  C17 WR1 d   1      -4.161  26.421  70.741  0.00  0.00    -0.034 A 
ATOM     12  C18 WR1 d   1      -3.462  25.900  69.644  0.00  0.00    -0.075 A 
ATOM     13  C19 WR1 d   1      -2.219  26.420  69.289  0.00  0.00    -0.082 A 
ATOM     14  H3  WR1 d   1      -3.891  25.088  69.068  0.00  0.00     0.084 H 
ATOM     15  C20 WR1 d   1      -1.664  27.462  70.032  0.00  0.00    -0.083 A 
ATOM     16  H4  WR1 d   1      -1.684  26.016  68.437  0.00  0.00     0.083 H 
ATOM     17  C21 WR1 d   1      -2.346  27.972  71.133  0.00  0.00    -0.082 A 
ATOM     18  H5  WR1 d   1      -0.702  27.875  69.752  0.00  0.00     0.083 H 
ATOM     19  C22 WR1 d   1      -3.592  27.459  71.488  0.00  0.00    -0.075 A 
ATOM     20  H6  WR1 d   1      -1.906  28.772  71.717  0.00  0.00     0.083 H 
ATOM     21  H7  WR1 d   1      -4.121  27.864  72.343  0.00  0.00     0.084 H 
ENDBRANCH   8  11
ENDBRANCH   7   8
ENDBRANCH   4   7
ENDBRANCH   1   3
BRANCH   1  22
ATOM     22  C8  WR1 d   1      -8.105  29.783  74.761  0.00  0.00    -0.014 C 
ATOM     23  H10 WR1 d   1      -8.376  30.825  74.988  0.00  0.00     0.043 H 
ATOM     24  H11 WR1 d   1      -7.781  29.279  75.683  0.00  0.00     0.043 H 
BRANCH  22  25
ATOM     25  C9  WR1 d   1      -9.307  29.059  74.181  0.00  0.00    -0.056 A 
ATOM     26  C10 WR1 d   1      -9.462  27.678  74.336  0.00  0.00    -0.077 A 
ATOM     27  C11 WR1 d   1     -10.570  27.035  73.784  0.00  0.00    -0.082 A 
ATOM     28  H12 WR1 d   1      -8.722  27.107  74.885  0.00  0.00     0.084 H 
ATOM     29  C12 WR1 d   1     -11.518  27.777  73.080  0.00  0.00    -0.083 A 
ATOM     30  H13 WR1 d   1     -10.694  25.965  73.902  0.00  0.00     0.083 H 
ATOM     31  C13 WR1 d   1     -11.354  29.154  72.931  0.00  0.00    -0.082 A 
ATOM     32  H14 WR1 d   1     -12.382  27.284  72.649  0.00  0.00     0.083 H 
ATOM     33  C14 WR1 d   1     -10.257  29.794  73.482  0.00  0.00    -0.077 A 
ATOM     34  H15 WR1 d   1     -12.091  29.727  72.380  0.00  0.00     0.083 H 
ATOM     35  H16 WR1 d   1     -10.139  30.866  73.368  0.00  0.00     0.084 H 
ENDBRANCH  22  25
ENDBRANCH   1  22
BRANCH   1  36
ATOM     36  C6  WR1 d   1      -5.734  30.441  74.302  0.00  0.00     0.241 C 
ATOM     37  O3  WR1 d   1      -4.687  29.815  74.486  0.00  0.00    -0.271 OA
ATOM     38  N1  WR1 d   1      -5.825  31.755  74.547  0.00  0.00    -0.348 N 
ATOM     39  H17 WR1 d   1      -6.714  32.203  74.446  0.00  0.00     0.163 HD
BRANCH  38  40
ATOM     40  C4  WR1 d   1      -4.680  32.556  74.954  0.00  0.00     0.066 C 
ATOM     41  H18 WR1 d   1      -4.018  31.913  75.553  0.00  0.00     0.084 H 
BRANCH  40  42
ATOM     42  C5  WR1 d   1      -5.114  33.728  75.844  0.00  0.00    -0.051 C 
ATOM     43  H19 WR1 d   1      -4.230  34.314  76.135  0.00  0.00     0.030 H 
ATOM     44  H20 WR1 d   1      -5.610  33.340  76.746  0.00  0.00     0.030 H 
ATOM     45  H21 WR1 d   1      -5.813  34.371  75.289  0.00  0.00     0.030 H 
ENDBRANCH  40  42
BRANCH  40  46
ATOM     46  C3  WR1 d   1      -3.892  33.025  73.746  0.00  0.00     0.151 C 
ATOM     47  O2  WR1 d   1      -3.257  34.088  73.811  0.00  0.00    -0.296 OA
BRANCH  46  48
ATOM     48  C2  WR1 d   1      -3.888  32.116  72.504  0.00  0.00     0.012 C 
ATOM     49  H22 WR1 d   1      -4.932  31.986  72.182  0.00  0.00     0.047 H 
ATOM     50  H23 WR1 d   1      -3.473  31.142  72.804  0.00  0.00     0.047 H 
BRANCH  48  51
ATOM     51  C1  WR1 d   1      -3.088  32.610  71.298  0.00  0.00     0.023 C 
ATOM     52  H24 WR1 d   1      -2.260  33.251  71.635  0.00  0.00     0.074 H 
ATOM     53  H25 WR1 d   1      -3.742  33.181  70.623  0.00  0.00     0.074 H 
BRANCH  51  54
ATOM     54  O1  WR1 d   1      -2.576  31.472  70.626  0.00  0.00    -0.400 OA
ATOM     55  H26 WR1 d   1      -3.297  30.922  70.342  0.00  0.00     0.209 HD
ENDBRANCH  51  54
ENDBRANCH  48  51
ENDBRANCH  46  48
ENDBRANCH  40  46
ENDBRANCH  38  40
ENDBRANCH   1  36
TORSDOF 13
