REMARK  3 active torsions:
REMARK  status: ('A' for Active; 'I' for Inactive)
REMARK    1  A    between atoms: N1_6  and  S1_7 
REMARK    2  A    between atoms: S1_7  and  C7_10 
REMARK    3  A    between atoms: C3_15  and  C11_16 
ROOT
ATOM      1  C7  F21 d   1      28.247  44.240  15.587  0.00  0.00     0.075 A 
ATOM      2  C8  F21 d   1      28.571  43.464  16.690  0.00  0.00    -0.053 A 
ATOM      3  C9  F21 d   1      29.176  44.036  17.814  0.00  0.00    -0.025 A 
ATOM      4  C1  F21 d   1      29.491  43.146  19.023  0.00  0.00     0.106 C 
ATOM      5  N2  F21 d   1      30.382  43.828  19.975  0.00  0.00    -0.064 N 
ATOM      6  C3  F21 d   1      29.858  45.165  20.280  0.00  0.00     0.130 C 
ATOM      7  C4  F21 d   1      30.061  46.063  19.054  0.00  0.00    -0.011 C 
ATOM      8  C10 F21 d   1      29.453  45.392  17.824  0.00  0.00    -0.048 A 
ATOM      9  C5  F21 d   1      29.133  46.176  16.700  0.00  0.00    -0.075 A 
ATOM     10  C6  F21 d   1      28.533  45.607  15.591  0.00  0.00    -0.060 A 
ATOM     11  H9  F21 d   1      28.353  42.402  16.681  0.00  0.00     0.086 H 
ATOM     12  H10 F21 d   1      29.980  42.225  18.672  0.00  0.00     0.083 H 
ATOM     13  H11 F21 d   1      28.551  42.890  19.533  0.00  0.00     0.083 H 
ATOM     14  H12 F21 d   1      31.301  43.914  19.570  0.00  0.00     0.278 HD
ATOM     15  H13 F21 d   1      30.438  43.289  20.825  0.00  0.00     0.278 HD
ATOM     16  H14 F21 d   1      28.784  45.090  20.506  0.00  0.00     0.088 H 
ATOM     17  H17 F21 d   1      31.137  46.222  18.890  0.00  0.00     0.043 H 
ATOM     18  H18 F21 d   1      29.569  47.032  19.224  0.00  0.00     0.043 H 
ATOM     19  H19 F21 d   1      29.359  47.236  16.703  0.00  0.00     0.084 H 
ATOM     20  H20 F21 d   1      28.286  46.218  14.730  0.00  0.00     0.085 H 
ENDROOT
BRANCH   1  21
ATOM     21  S1  F21 d   1      27.490  43.430  14.232  0.00  0.00     0.243 S 
ATOM     22  O2  F21 d   1      26.372  42.683  14.711  0.00  0.00    -0.206 OA
ATOM     23  O1  F21 d   1      28.506  42.487  13.658  0.00  0.00    -0.206 OA
BRANCH  21  24
ATOM     24  N1  F21 d   1      26.951  44.363  13.009  0.00  0.00    -0.205 NA
ATOM     25  C12 F21 d   1      26.124  45.471  13.522  0.00  0.00     0.001 C 
ATOM     26  C13 F21 d   1      25.330  46.095  12.372  0.00  0.00    -0.011 C 
ATOM     27  H1  F21 d   1      25.427  45.086  14.281  0.00  0.00     0.058 H 
ATOM     28  H2  F21 d   1      26.774  46.234  13.974  0.00  0.00     0.058 H 
ATOM     29  S2  F21 d   1      26.536  46.683  11.131  0.00  0.00    -0.167 SA
ATOM     30  H3  F21 d   1      24.731  46.939  12.743  0.00  0.00     0.050 H 
ATOM     31  H4  F21 d   1      24.665  45.343  11.923  0.00  0.00     0.050 H 
ATOM     32  C15 F21 d   1      27.651  45.268  10.830  0.00  0.00    -0.011 C 
ATOM     33  C14 F21 d   1      28.112  44.780  12.206  0.00  0.00     0.001 C 
ATOM     34  H5  F21 d   1      28.516  45.586  10.230  0.00  0.00     0.050 H 
ATOM     35  H6  F21 d   1      27.114  44.466  10.302  0.00  0.00     0.050 H 
ATOM     36  H7  F21 d   1      28.639  45.595  12.724  0.00  0.00     0.058 H 
ATOM     37  H8  F21 d   1      28.793  43.925  12.080  0.00  0.00     0.058 H 
ENDBRANCH  21  24
ENDBRANCH   1  21
BRANCH   6  38
ATOM     38  C11 F21 d   1      30.581  45.771  21.487  0.00  0.00     0.085 C 
ATOM     39  F1  F21 d   1      30.191  45.134  22.655  0.00  0.00    -0.253 F 
ATOM     40  H15 F21 d   1      30.334  46.840  21.558  0.00  0.00     0.085 H 
ATOM     41  H16 F21 d   1      31.667  45.653  21.355  0.00  0.00     0.085 H 
ENDBRANCH   6  38
TORSDOF 3
