REMARK  8 active torsions:
REMARK  status: ('A' for Active; 'I' for Inactive)
REMARK    1  A    between atoms: C3_3  and  C15_7 
REMARK    2  A    between atoms: C6_6  and  N20_11 
REMARK    3  A    between atoms: C15_7  and  C17_8 
REMARK    4  A    between atoms: C15_7  and  C35_18 
REMARK    5  A    between atoms: C17_8  and  C18_9 
REMARK    6  A    between atoms: C17_8  and  N33_17 
REMARK       I    between atoms: C18_9  and  N19_10 
REMARK       I    between atoms: N20_11  and  C22_12 
REMARK    7  A    between atoms: N20_11  and  C23_13 
REMARK    8  A    between atoms: C22_12  and  C27_14 
ROOT
ATOM      1  C1  277 d   1      42.789  50.911  34.547  0.00  0.00    -0.046 C 
ATOM      2  C2  277 d   1      41.415  50.619  35.149  0.00  0.00    -0.059 C 
ATOM      3  C3  277 d   1      40.752  51.911  35.704  0.00  0.00    -0.049 C 
ATOM      4  C4  277 d   1      41.692  52.572  36.774  0.00  0.00    -0.059 C 
ATOM      5  C5  277 d   1      43.096  52.875  36.210  0.00  0.00    -0.046 C 
ATOM      6  C6  277 d   1      43.709  51.586  35.591  0.00  0.00     0.014 C 
ATOM      7  H1  277 d   1      42.670  51.581  33.683  0.00  0.00     0.036 H 
ATOM      8  H2  277 d   1      43.248  49.967  34.218  0.00  0.00     0.036 H 
ATOM      9  H3  277 d   1      41.530  49.895  35.969  0.00  0.00     0.033 H 
ATOM     10  H4  277 d   1      40.767  50.191  34.370  0.00  0.00     0.033 H 
ATOM     11  H5  277 d   1      40.620  52.616  34.870  0.00  0.00     0.040 H 
ATOM     12  H6  277 d   1      41.794  51.886  37.628  0.00  0.00     0.033 H 
ATOM     13  H7  277 d   1      41.236  53.514  37.113  0.00  0.00     0.033 H 
ATOM     14  H8  277 d   1      43.745  53.234  37.022  0.00  0.00     0.036 H 
ATOM     15  H9  277 d   1      43.017  53.650  35.434  0.00  0.00     0.036 H 
ATOM     16  H10 277 d   1      43.836  50.863  36.411  0.00  0.00     0.072 H 
ENDROOT
BRANCH   3  17
ATOM     17  C15 277 d   1      39.356  51.622  36.319  0.00  0.00    -0.018 C 
ATOM     18  H11 277 d   1      39.011  52.549  36.799  0.00  0.00     0.043 H 
BRANCH  17  19
ATOM     19  C17 277 d   1      38.295  51.219  35.231  0.00  0.00     0.179 C 
ATOM     20  H12 277 d   1      38.528  50.217  34.841  0.00  0.00     0.099 H 
BRANCH  19  21
ATOM     21  C18 277 d   1      36.853  51.236  35.839  0.00  0.00     0.251 C 
ATOM     22  N19 277 d   1      36.107  50.111  35.785  0.00  0.00    -0.348 N 
ATOM     23  C42 277 d   1      36.656  48.821  35.428  0.00  0.00     0.026 C 
ATOM     24  C45 277 d   1      34.656  50.028  36.092  0.00  0.00     0.000 C 
ATOM     25  C43 277 d   1      35.523  47.845  35.532  0.00  0.00     0.096 C 
ATOM     26  H25 277 d   1      37.463  48.544  36.122  0.00  0.00     0.068 H 
ATOM     27  H26 277 d   1      37.047  48.844  34.400  0.00  0.00     0.068 H 
ATOM     28  C44 277 d   1      34.288  48.714  35.409  0.00  0.00    -0.020 C 
ATOM     29  F52 277 d   1      35.558  47.285  36.810  0.00  0.00    -0.248 F 
ATOM     30  H27 277 d   1      35.564  47.069  34.753  0.00  0.00     0.094 H 
ATOM     31  H28 277 d   1      33.432  48.243  35.914  0.00  0.00     0.039 H 
ATOM     32  H29 277 d   1      34.040  48.885  34.351  0.00  0.00     0.039 H 
ATOM     33  H30 277 d   1      34.103  50.876  35.661  0.00  0.00     0.064 H 
ATOM     34  H31 277 d   1      34.474  49.984  37.176  0.00  0.00     0.064 H 
ATOM     35  O32 277 d   1      36.438  52.231  36.399  0.00  0.00    -0.271 OA
ENDBRANCH  19  21
BRANCH  19  36
ATOM     36  N33 277 d   1      38.310  51.971  34.404  0.00  0.00    -0.066 N 
ATOM     37  H19 277 d   1      37.630  51.715  33.705  0.00  0.00     0.275 HD
ATOM     38  H20 277 d   1      39.228  51.995  33.988  0.00  0.00     0.275 HD
ATOM     39  H21 277 d   1      38.085  52.881  34.774  0.00  0.00     0.275 HD
ENDBRANCH  19  36
ENDBRANCH  17  19
BRANCH  17  40
ATOM     40  C35 277 d   1      39.423  50.509  37.413  0.00  0.00    -0.070 C 
ATOM     41  H22 277 d   1      40.165  50.789  38.176  0.00  0.00     0.028 H 
ATOM     42  H23 277 d   1      39.716  49.556  36.949  0.00  0.00     0.028 H 
ATOM     43  H24 277 d   1      38.436  50.399  37.885  0.00  0.00     0.028 H 
ENDBRANCH  17  40
ENDBRANCH   3  17
BRANCH   6  44
ATOM     44  N20 277 d   1      45.068  51.881  35.047  0.00  0.00    -0.352 N 
ATOM     45  C22 277 d   1      46.270  51.590  35.650  0.00  0.00     0.215 C 
ATOM     46  O31 277 d   1      47.347  51.859  35.124  0.00  0.00    -0.274 OA
BRANCH  45  47
ATOM     47  C27 277 d   1      46.294  50.903  37.035  0.00  0.00    -0.003 C 
ATOM     48  H16 277 d   1      47.337  50.753  37.352  0.00  0.00     0.040 H 
ATOM     49  H17 277 d   1      45.787  49.929  36.970  0.00  0.00     0.040 H 
ATOM     50  H18 277 d   1      45.776  51.538  37.768  0.00  0.00     0.040 H 
ENDBRANCH  45  47
BRANCH  44  51
ATOM     51  C23 277 d   1      45.200  52.553  33.725  0.00  0.00    -0.016 C 
ATOM     52  H13 277 d   1      46.265  52.688  33.487  0.00  0.00     0.056 H 
ATOM     53  H14 277 d   1      44.705  53.535  33.761  0.00  0.00     0.056 H 
ATOM     54  H15 277 d   1      44.727  51.932  32.949  0.00  0.00     0.056 H 
ENDBRANCH  44  51
ENDBRANCH   6  44
TORSDOF 8
