REMARK  9 active torsions:
REMARK  status: ('A' for Active; 'I' for Inactive)
REMARK    1  A    between atoms: C2_4  and  C1_1 
REMARK    2  A    between atoms: C2_4  and  N1_2 
REMARK    3  A    between atoms: C3_7  and  C2_4 
REMARK       I    between atoms: N3_8  and  C5_13 
REMARK    4  A    between atoms: C5_13  and  C4_10 
REMARK       I    between atoms: N4_11  and  C10_20 
REMARK    5  A    between atoms: C11_21  and  N4_11 
REMARK    6  A    between atoms: C10_20  and  C9_19 
REMARK    7  A    between atoms: C12_22  and  C11_21 
REMARK    8  A    between atoms: C11_21  and  C21_31 
REMARK    9  A    between atoms: C13_23  and  C12_22 
ROOT
ATOM      1  O1  CO9 d   1     -13.471 -19.850  -5.566  0.00  0.00    -0.266 OA
ATOM      2  N3  CO9 d   1     -15.203 -19.305  -6.867  0.00  0.00    -0.333 N 
ATOM      3  C5  CO9 d   1     -14.656 -19.570  -5.626  0.00  0.00     0.275 C 
ATOM      4  C6  CO9 d   1     -16.621 -19.039  -7.224  0.00  0.00    -0.001 C 
ATOM      5  C7  CO9 d   1     -16.740 -19.434  -8.713  0.00  0.00    -0.048 C 
ATOM      6  C8  CO9 d   1     -15.383 -18.939  -9.271  0.00  0.00    -0.036 C 
ATOM      7  C9  CO9 d   1     -14.418 -19.246  -8.115  0.00  0.00     0.092 C 
ATOM      8  H10 CO9 d   1     -16.861 -17.974  -7.086  0.00  0.00     0.064 H 
ATOM      9  H11 CO9 d   1     -17.296 -19.650  -6.607  0.00  0.00     0.064 H 
ATOM     10  H12 CO9 d   1     -17.585 -18.923  -9.198  0.00  0.00     0.035 H 
ATOM     11  H13 CO9 d   1     -16.851 -20.522  -8.833  0.00  0.00     0.035 H 
ATOM     12  H14 CO9 d   1     -15.412 -17.861  -9.489  0.00  0.00     0.036 H 
ATOM     13  H15 CO9 d   1     -15.102 -19.490 -10.181  0.00  0.00     0.036 H 
ATOM     14  H16 CO9 d   1     -13.924 -20.213  -8.290  0.00  0.00     0.087 H 
ENDROOT
BRANCH   7  15
ATOM     15  C10 CO9 d   1     -13.378 -18.166  -8.011  0.00  0.00     0.241 C 
ATOM     16  O2  CO9 d   1     -13.660 -17.096  -7.497  0.00  0.00    -0.271 OA
ATOM     17  N4  CO9 d   1     -12.131 -18.417  -8.449  0.00  0.00    -0.344 N 
ATOM     18  H8  CO9 d   1     -11.750 -19.334  -8.331  0.00  0.00     0.163 HD
BRANCH  17  19
ATOM     19  C11 CO9 d   1     -11.317 -17.386  -9.094  0.00  0.00     0.100 C 
ATOM     20  H17 CO9 d   1     -11.606 -16.404  -8.692  0.00  0.00     0.090 H 
BRANCH  19  21
ATOM     21  C12 CO9 d   1      -9.806 -17.614  -8.786  0.00  0.00    -0.011 C 
ATOM     22  H18 CO9 d   1      -9.655 -17.519  -7.700  0.00  0.00     0.044 H 
ATOM     23  H19 CO9 d   1      -9.225 -16.838  -9.306  0.00  0.00     0.044 H 
BRANCH  21  24
ATOM     24  C13 CO9 d   1      -9.285 -18.984  -9.228  0.00  0.00    -0.028 A 
ATOM     25  C14 CO9 d   1      -8.475 -19.213 -10.280  0.00  0.00    -0.015 A 
ATOM     26  N5  CO9 d   1      -8.205 -20.551 -10.391  0.00  0.00    -0.365 N 
ATOM     27  H20 CO9 d   1      -8.090 -18.443 -10.947  0.00  0.00     0.112 H 
ATOM     28  C15 CO9 d   1      -8.841 -21.249  -9.396  0.00  0.00     0.042 A 
ATOM     29  H9  CO9 d   1      -7.609 -20.973 -11.118  0.00  0.00     0.165 HD
ATOM     30  C16 CO9 d   1      -8.899 -22.623  -9.057  0.00  0.00    -0.056 A 
ATOM     31  C20 CO9 d   1      -9.556 -20.297  -8.609  0.00  0.00    -0.002 A 
ATOM     32  C17 CO9 d   1      -9.653 -23.039  -7.954  0.00  0.00    -0.081 A 
ATOM     33  H21 CO9 d   1      -8.360 -23.352  -9.652  0.00  0.00     0.086 H 
ATOM     34  C18 CO9 d   1     -10.360 -22.094  -7.174  0.00  0.00    -0.082 A 
ATOM     35  H22 CO9 d   1      -9.696 -24.091  -7.696  0.00  0.00     0.083 H 
ATOM     36  C19 CO9 d   1     -10.315 -20.740  -7.494  0.00  0.00    -0.070 A 
ATOM     37  H23 CO9 d   1     -10.941 -22.427  -6.321  0.00  0.00     0.083 H 
ATOM     38  H24 CO9 d   1     -10.860 -20.023  -6.891  0.00  0.00     0.084 H 
ENDBRANCH  21  24
ENDBRANCH  19  21
BRANCH  19  39
ATOM     39  C21 CO9 d   1     -11.598 -17.397 -10.592  0.00  0.00     0.197 C 
ATOM     40  O3  CO9 d   1     -11.585 -16.360 -11.216  0.00  0.00    -0.646 OA
ATOM     41  O4  CO9 d   1     -11.871 -18.566 -11.219  0.00  0.00    -0.646 OA
ENDBRANCH  19  39
ENDBRANCH  17  19
ENDBRANCH   7  15
BRANCH   3  42
ATOM     42  C4  CO9 d   1     -15.387 -19.571  -4.342  0.00  0.00     0.149 A 
ATOM     43  N2  CO9 d   1     -14.829 -19.979  -3.191  0.00  0.00    -0.219 NA
ATOM     44  C3  CO9 d   1     -15.680 -19.877  -2.245  0.00  0.00     0.176 A 
ATOM     45  O5  CO9 d   1     -16.831 -19.399  -2.734  0.00  0.00    -0.303 OA
ATOM     46  C22 CO9 d   1     -16.663 -19.201  -4.050  0.00  0.00     0.054 A 
ATOM     47  H25 CO9 d   1     -17.405 -18.818  -4.749  0.00  0.00     0.127 H 
BRANCH  44  48
ATOM     48  C2  CO9 d   1     -15.391 -20.246  -0.821  0.00  0.00     0.159 C 
ATOM     49  H7  CO9 d   1     -14.302 -20.325  -0.691  0.00  0.00     0.096 H 
BRANCH  48  50
ATOM     50  C1  CO9 d   1     -16.013 -21.603  -0.507  0.00  0.00    -0.043 C 
ATOM     51  H1  CO9 d   1     -15.616 -22.358  -1.201  0.00  0.00     0.030 H 
ATOM     52  H2  CO9 d   1     -17.105 -21.541  -0.620  0.00  0.00     0.030 H 
ATOM     53  H3  CO9 d   1     -15.767 -21.889   0.526  0.00  0.00     0.030 H 
ENDBRANCH  48  50
BRANCH  48  54
ATOM     54  N1  CO9 d   1     -15.887 -19.200   0.077  0.00  0.00    -0.068 N 
ATOM     55  H4  CO9 d   1     -15.455 -18.321  -0.160  0.00  0.00     0.275 HD
ATOM     56  H5  CO9 d   1     -15.660 -19.439   1.030  0.00  0.00     0.275 HD
ATOM     57  H6  CO9 d   1     -16.887 -19.120  -0.020  0.00  0.00     0.275 HD
ENDBRANCH  48  54
ENDBRANCH  44  48
ENDBRANCH   3  42
TORSDOF 9
