REMARK  3 active torsions:
REMARK  status: ('A' for Active; 'I' for Inactive)
REMARK    1  A    between atoms: C2_2  and  C1_1 
REMARK       I    between atoms: N1_9  and  C2_2 
REMARK    2  A    between atoms: C4_3  and  C5_4 
REMARK    3  A    between atoms: C4_3  and  N1_9 
ROOT
ATOM      1  C2  OGA d   1     -27.801 -21.654 -23.131  0.00  0.00     0.318 C 
ATOM      2  O2' OGA d   1     -27.790 -21.963 -21.946  0.00  0.00    -0.261 OA
ATOM      3  N1  OGA d   1     -26.742 -21.681 -23.937  0.00  0.00    -0.342 N 
ATOM      4  H3  OGA d   1     -26.864 -21.422 -24.895  0.00  0.00     0.163 HD
ENDROOT
BRANCH   3   5
ATOM      5  C4  OGA d   1     -25.404 -22.074 -23.484  0.00  0.00     0.075 C 
ATOM      6  H1  OGA d   1     -25.095 -21.393 -22.678  0.00  0.00     0.080 H 
ATOM      7  H2  OGA d   1     -25.455 -23.102 -23.096  0.00  0.00     0.080 H 
BRANCH   5   8
ATOM      8  C5  OGA d   1     -24.342 -22.025 -24.599  0.00  0.00     0.191 C 
ATOM      9  O3  OGA d   1     -23.162 -21.984 -24.212  0.00  0.00    -0.647 OA
ATOM     10  O4  OGA d   1     -24.707 -22.080 -25.791  0.00  0.00    -0.647 OA
ENDBRANCH   5   8
ENDBRANCH   3   5
BRANCH   1  11
ATOM     11  C1  OGA d   1     -29.167 -21.226 -23.655  0.00  0.00     0.270 C 
ATOM     12  O1  OGA d   1     -29.204 -20.913 -24.858  0.00  0.00    -0.640 OA
ATOM     13  O2  OGA d   1     -30.130 -21.197 -22.802  0.00  0.00    -0.640 OA
ENDBRANCH   1  11
TORSDOF 3
