REMARK  5 active torsions:
REMARK  status: ('A' for Active; 'I' for Inactive)
REMARK    1  A    between atoms: C5_1  and  C6_2 
REMARK    2  A    between atoms: N4_15  and  C5_1 
REMARK    3  A    between atoms: C6_2  and  C7_3 
REMARK    4  A    between atoms: C19_24  and  C20_7 
REMARK    5  A    between atoms: C_13  and  N_12 
ROOT
ATOM      1  C   GGO d   1      32.180   5.056  63.827  0.00  0.00     0.123 C 
ATOM      2  C3  GGO d   1      33.517   4.321  63.724  0.00  0.00     0.025 C 
ATOM      3  N4  GGO d   1      34.632   5.174  63.245  0.00  0.00    -0.350 N 
ATOM      4  C16 GGO d   1      34.448   6.156  62.260  0.00  0.00     0.220 C 
ATOM      5  O17 GGO d   1      35.327   6.571  61.537  0.00  0.00    -0.273 OA
ATOM      6  C18 GGO d   1      32.998   6.741  62.097  0.00  0.00     0.018 C 
ATOM      7  C19 GGO d   1      31.855   5.784  62.508  0.00  0.00     0.011 C 
ATOM      8  H12 GGO d   1      32.278   5.814  64.618  0.00  0.00     0.087 H 
ATOM      9  H13 GGO d   1      33.398   3.480  63.025  0.00  0.00     0.067 H 
ATOM     10  H14 GGO d   1      33.779   3.935  64.720  0.00  0.00     0.067 H 
ATOM     11  H18 GGO d   1      32.855   7.008  61.040  0.00  0.00     0.048 H 
ATOM     12  H19 GGO d   1      32.924   7.646  62.717  0.00  0.00     0.048 H 
ATOM     13  H20 GGO d   1      31.805   5.020  61.719  0.00  0.00     0.051 H 
ENDROOT
BRANCH   3  14
ATOM     14  C5  GGO d   1      36.019   4.947  63.804  0.00  0.00     0.001 C 
ATOM     15  H1  GGO d   1      36.609   5.861  63.642  0.00  0.00     0.064 H 
ATOM     16  H2  GGO d   1      35.928   4.755  64.883  0.00  0.00     0.064 H 
BRANCH  14  17
ATOM     17  C6  GGO d   1      36.793   3.736  63.150  0.00  0.00    -0.026 C 
ATOM     18  H3  GGO d   1      36.788   3.875  62.059  0.00  0.00     0.042 H 
ATOM     19  H4  GGO d   1      36.257   2.809  63.404  0.00  0.00     0.042 H 
BRANCH  17  20
ATOM     20  C7  GGO d   1      38.266   3.584  63.610  0.00  0.00    -0.054 A 
ATOM     21  C8  GGO d   1      38.644   2.755  64.759  0.00  0.00    -0.074 A 
ATOM     22  C9  GGO d   1      39.998   2.642  65.128  0.00  0.00    -0.047 A 
ATOM     23  H5  GGO d   1      37.882   2.230  65.323  0.00  0.00     0.084 H 
ATOM     24  C10 GGO d   1      40.951   3.370  64.370  0.00  0.00     0.105 A 
ATOM     25  H15 GGO d   1      40.302   2.020  65.962  0.00  0.00     0.087 H 
ATOM     26  O   GGO d   1      42.286   3.380  64.561  0.00  0.00    -0.323 OA
ATOM     27  C14 GGO d   1      40.583   4.149  63.308  0.00  0.00     0.105 A 
ATOM     28  C12 GGO d   1      42.735   4.278  63.530  0.00  0.00     0.115 A 
ATOM     29  O13 GGO d   1      41.655   4.768  62.743  0.00  0.00    -0.323 OA
ATOM     30  H16 GGO d   1      43.438   3.743  62.874  0.00  0.00     0.118 H 
ATOM     31  H17 GGO d   1      43.248   5.130  64.000  0.00  0.00     0.118 H 
ATOM     32  C15 GGO d   1      39.253   4.270  62.918  0.00  0.00    -0.042 A 
ATOM     33  H6  GGO d   1      38.989   4.899  62.075  0.00  0.00     0.088 H 
ENDBRANCH  17  20
ENDBRANCH  14  17
ENDBRANCH   3  14
BRANCH   1  34
ATOM     34  N   GGO d   1      31.110   4.188  64.189  0.00  0.00    -0.073 N 
ATOM     35  H9  GGO d   1      31.335   3.719  65.052  0.00  0.00     0.274 HD
ATOM     36  H10 GGO d   1      30.971   3.504  63.461  0.00  0.00     0.274 HD
ATOM     37  H11 GGO d   1      30.267   4.727  64.310  0.00  0.00     0.274 HD
ENDBRANCH   1  34
BRANCH   7  38
ATOM     38  C20 GGO d   1      30.463   6.397  62.596  0.00  0.00    -0.010 A 
ATOM     39  C21 GGO d   1      30.246   7.692  63.109  0.00  0.00    -0.033 A 
ATOM     40  C22 GGO d   1      28.946   8.177  63.179  0.00  0.00     0.155 A 
ATOM     41  H7  GGO d   1      31.079   8.299  63.443  0.00  0.00     0.089 H 
ATOM     42  C24 GGO d   1      27.848   7.426  62.739  0.00  0.00     0.157 A 
ATOM     43  F   GGO d   1      28.779   9.389  63.688  0.00  0.00    -0.203 F 
ATOM     44  C26 GGO d   1      28.005   6.138  62.226  0.00  0.00    -0.005 A 
ATOM     45  F25 GGO d   1      26.613   7.898  62.832  0.00  0.00    -0.203 F 
ATOM     46  C27 GGO d   1      29.316   5.647  62.176  0.00  0.00     0.126 A 
ATOM     47  H8  GGO d   1      27.160   5.550  61.885  0.00  0.00     0.093 H 
ATOM     48  F28 GGO d   1      29.476   4.403  61.694  0.00  0.00    -0.205 F 
ENDBRANCH   7  38
TORSDOF 5
