REMARK  32 active torsions:
REMARK  status: ('A' for Active; 'I' for Inactive)
REMARK    1  A    between atoms: N_1  and  CA_2 
REMARK    2  A    between atoms: CA_2  and  C_3 
REMARK    3  A    between atoms: CA_2  and  CB_5 
REMARK       I    between atoms: C_3  and  N_12 
REMARK    4  A    between atoms: CB_5  and  CG_6 
REMARK    5  A    between atoms: CG_6  and  CD_7 
REMARK    6  A    between atoms: CD_7  and  NE_8 
REMARK       I    between atoms: NE_8  and  CZ_9 
REMARK       I    between atoms: CZ_9  and  NH1_10 
REMARK       I    between atoms: CZ_9  and  NH2_11 
REMARK    7  A    between atoms: N_12  and  CA_13 
REMARK    8  A    between atoms: CA_13  and  C_14 
REMARK    9  A    between atoms: CA_13  and  CB_16 
REMARK       I    between atoms: C_14  and  N_23 
REMARK   10  A    between atoms: CB_16  and  CG_17 
REMARK   11  A    between atoms: CG_17  and  CD_18 
REMARK   12  A    between atoms: CD_18  and  NE_19 
REMARK       I    between atoms: NE_19  and  CZ_20 
REMARK       I    between atoms: CZ_20  and  NH1_21 
REMARK   13  A    between atoms: N_23  and  CA_24 
REMARK   14  A    between atoms: CA_24  and  C_25 
REMARK   15  A    between atoms: CA_24  and  CB_27 
REMARK       I    between atoms: C_25  and  N_32 
REMARK   16  A    between atoms: CB_27  and  CG_28 
REMARK   17  A    between atoms: CG_28  and  CD_29 
REMARK   18  A    between atoms: N_32  and  CA_33 
REMARK   19  A    between atoms: CA_33  and  C_34 
REMARK   20  A    between atoms: CA_33  and  CB_36 
REMARK       I    between atoms: C_34  and  N_39 
REMARK   21  A    between atoms: CB_36  and  OG1_37 
REMARK   22  A    between atoms: CB_36  and  CG2_38 
REMARK   23  A    between atoms: N_39  and  CA_40 
REMARK   24  A    between atoms: CA_40  and  C_41 
REMARK   25  A    between atoms: CA_40  and  CB_43 
REMARK       I    between atoms: C_41  and  N_48 
REMARK   26  A    between atoms: CB_43  and  CG_44 
REMARK   27  A    between atoms: CG_44  and  CD_45 
REMARK       I    between atoms: CD_45  and  NE2_47 
REMARK   28  A    between atoms: N_48  and  CA_49 
REMARK   29  A    between atoms: CA_49  and  C_50 
REMARK   30  A    between atoms: CA_49  and  CB_52 
REMARK   31  A    between atoms: CB_52  and  CG1_53 
REMARK   32  A    between atoms: CB_52  and  CG2_54 
ROOT
ATOM      1  CA  GLU d   1       4.211  -4.225  10.355  0.00  0.00     0.090 C 
ATOM      2  H30 GLU d   1       3.971  -4.346   9.289  0.00  0.00     0.087 H 
ENDROOT
BRANCH   1   3
ATOM      3  N   GLU d   1       4.658  -5.511  10.881  0.00  0.00    -0.346 N 
ATOM      4  C   ARG d   1       4.614  -6.626  10.153  0.00  0.00     0.241 C 
ATOM      5  O   ARG d   1       4.198  -6.659   8.993  0.00  0.00    -0.271 OA
ATOM      6  H29 GLU d   1       5.008  -5.557  11.817  0.00  0.00     0.163 HD
BRANCH   4   7
ATOM      7  CA  ARG d   1       5.120  -7.892  10.839  0.00  0.00     0.089 C 
ATOM      8  H17 ARG d   1       5.266  -7.674  11.907  0.00  0.00     0.087 H 
BRANCH   7   9
ATOM      9  N   ARG d   1       4.147  -8.977  10.721  0.00  0.00    -0.346 N 
ATOM     10  C   ARG d   1       3.927  -9.836  11.718  0.00  0.00     0.248 C 
ATOM     11  O   ARG d   1       4.519  -9.779  12.798  0.00  0.00    -0.271 OA
ATOM     12  H16 ARG d   1       3.632  -9.078   9.870  0.00  0.00     0.163 HD
BRANCH  10  13
ATOM     13  CA  ARG d   1       2.879 -10.920  11.461  0.00  0.00     0.176 C 
ATOM     14  H4  ARG d   1       2.704 -10.991  10.377  0.00  0.00     0.099 H 
BRANCH  13  15
ATOM     15  N   ARG d   1       3.338 -12.246  11.964  0.00  0.00    -0.067 N 
ATOM     16  H1  ARG d   1       2.629 -12.938  11.781  0.00  0.00     0.275 HD
ATOM     17  H2  ARG d   1       3.505 -12.190  12.957  0.00  0.00     0.275 HD
ATOM     18  H3  ARG d   1       4.191 -12.507  11.494  0.00  0.00     0.275 HD
ENDBRANCH  13  15
BRANCH  13  19
ATOM     19  CB  ARG d   1       1.564 -10.551  12.160  0.00  0.00    -0.029 C 
ATOM     20  H5  ARG d   1       1.277  -9.537  11.845  0.00  0.00     0.036 H 
ATOM     21  H6  ARG d   1       1.734 -10.563  13.247  0.00  0.00     0.036 H 
BRANCH  19  22
ATOM     22  CG  ARG d   1       0.412 -11.495  11.845  0.00  0.00    -0.047 C 
ATOM     23  H7  ARG d   1       0.804 -12.518  11.748  0.00  0.00     0.035 H 
ATOM     24  H8  ARG d   1      -0.052 -11.189  10.896  0.00  0.00     0.035 H 
BRANCH  22  25
ATOM     25  CD  ARG d   1      -0.642 -11.471  12.942  0.00  0.00     0.009 C 
ATOM     26  H9  ARG d   1      -1.557 -11.951  12.565  0.00  0.00     0.064 H 
ATOM     27  H10 ARG d   1      -0.858 -10.424  13.203  0.00  0.00     0.064 H 
BRANCH  25  28
ATOM     28  NE  ARG d   1      -0.202 -12.176  14.148  0.00  0.00    -0.227 N 
ATOM     29  CZ  ARG d   1      -0.716 -11.972  15.364  0.00  0.00     0.665 C 
ATOM     30  NH1 ARG d   1      -1.696 -11.089  15.545  0.00  0.00    -0.235 N 
ATOM     31  NH2 ARG d   1      -0.250 -12.658  16.403  0.00  0.00    -0.235 N 
ATOM     32  H12 ARG d   1      -2.086 -10.938  16.486  0.00  0.00     0.174 HD
ATOM     33  H13 ARG d   1      -2.064 -10.557  14.744  0.00  0.00     0.174 HD
ATOM     34  H14 ARG d   1       0.508 -13.343  16.270  0.00  0.00     0.174 HD
ATOM     35  H15 ARG d   1      -0.647 -12.505  17.341  0.00  0.00     0.174 HD
ATOM     36  H11 ARG d   1       0.551 -12.873  14.053  0.00  0.00     0.177 HD
ENDBRANCH  25  28
ENDBRANCH  22  25
ENDBRANCH  19  22
ENDBRANCH  13  19
ENDBRANCH  10  13
ENDBRANCH   7   9
BRANCH   7  37
ATOM     37  CB  ARG d   1       6.467  -8.305  10.238  0.00  0.00    -0.036 C 
ATOM     38  H18 ARG d   1       6.345  -8.411   9.150  0.00  0.00     0.036 H 
ATOM     39  H19 ARG d   1       6.760  -9.273  10.671  0.00  0.00     0.036 H 
BRANCH  37  40
ATOM     40  CG  ARG d   1       7.584  -7.299  10.504  0.00  0.00    -0.048 C 
ATOM     41  H20 ARG d   1       7.448  -6.876  11.510  0.00  0.00     0.035 H 
ATOM     42  H21 ARG d   1       7.522  -6.494   9.757  0.00  0.00     0.035 H 
BRANCH  40  43
ATOM     43  CD  ARG d   1       8.965  -7.938  10.423  0.00  0.00     0.009 C 
ATOM     44  H22 ARG d   1       9.016  -8.763  11.149  0.00  0.00     0.064 H 
ATOM     45  H23 ARG d   1       9.721  -7.180  10.675  0.00  0.00     0.064 H 
BRANCH  43  46
ATOM     46  NE  ARG d   1       9.256  -8.466   9.091  0.00  0.00    -0.227 N 
ATOM     47  CZ  ARG d   1       9.745  -7.736   8.083  0.00  0.00     0.665 C 
ATOM     48  NH1 ARG d   1       9.964  -6.432   8.235  0.00  0.00    -0.235 N 
ATOM     49  NH2 ARG d   1      10.014  -8.316   6.918  0.00  0.00    -0.235 N 
ATOM     50  H25 ARG d   1      10.341  -5.878   7.452  0.00  0.00     0.174 HD
ATOM     51  H26 ARG d   1       9.757  -5.976   9.135  0.00  0.00     0.174 HD
ATOM     52  H27 ARG d   1       9.847  -9.325   6.794  0.00  0.00     0.174 HD
ATOM     53  H28 ARG d   1      10.390  -7.757   6.139  0.00  0.00     0.174 HD
ATOM     54  H24 ARG d   1       9.072  -9.465   8.918  0.00  0.00     0.177 HD
ENDBRANCH  43  46
ENDBRANCH  40  43
ENDBRANCH  37  40
ENDBRANCH   7  37
ENDBRANCH   4   7
ENDBRANCH   1   3
BRANCH   1  55
ATOM     55  C   GLU d   1       5.320  -3.183  10.489  0.00  0.00     0.241 C 
ATOM     56  O   GLU d   1       5.661  -2.766  11.598  0.00  0.00    -0.271 OA
ATOM     57  N   THR d   1       5.890  -2.781   9.353  0.00  0.00    -0.344 N 
ATOM     58  H35 THR d   1       5.568  -3.161   8.486  0.00  0.00     0.163 HD
BRANCH  57  59
ATOM     59  CA  THR d   1       6.972  -1.801   9.340  0.00  0.00     0.113 C 
ATOM     60  H36 THR d   1       7.248  -1.576  10.381  0.00  0.00     0.091 H 
BRANCH  59  61
ATOM     61  C   THR d   1       6.532  -0.500   8.672  0.00  0.00     0.243 C 
ATOM     62  O   THR d   1       5.761  -0.516   7.709  0.00  0.00    -0.271 OA
ATOM     63  N   GLN d   1       7.041   0.623   9.180  0.00  0.00    -0.346 N 
ATOM     64  H42 GLN d   1       7.662   0.567   9.962  0.00  0.00     0.163 HD
BRANCH  63  65
ATOM     65  CA  GLN d   1       6.714   1.933   8.623  0.00  0.00     0.090 C 
ATOM     66  H43 GLN d   1       5.650   1.935   8.344  0.00  0.00     0.087 H 
BRANCH  65  67
ATOM     67  C   GLN d   1       7.544   2.204   7.373  0.00  0.00     0.241 C 
ATOM     68  O   GLN d   1       8.650   1.681   7.224  0.00  0.00    -0.271 OA
ATOM     69  N   VAL d   1       7.001   3.019   6.473  0.00  0.00    -0.344 N 
ATOM     70  H50 VAL d   1       6.100   3.412   6.654  0.00  0.00     0.163 HD
BRANCH  69  71
ATOM     71  CA  VAL d   1       7.684   3.355   5.228  0.00  0.00     0.099 C 
ATOM     72  H51 VAL d   1       8.758   3.163   5.369  0.00  0.00     0.090 H 
BRANCH  71  73
ATOM     73  C   VAL d   1       7.504   4.831   4.866  0.00  0.00     0.197 C 
ATOM     74  O   VAL d   1       8.401   5.386   4.196  0.00  0.00    -0.646 OA
ATOM     75  OXT VAL d   1       6.472   5.420   5.255  0.00  0.00    -0.646 OA
ENDBRANCH  71  73
BRANCH  71  76
ATOM     76  CB  VAL d   1       7.181   2.475   4.063  0.00  0.00    -0.032 C 
ATOM     77  H52 VAL d   1       7.608   2.862   3.126  0.00  0.00     0.042 H 
BRANCH  76  78
ATOM     78  CG1 VAL d   1       7.648   1.037   4.245  0.00  0.00    -0.071 C 
ATOM     79  H53 VAL d   1       7.282   0.424   3.408  0.00  0.00     0.028 H 
ATOM     80  H54 VAL d   1       7.252   0.640   5.191  0.00  0.00     0.028 H 
ATOM     81  H55 VAL d   1       8.747   1.008   4.267  0.00  0.00     0.028 H 
ENDBRANCH  76  78
BRANCH  76  82
ATOM     82  CG2 VAL d   1       5.662   2.537   3.958  0.00  0.00    -0.071 C 
ATOM     83  H56 VAL d   1       5.346   3.583   3.827  0.00  0.00     0.028 H 
ATOM     84  H57 VAL d   1       5.214   2.131   4.877  0.00  0.00     0.028 H 
ATOM     85  H58 VAL d   1       5.330   1.943   3.094  0.00  0.00     0.028 H 
ENDBRANCH  76  82
ENDBRANCH  71  76
ENDBRANCH  69  71
ENDBRANCH  65  67
BRANCH  65  86
ATOM     86  CB  GLN d   1       6.947   3.042   9.651  0.00  0.00    -0.030 C 
ATOM     87  H44 GLN d   1       7.339   3.926   9.126  0.00  0.00     0.037 H 
ATOM     88  H45 GLN d   1       7.691   2.689  10.381  0.00  0.00     0.037 H 
BRANCH  86  89
ATOM     89  CG  GLN d   1       5.689   3.448  10.404  0.00  0.00     0.011 C 
ATOM     90  H46 GLN d   1       5.214   2.543  10.810  0.00  0.00     0.047 H 
ATOM     91  H47 GLN d   1       5.001   3.939   9.700  0.00  0.00     0.047 H 
BRANCH  89  92
ATOM     92  CD  GLN d   1       5.975   4.402  11.550  0.00  0.00     0.215 C 
ATOM     93  OE1 GLN d   1       6.528   5.483  11.349  0.00  0.00    -0.274 OA
ATOM     94  NE2 GLN d   1       5.597   4.007  12.761  0.00  0.00    -0.370 N 
ATOM     95  H48 GLN d   1       5.761   4.596  13.553  0.00  0.00     0.159 HD
ATOM     96  H49 GLN d   1       5.149   3.121  12.881  0.00  0.00     0.159 HD
ENDBRANCH  89  92
ENDBRANCH  86  89
ENDBRANCH  65  86
ENDBRANCH  63  65
ENDBRANCH  59  61
BRANCH  59  97
ATOM     97  CB  THR d   1       8.200  -2.393   8.628  0.00  0.00     0.060 C 
ATOM     98  H37 THR d   1       7.873  -3.311   8.117  0.00  0.00     0.086 H 
BRANCH  97  99
ATOM     99  OG1 THR d   1       9.209  -2.727   9.564  0.00  0.00    -0.393 OA
ATOM    100  H38 THR d   1       9.957  -3.090   9.105  0.00  0.00     0.210 HD
ENDBRANCH  97  99
BRANCH  97 101
ATOM    101  CG2 THR d   1       8.826  -1.478   7.594  0.00  0.00    -0.050 C 
ATOM    102  H39 THR d   1       9.692  -1.979   7.138  0.00  0.00     0.031 H 
ATOM    103  H40 THR d   1       9.155  -0.547   8.079  0.00  0.00     0.031 H 
ATOM    104  H41 THR d   1       8.085  -1.244   6.815  0.00  0.00     0.031 H 
ENDBRANCH  97 101
ENDBRANCH  59  97
ENDBRANCH  57  59
ENDBRANCH   1  55
BRANCH   1 105
ATOM    105  CB  GLU d   1       2.949  -3.758  11.090  0.00  0.00    -0.029 C 
ATOM    106  H31 GLU d   1       2.511  -2.918  10.530  0.00  0.00     0.037 H 
ATOM    107  H32 GLU d   1       3.238  -3.418  12.095  0.00  0.00     0.037 H 
BRANCH 105 108
ATOM    108  CG  GLU d   1       1.890  -4.845  11.235  0.00  0.00     0.018 C 
ATOM    109  H33 GLU d   1       2.385  -5.779  11.540  0.00  0.00     0.049 H 
ATOM    110  H34 GLU d   1       1.400  -4.990  10.261  0.00  0.00     0.049 H 
BRANCH 108 111
ATOM    111  CD  GLU d   1       0.828  -4.501  12.265  0.00  0.00     0.172 C 
ATOM    112  OE1 GLU d   1       1.166  -4.423  13.465  0.00  0.00    -0.648 OA
ATOM    113  OE2 GLU d   1      -0.342  -4.317  11.871  0.00  0.00    -0.648 OA
ENDBRANCH 108 111
ENDBRANCH 105 108
ENDBRANCH   1 105
TORSDOF 32
