REMARK  6 active torsions:
REMARK  status: ('A' for Active; 'I' for Inactive)
REMARK    1  A    between atoms: C5_1  and  S_29 
REMARK    2  A    between atoms: C10_5  and  C9_27 
REMARK    3  A    between atoms: C16_18  and  C17_7 
REMARK    4  A    between atoms: C26_10  and  N27_20 
REMARK    5  A    between atoms: C12_22  and  N_21 
REMARK    6  A    between atoms: S_29  and  C_32 
ROOT
ATOM      1  C15 MA9 d   1      17.961  52.755  23.773  0.00  0.00    -0.041 C 
ATOM      2  C26 MA9 d   1      16.383  54.276  24.917  0.00  0.00     0.122 C 
ATOM      3  C28 MA9 d   1      16.372  55.210  23.715  0.00  0.00     0.023 C 
ATOM      4  C16 MA9 d   1      17.772  53.666  24.978  0.00  0.00     0.005 C 
ATOM      5  C14 MA9 d   1      18.130  53.656  22.579  0.00  0.00    -0.003 C 
ATOM      6  N   MA9 d   1      16.949  54.515  22.549  0.00  0.00    -0.364 N 
ATOM      7  H4  MA9 d   1      17.079  52.111  23.641  0.00  0.00     0.036 H 
ATOM      8  H5  MA9 d   1      18.856  52.129  23.906  0.00  0.00     0.036 H 
ATOM      9  H6  MA9 d   1      15.635  53.482  24.778  0.00  0.00     0.087 H 
ATOM     10  H7  MA9 d   1      16.969  56.106  23.941  0.00  0.00     0.067 H 
ATOM     11  H8  MA9 d   1      15.337  55.507  23.490  0.00  0.00     0.067 H 
ATOM     12  H11 MA9 d   1      18.493  54.493  24.898  0.00  0.00     0.051 H 
ATOM     13  H12 MA9 d   1      18.192  53.060  21.657  0.00  0.00     0.064 H 
ATOM     14  H13 MA9 d   1      19.041  54.263  22.685  0.00  0.00     0.064 H 
ENDROOT
BRANCH   6  15
ATOM     15  C12 MA9 d   1      16.401  54.695  21.282  0.00  0.00     0.129 A 
ATOM     16  C11 MA9 d   1      15.253  55.469  21.083  0.00  0.00    -0.010 A 
ATOM     17  C10 MA9 d   1      14.809  55.578  19.776  0.00  0.00     0.072 A 
ATOM     18  H17 MA9 d   1      14.740  55.956  21.905  0.00  0.00     0.093 H 
ATOM     19  N31 MA9 d   1      15.455  54.960  18.749  0.00  0.00    -0.241 NA
ATOM     20  C30 MA9 d   1      16.555  54.223  18.962  0.00  0.00     0.089 A 
ATOM     21  N29 MA9 d   1      17.025  54.097  20.219  0.00  0.00    -0.225 NA
ATOM     22  H18 MA9 d   1      17.059  53.736  18.135  0.00  0.00     0.146 H 
BRANCH  17  23
ATOM     23  C9  MA9 d   1      13.619  56.344  19.403  0.00  0.00    -0.006 A 
ATOM     24  C8  MA9 d   1      12.534  56.613  20.243  0.00  0.00    -0.071 A 
ATOM     25  C7  MA9 d   1      11.450  57.337  19.717  0.00  0.00    -0.081 A 
ATOM     26  H3  MA9 d   1      12.529  56.272  21.272  0.00  0.00     0.084 H 
ATOM     27  C6  MA9 d   1      11.467  57.770  18.379  0.00  0.00    -0.062 A 
ATOM     28  H2  MA9 d   1      10.597  57.563  20.346  0.00  0.00     0.083 H 
ATOM     29  C5  MA9 d   1      12.569  57.479  17.554  0.00  0.00     0.059 A 
ATOM     30  H1  MA9 d   1      10.628  58.330  17.982  0.00  0.00     0.085 H 
ATOM     31  C32 MA9 d   1      13.629  56.766  18.084  0.00  0.00    -0.050 A 
ATOM     32  H19 MA9 d   1      14.482  56.534  17.456  0.00  0.00     0.087 H 
BRANCH  29  33
ATOM     33  S   MA9 d   1      12.701  57.918  16.013  0.00  0.00     0.171 S 
ATOM     34  O   MA9 d   1      13.731  58.933  15.890  0.00  0.00    -0.223 OA
ATOM     35  O4  MA9 d   1      11.423  58.419  15.551  0.00  0.00    -0.223 OA
BRANCH  33  36
ATOM     36  C   MA9 d   1      13.124  56.565  15.115  0.00  0.00     0.020 C 
ATOM     37  H20 MA9 d   1      13.220  56.844  14.055  0.00  0.00     0.049 H 
ATOM     38  H21 MA9 d   1      12.346  55.795  15.223  0.00  0.00     0.049 H 
ATOM     39  H22 MA9 d   1      14.084  56.169  15.478  0.00  0.00     0.049 H 
ENDBRANCH  33  36
ENDBRANCH  29  33
ENDBRANCH  17  23
ENDBRANCH   6  15
BRANCH   2  40
ATOM     40  N27 MA9 d   1      16.077  54.999  26.131  0.00  0.00    -0.073 N 
ATOM     41  H14 MA9 d   1      15.152  55.393  26.063  0.00  0.00     0.274 HD
ATOM     42  H15 MA9 d   1      16.748  55.740  26.259  0.00  0.00     0.274 HD
ATOM     43  H16 MA9 d   1      16.118  54.369  26.917  0.00  0.00     0.274 HD
ENDBRANCH   2  40
BRANCH   4  44
ATOM     44  C17 MA9 d   1      18.088  52.942  26.224  0.00  0.00    -0.010 A 
ATOM     45  C24 MA9 d   1      18.812  53.604  27.195  0.00  0.00     0.126 A 
ATOM     46  F25 MA9 d   1      19.169  54.882  26.998  0.00  0.00    -0.205 F 
ATOM     47  C23 MA9 d   1      19.146  52.938  28.375  0.00  0.00    -0.005 A 
ATOM     48  C21 MA9 d   1      18.754  51.611  28.540  0.00  0.00     0.157 A 
ATOM     49  H9  MA9 d   1      19.703  53.447  29.153  0.00  0.00     0.093 H 
ATOM     50  F22 MA9 d   1      19.053  50.954  29.660  0.00  0.00    -0.203 F 
ATOM     51  C19 MA9 d   1      18.050  50.951  27.559  0.00  0.00     0.155 A 
ATOM     52  F   MA9 d   1      17.686  49.674  27.735  0.00  0.00    -0.203 F 
ATOM     53  C18 MA9 d   1      17.711  51.612  26.396  0.00  0.00    -0.033 A 
ATOM     54  H10 MA9 d   1      17.154  51.099  25.620  0.00  0.00     0.089 H 
ENDBRANCH   4  44
TORSDOF 6
