REMARK  4 active torsions:
REMARK  status: ('A' for Active; 'I' for Inactive)
REMARK    1  A    between atoms: C01_1  and  C02_2 
REMARK    2  A    between atoms: C02_2  and  C03_3 
REMARK    3  A    between atoms: C02_2  and  NP3_6 
REMARK    4  A    between atoms: C03_3  and  N14_7 
ROOT
ATOM      1  C03 QUS d   1      14.498  44.988  41.502  0.00  0.00     0.049 C 
ATOM      2  H2  QUS d   1      13.811  45.069  42.358  0.00  0.00     0.064 H 
ATOM      3  H3  QUS d   1      14.159  44.182  40.835  0.00  0.00     0.064 H 
ENDROOT
BRANCH   1   4
ATOM      4  C02 QUS d   1      15.925  44.806  41.934  0.00  0.00     0.196 C 
ATOM      5  H1  QUS d   1      15.856  43.738  42.187  0.00  0.00     0.103 H 
BRANCH   4   6
ATOM      6  C01 QUS d   1      16.924  44.679  40.872  0.00  0.00     0.205 C 
ATOM      7  O16 QUS d   1      17.778  45.566  40.991  0.00  0.00    -0.646 OA
ATOM      8  O17 QUS d   1      16.888  43.886  39.872  0.00  0.00    -0.646 OA
ENDBRANCH   4   6
BRANCH   4   9
ATOM      9  NP3 QUS d   1      16.330  45.253  43.215  0.00  0.00    -0.064 N 
ATOM     10  H4  QUS d   1      17.310  45.056  43.345  0.00  0.00     0.275 HD
ATOM     11  H5  QUS d   1      15.794  44.775  43.923  0.00  0.00     0.275 HD
ATOM     12  H6  QUS d   1      16.174  46.246  43.289  0.00  0.00     0.275 HD
ENDBRANCH   4   9
ENDBRANCH   1   4
BRANCH   1  13
ATOM     13  N14 QUS d   1      14.658  46.275  40.788  0.00  0.00    -0.097 NA
ATOM     14  C04 QUS d   1      13.609  46.756  39.983  0.00  0.00     0.329 C 
ATOM     15  N15 QUS d   1      13.437  48.085  40.135  0.00  0.00    -0.256 N 
ATOM     16  O18 QUS d   1      13.032  45.957  39.275  0.00  0.00    -0.251 OA
ATOM     17  C05 QUS d   1      14.196  48.470  41.151  0.00  0.00     0.386 C 
ATOM     18  H7  QUS d   1      12.845  48.672  39.583  0.00  0.00     0.175 HD
ATOM     19  O19 QUS d   1      14.323  49.550  41.682  0.00  0.00    -0.236 OA
ATOM     20  O20 QUS d   1      15.039  47.380  41.626  0.00  0.00    -0.197 OA
ENDBRANCH   1  13
TORSDOF 4
