REMARK WARNING: 32 MAX_TORS EXCEEDED!!!
REMARK  57 active torsions:
REMARK  status: ('A' for Active; 'I' for Inactive)
REMARK    1  A    between atoms: N_1  and  CA_2 
REMARK    2  A    between atoms: CA_2  and  C_3 
REMARK    3  A    between atoms: CA_2  and  CB_5 
REMARK       I    between atoms: C_3  and  N_10 
REMARK    4  A    between atoms: CB_5  and  CG_6 
REMARK    5  A    between atoms: CG_6  and  CD_7 
REMARK    6  A    between atoms: N_10  and  CA_11 
REMARK    7  A    between atoms: CA_11  and  C_12 
REMARK    8  A    between atoms: CA_11  and  CB_14 
REMARK       I    between atoms: C_12  and  N_19 
REMARK    9  A    between atoms: CB_14  and  CG_15 
REMARK   10  A    between atoms: CG_15  and  CD_16 
REMARK       I    between atoms: CD_16  and  NE2_18 
REMARK   11  A    between atoms: N_19  and  CA_20 
REMARK   12  A    between atoms: CA_20  and  C_21 
REMARK   13  A    between atoms: CA_20  and  CB_23 
REMARK       I    between atoms: C_21  and  N_28 
REMARK   14  A    between atoms: CB_23  and  CG_24 
REMARK   15  A    between atoms: CG_24  and  CD_25 
REMARK   16  A    between atoms: CD_25  and  CE_26 
REMARK   17  A    between atoms: CE_26  and  NZ_27 
REMARK   18  A    between atoms: N_28  and  CA_29 
REMARK   19  A    between atoms: CA_29  and  C_30 
REMARK   20  A    between atoms: CA_29  and  CB_32 
REMARK       I    between atoms: C_30  and  N_36 
REMARK   21  A    between atoms: CB_32  and  CG_33 
REMARK   22  A    between atoms: CG_33  and  CD1_34 
REMARK   23  A    between atoms: CG_33  and  CD2_35 
REMARK   24  A    between atoms: N_36  and  CA_37 
REMARK   25  A    between atoms: CA_37  and  C_38 
REMARK   26  A    between atoms: CA_37  and  CB_40 
REMARK       I    between atoms: C_38  and  N_44 
REMARK   27  A    between atoms: CB_40  and  CG1_41 
REMARK   28  A    between atoms: CB_40  and  CG2_42 
REMARK   29  A    between atoms: CG1_41  and  CD1_43 
REMARK   30  A    between atoms: N_44  and  CA_45 
REMARK   31  A    between atoms: CA_45  and  C_46 
REMARK   32  A    between atoms: CA_45  and  CB_48 
REMARK       I    between atoms: C_46  and  N_50 
REMARK   33  A    between atoms: CB_48  and  OG_49 
REMARK   34  A    between atoms: N_50  and  CA_51 
REMARK   35  A    between atoms: CA_51  and  C_52 
REMARK   36  A    between atoms: CA_51  and  CB_54 
REMARK       I    between atoms: C_52  and  N_59 
REMARK   37  A    between atoms: CB_54  and  CG_55 
REMARK   38  A    between atoms: CG_55  and  CD_56 
REMARK   39  A    between atoms: N_59  and  CA_60 
REMARK   40  A    between atoms: CA_60  and  C_61 
REMARK   41  A    between atoms: CA_60  and  CB_63 
REMARK       I    between atoms: C_61  and  N_68 
REMARK   42  A    between atoms: CB_63  and  CG_64 
REMARK   43  A    between atoms: CG_64  and  CD_65 
REMARK   44  A    between atoms: N_68  and  CA_69 
REMARK   45  A    between atoms: CA_69  and  C_70 
REMARK   46  A    between atoms: CA_69  and  CB_72 
REMARK       I    between atoms: C_70  and  N_76 
REMARK   47  A    between atoms: CB_72  and  CG_73 
REMARK   48  A    between atoms: N_76  and  CA_77 
REMARK   49  A    between atoms: CA_77  and  C_78 
REMARK   50  A    between atoms: CA_77  and  CB_80 
REMARK       I    between atoms: C_78  and  N_84 
REMARK   51  A    between atoms: CB_80  and  CG_81 
REMARK   52  A    between atoms: CG_81  and  CD1_82 
REMARK   53  A    between atoms: CG_81  and  CD2_83 
REMARK   54  A    between atoms: N_84  and  CA_85 
REMARK   55  A    between atoms: CA_85  and  C_86 
REMARK   56  A    between atoms: CA_85  and  CB_88 
REMARK   57  A    between atoms: CB_88  and  CG_89 
REMARK       I    between atoms: CG_89  and  ND2_91 
ROOT
ATOM      1  CA  ILE d   1      49.666  55.879   5.512  0.00  0.00     0.092 C 
ATOM      2  H42 ILE d   1      48.800  56.556   5.558  0.00  0.00     0.088 H 
ENDROOT
BRANCH   1   3
ATOM      3  N   ILE d   1      50.124  55.779   4.133  0.00  0.00    -0.346 N 
ATOM      4  C   LEU d   1      49.288  55.842   3.107  0.00  0.00     0.241 C 
ATOM      5  O   LEU d   1      48.077  56.029   3.234  0.00  0.00    -0.271 OA
ATOM      6  H41 ILE d   1      51.101  55.659   3.955  0.00  0.00     0.163 HD
BRANCH   4   7
ATOM      7  CA  LEU d   1      49.901  55.671   1.732  0.00  0.00     0.089 C 
ATOM      8  H31 LEU d   1      50.688  54.903   1.768  0.00  0.00     0.087 H 
BRANCH   7   9
ATOM      9  N   LEU d   1      48.835  55.247   0.854  0.00  0.00    -0.346 N 
ATOM     10  C   LYS d   1      48.454  53.977   0.785  0.00  0.00     0.241 C 
ATOM     11  O   LYS d   1      48.976  53.080   1.450  0.00  0.00    -0.271 OA
ATOM     12  H30 LEU d   1      48.373  55.927   0.284  0.00  0.00     0.163 HD
BRANCH  10  13
ATOM     13  CA  LYS d   1      47.300  53.698  -0.171  0.00  0.00     0.089 C 
ATOM     14  H18 LYS d   1      47.416  54.351  -1.048  0.00  0.00     0.087 H 
BRANCH  13  15
ATOM     15  N   LYS d   1      47.258  52.332  -0.640  0.00  0.00    -0.346 N 
ATOM     16  C   GLN d   1      46.521  51.985  -1.689  0.00  0.00     0.241 C 
ATOM     17  O   GLN d   1      45.840  52.784  -2.331  0.00  0.00    -0.271 OA
ATOM     18  H17 LYS d   1      47.794  51.634  -0.165  0.00  0.00     0.163 HD
BRANCH  16  19
ATOM     19  CA  GLN d   1      46.553  50.512  -2.073  0.00  0.00     0.090 C 
ATOM     20  H10 GLN d   1      47.092  49.952  -1.295  0.00  0.00     0.087 H 
BRANCH  19  21
ATOM     21  N   GLN d   1      45.187  49.986  -2.165  0.00  0.00    -0.346 N 
ATOM     22  C   GLU d   1      44.841  48.785  -1.690  0.00  0.00     0.249 C 
ATOM     23  O   GLU d   1      45.654  48.002  -1.169  0.00  0.00    -0.271 OA
ATOM     24  H9  GLN d   1      44.485  50.549  -2.601  0.00  0.00     0.163 HD
BRANCH  22  25
ATOM     25  CA  GLU d   1      43.353  48.399  -1.844  0.00  0.00     0.176 C 
ATOM     26  H4  GLU d   1      42.956  48.915  -2.731  0.00  0.00     0.099 H 
BRANCH  25  27
ATOM     27  N   GLU d   1      43.171  46.930  -2.044  0.00  0.00    -0.066 N 
ATOM     28  H1  GLU d   1      42.189  46.723  -2.139  0.00  0.00     0.275 HD
ATOM     29  H2  GLU d   1      43.543  46.434  -1.249  0.00  0.00     0.275 HD
ATOM     30  H3  GLU d   1      43.658  46.642  -2.878  0.00  0.00     0.275 HD
ENDBRANCH  25  27
BRANCH  25  31
ATOM     31  CB  GLU d   1      42.562  48.865  -0.616  0.00  0.00    -0.021 C 
ATOM     32  H5  GLU d   1      43.033  48.442   0.283  0.00  0.00     0.037 H 
ATOM     33  H6  GLU d   1      41.532  48.489  -0.701  0.00  0.00     0.037 H 
BRANCH  31  34
ATOM     34  CG  GLU d   1      42.512  50.385  -0.468  0.00  0.00     0.018 C 
ATOM     35  H7  GLU d   1      41.846  50.783  -1.248  0.00  0.00     0.049 H 
ATOM     36  H8  GLU d   1      43.529  50.777  -0.618  0.00  0.00     0.049 H 
BRANCH  34  37
ATOM     37  CD  GLU d   1      42.002  50.884   0.899  0.00  0.00     0.172 C 
ATOM     38  OE1 GLU d   1      41.992  52.121   1.083  0.00  0.00    -0.648 OA
ATOM     39  OE2 GLU d   1      41.621  50.069   1.777  0.00  0.00    -0.648 OA
ENDBRANCH  34  37
ENDBRANCH  31  34
ENDBRANCH  25  31
ENDBRANCH  22  25
ENDBRANCH  19  21
BRANCH  19  40
ATOM     40  CB  GLN d   1      47.295  50.349  -3.396  0.00  0.00    -0.030 C 
ATOM     41  H11 GLN d   1      48.290  50.808  -3.298  0.00  0.00     0.037 H 
ATOM     42  H12 GLN d   1      46.727  50.868  -4.182  0.00  0.00     0.037 H 
BRANCH  40  43
ATOM     43  CG  GLN d   1      47.467  48.920  -3.798  0.00  0.00     0.011 C 
ATOM     44  H13 GLN d   1      46.476  48.492  -4.008  0.00  0.00     0.047 H 
ATOM     45  H14 GLN d   1      47.934  48.374  -2.965  0.00  0.00     0.047 H 
BRANCH  43  46
ATOM     46  CD  GLN d   1      48.331  48.761  -5.024  0.00  0.00     0.215 C 
ATOM     47  OE1 GLN d   1      49.510  49.107  -5.001  0.00  0.00    -0.274 OA
ATOM     48  NE2 GLN d   1      47.751  48.235  -6.110  0.00  0.00    -0.370 N 
ATOM     49  H15 GLN d   1      48.281  48.109  -6.949  0.00  0.00     0.159 HD
ATOM     50  H16 GLN d   1      46.788  47.968  -6.083  0.00  0.00     0.159 HD
ENDBRANCH  43  46
ENDBRANCH  40  43
ENDBRANCH  19  40
ENDBRANCH  16  19
ENDBRANCH  13  15
BRANCH  13  51
ATOM     51  CB  LYS d   1      45.993  54.054   0.540  0.00  0.00    -0.038 C 
ATOM     52  H19 LYS d   1      45.160  53.589  -0.008  0.00  0.00     0.036 H 
ATOM     53  H20 LYS d   1      45.876  55.148   0.526  0.00  0.00     0.036 H 
BRANCH  51  54
ATOM     54  CG  LYS d   1      45.941  53.581   1.988  0.00  0.00    -0.061 C 
ATOM     55  H21 LYS d   1      46.808  53.992   2.525  0.00  0.00     0.033 H 
ATOM     56  H22 LYS d   1      45.988  52.482   2.002  0.00  0.00     0.033 H 
BRANCH  54  57
ATOM     57  CD  LYS d   1      44.672  54.024   2.699  0.00  0.00    -0.043 C 
ATOM     58  H23 LYS d   1      43.810  53.498   2.264  0.00  0.00     0.035 H 
ATOM     59  H24 LYS d   1      44.543  55.109   2.569  0.00  0.00     0.035 H 
BRANCH  57  60
ATOM     60  CE  LYS d   1      44.759  53.702   4.188  0.00  0.00     0.080 C 
ATOM     61  H25 LYS d   1      45.373  54.471   4.679  0.00  0.00     0.075 H 
ATOM     62  H26 LYS d   1      45.237  52.719   4.308  0.00  0.00     0.075 H 
BRANCH  60  63
ATOM     63  NZ  LYS d   1      43.431  53.666   4.845  0.00  0.00    -0.079 N 
ATOM     64  H27 LYS d   1      43.546  53.450   5.823  0.00  0.00     0.274 HD
ATOM     65  H28 LYS d   1      42.860  52.959   4.410  0.00  0.00     0.274 HD
ATOM     66  H29 LYS d   1      42.984  54.565   4.750  0.00  0.00     0.274 HD
ENDBRANCH  60  63
ENDBRANCH  57  60
ENDBRANCH  54  57
ENDBRANCH  51  54
ENDBRANCH  13  51
ENDBRANCH  10  13
ENDBRANCH   7   9
BRANCH   7  67
ATOM     67  CB  LEU d   1      50.503  56.983   1.229  0.00  0.00    -0.035 C 
ATOM     68  H32 LEU d   1      51.267  57.305   1.953  0.00  0.00     0.037 H 
ATOM     69  H33 LEU d   1      49.698  57.731   1.188  0.00  0.00     0.037 H 
BRANCH  67  70
ATOM     70  CG  LEU d   1      51.162  56.921  -0.158  0.00  0.00    -0.059 C 
ATOM     71  H34 LEU d   1      50.459  56.460  -0.868  0.00  0.00     0.038 H 
BRANCH  70  72
ATOM     72  CD1 LEU d   1      51.459  58.341  -0.600  0.00  0.00    -0.073 C 
ATOM     73  H35 LEU d   1      51.932  58.325  -1.593  0.00  0.00     0.028 H 
ATOM     74  H36 LEU d   1      52.139  58.815   0.123  0.00  0.00     0.028 H 
ATOM     75  H37 LEU d   1      50.521  58.913  -0.651  0.00  0.00     0.028 H 
ENDBRANCH  70  72
BRANCH  70  76
ATOM     76  CD2 LEU d   1      52.450  56.089  -0.138  0.00  0.00    -0.073 C 
ATOM     77  H38 LEU d   1      52.219  55.063   0.184  0.00  0.00     0.028 H 
ATOM     78  H39 LEU d   1      53.167  56.541   0.563  0.00  0.00     0.028 H 
ATOM     79  H40 LEU d   1      52.888  56.067  -1.147  0.00  0.00     0.028 H 
ENDBRANCH  70  76
ENDBRANCH  67  70
ENDBRANCH   7  67
ENDBRANCH   4   7
ENDBRANCH   1   3
BRANCH   1  80
ATOM     80  C   ILE d   1      50.771  56.392   6.416  0.00  0.00     0.241 C 
ATOM     81  O   ILE d   1      51.933  56.449   6.030  0.00  0.00    -0.271 OA
ATOM     82  N   SER d   1      50.410  56.726   7.644  0.00  0.00    -0.344 N 
ATOM     83  H52 SER d   1      49.453  56.636   7.921  0.00  0.00     0.163 HD
BRANCH  82  84
ATOM     84  CA  SER d   1      51.387  57.221   8.589  0.00  0.00     0.109 C 
ATOM     85  H53 SER d   1      52.097  57.885   8.075  0.00  0.00     0.090 H 
BRANCH  84  86
ATOM     86  C   SER d   1      52.130  56.029   9.182  0.00  0.00     0.243 C 
ATOM     87  O   SER d   1      51.625  54.909   9.169  0.00  0.00    -0.271 OA
ATOM     88  N   GLU d   1      53.329  56.267   9.695  0.00  0.00    -0.346 N 
ATOM     89  H57 GLU d   1      53.709  57.191   9.658  0.00  0.00     0.163 HD
BRANCH  88  90
ATOM     90  CA  GLU d   1      54.091  55.203  10.307  0.00  0.00     0.090 C 
ATOM     91  H58 GLU d   1      54.294  54.409   9.573  0.00  0.00     0.087 H 
BRANCH  90  92
ATOM     92  C   GLU d   1      53.239  54.661  11.454  0.00  0.00     0.241 C 
ATOM     93  O   GLU d   1      53.277  53.470  11.754  0.00  0.00    -0.271 OA
ATOM     94  N   GLU d   1      52.462  55.537  12.086  0.00  0.00    -0.346 N 
ATOM     95  H63 GLU d   1      52.459  56.492  11.791  0.00  0.00     0.163 HD
BRANCH  94  96
ATOM     96  CA  GLU d   1      51.614  55.130  13.202  0.00  0.00     0.090 C 
ATOM     97  H64 GLU d   1      52.261  54.639  13.944  0.00  0.00     0.087 H 
BRANCH  96  98
ATOM     98  C   GLU d   1      50.525  54.137  12.807  0.00  0.00     0.241 C 
ATOM     99  O   GLU d   1      50.233  53.200  13.558  0.00  0.00    -0.271 OA
ATOM    100  N   ASP d   1      49.912  54.340  11.643  0.00  0.00    -0.346 N 
ATOM    101  H69 ASP d   1      50.165  55.124  11.076  0.00  0.00     0.163 HD
BRANCH 100 102
ATOM    102  CA  ASP d   1      48.876  53.425  11.193  0.00  0.00     0.098 C 
ATOM    103  H70 ASP d   1      48.233  53.160  12.045  0.00  0.00     0.088 H 
BRANCH 102 104
ATOM    104  C   ASP d   1      49.542  52.178  10.644  0.00  0.00     0.241 C 
ATOM    105  O   ASP d   1      48.873  51.246  10.209  0.00  0.00    -0.271 OA
ATOM    106  N   LEU d   1      50.867  52.157  10.667  0.00  0.00    -0.346 N 
ATOM    107  H73 LEU d   1      51.370  52.933  11.048  0.00  0.00     0.163 HD
BRANCH 106 108
ATOM    108  CA  LEU d   1      51.590  51.015  10.143  0.00  0.00     0.089 C 
ATOM    109  H74 LEU d   1      51.187  50.813   9.140  0.00  0.00     0.087 H 
BRANCH 108 110
ATOM    110  C   LEU d   1      51.425  49.736  10.955  0.00  0.00     0.241 C 
ATOM    111  O   LEU d   1      51.132  48.696  10.391  0.00  0.00    -0.271 OA
ATOM    112  N   ASN d   1      51.605  49.802  12.270  0.00  0.00    -0.344 N 
ATOM    113  H84 ASN d   1      51.827  50.679  12.696  0.00  0.00     0.163 HD
BRANCH 112 114
ATOM    114  CA  ASN d   1      51.481  48.600  13.103  0.00  0.00     0.104 C 
ATOM    115  H85 ASN d   1      51.934  47.778  12.529  0.00  0.00     0.090 H 
BRANCH 114 116
ATOM    116  C   ASN d   1      50.044  48.162  13.431  0.00  0.00     0.197 C 
ATOM    117  O   ASN d   1      49.862  46.996  13.854  0.00  0.00    -0.646 OA
ATOM    118  OXT ASN d   1      49.115  48.978  13.271  0.00  0.00    -0.646 OA
ENDBRANCH 114 116
BRANCH 114 119
ATOM    119  CB  ASN d   1      52.290  48.755  14.405  0.00  0.00     0.037 C 
ATOM    120  H86 ASN d   1      53.360  48.674  14.165  0.00  0.00     0.051 H 
ATOM    121  H87 ASN d   1      52.006  47.945  15.093  0.00  0.00     0.051 H 
BRANCH 119 122
ATOM    122  CG  ASN d   1      52.050  50.082  15.097  0.00  0.00     0.217 C 
ATOM    123  OD1 ASN d   1      52.489  51.133  14.618  0.00  0.00    -0.274 OA
ATOM    124  ND2 ASN d   1      51.352  50.045  16.232  0.00  0.00    -0.370 N 
ATOM    125  H88 ASN d   1      51.164  50.891  16.731  0.00  0.00     0.159 HD
ATOM    126  H89 ASN d   1      51.017  49.171  16.584  0.00  0.00     0.159 HD
ENDBRANCH 119 122
ENDBRANCH 114 119
ENDBRANCH 112 114
ENDBRANCH 108 110
BRANCH 108 127
ATOM    127  CB  LEU d   1      53.074  51.354   9.991  0.00  0.00    -0.035 C 
ATOM    128  H75 LEU d   1      53.490  51.532  10.994  0.00  0.00     0.037 H 
ATOM    129  H76 LEU d   1      53.157  52.273   9.391  0.00  0.00     0.037 H 
BRANCH 127 130
ATOM    130  CG  LEU d   1      53.908  50.265   9.314  0.00  0.00    -0.059 C 
ATOM    131  H77 LEU d   1      53.291  49.774   8.547  0.00  0.00     0.038 H 
BRANCH 130 132
ATOM    132  CD1 LEU d   1      55.107  50.898   8.635  0.00  0.00    -0.073 C 
ATOM    133  H78 LEU d   1      55.708  50.116   8.148  0.00  0.00     0.028 H 
ATOM    134  H79 LEU d   1      55.721  51.418   9.385  0.00  0.00     0.028 H 
ATOM    135  H80 LEU d   1      54.762  51.619   7.880  0.00  0.00     0.028 H 
ENDBRANCH 130 132
BRANCH 130 136
ATOM    136  CD2 LEU d   1      54.341  49.207  10.334  0.00  0.00    -0.073 C 
ATOM    137  H81 LEU d   1      53.450  48.768  10.807  0.00  0.00     0.028 H 
ATOM    138  H82 LEU d   1      54.972  49.676  11.103  0.00  0.00     0.028 H 
ATOM    139  H83 LEU d   1      54.911  48.417   9.823  0.00  0.00     0.028 H 
ENDBRANCH 130 136
ENDBRANCH 127 130
ENDBRANCH 108 127
ENDBRANCH 106 108
ENDBRANCH 102 104
BRANCH 102 140
ATOM    140  CB  ASP d   1      48.014  54.044  10.087  0.00  0.00     0.043 C 
ATOM    141  H71 ASP d   1      47.228  53.326   9.811  0.00  0.00     0.052 H 
ATOM    142  H72 ASP d   1      48.653  54.242   9.214  0.00  0.00     0.052 H 
BRANCH 140 143
ATOM    143  CG  ASP d   1      47.359  55.336  10.508  0.00  0.00     0.175 C 
ATOM    144  OD1 ASP d   1      47.099  55.496  11.716  0.00  0.00    -0.648 OA
ATOM    145  OD2 ASP d   1      47.094  56.183   9.623  0.00  0.00    -0.648 OA
ENDBRANCH 140 143
ENDBRANCH 102 140
ENDBRANCH 100 102
ENDBRANCH  96  98
BRANCH  96 146
ATOM    146  CB  GLU d   1      50.969  56.348  13.862  0.00  0.00    -0.029 C 
ATOM    147  H65 GLU d   1      50.162  55.997  14.521  0.00  0.00     0.037 H 
ATOM    148  H66 GLU d   1      50.546  56.986  13.072  0.00  0.00     0.037 H 
BRANCH 146 149
ATOM    149  CG  GLU d   1      51.933  57.189  14.691  0.00  0.00     0.018 C 
ATOM    150  H67 GLU d   1      51.439  58.139  14.943  0.00  0.00     0.049 H 
ATOM    151  H68 GLU d   1      52.829  57.391  14.086  0.00  0.00     0.049 H 
BRANCH 149 152
ATOM    152  CD  GLU d   1      52.366  56.513  15.984  0.00  0.00     0.172 C 
ATOM    153  OE1 GLU d   1      51.475  56.020  16.714  0.00  0.00    -0.648 OA
ATOM    154  OE2 GLU d   1      53.589  56.489  16.276  0.00  0.00    -0.648 OA
ENDBRANCH 149 152
ENDBRANCH 146 149
ENDBRANCH  96 146
ENDBRANCH  94  96
ENDBRANCH  90  92
BRANCH  90 155
ATOM    155  CB  GLU d   1      55.411  55.742  10.856  0.00  0.00    -0.029 C 
ATOM    156  H59 GLU d   1      55.200  56.313  11.772  0.00  0.00     0.037 H 
ATOM    157  H60 GLU d   1      55.855  56.409  10.102  0.00  0.00     0.037 H 
BRANCH 155 158
ATOM    158  CG  GLU d   1      56.420  54.654  11.190  0.00  0.00     0.018 C 
ATOM    159  H61 GLU d   1      56.749  54.185  10.251  0.00  0.00     0.049 H 
ATOM    160  H62 GLU d   1      55.925  53.902  11.822  0.00  0.00     0.049 H 
BRANCH 158 161
ATOM    161  CD  GLU d   1      57.653  55.170  11.930  0.00  0.00     0.172 C 
ATOM    162  OE1 GLU d   1      58.118  56.291  11.620  0.00  0.00    -0.648 OA
ATOM    163  OE2 GLU d   1      58.169  54.445  12.812  0.00  0.00    -0.648 OA
ENDBRANCH 158 161
ENDBRANCH 155 158
ENDBRANCH  90 155
ENDBRANCH  88  90
ENDBRANCH  84  86
BRANCH  84 164
ATOM    164  CB  SER d   1      50.688  57.989   9.705  0.00  0.00     0.044 C 
ATOM    165  H54 SER d   1      49.953  58.679   9.264  0.00  0.00     0.077 H 
ATOM    166  H55 SER d   1      51.435  58.563  10.273  0.00  0.00     0.077 H 
BRANCH 164 167
ATOM    167  OG  SER d   1      50.022  57.096  10.581  0.00  0.00    -0.398 OA
ATOM    168  H56 SER d   1      49.374  56.601  10.094  0.00  0.00     0.209 HD
ENDBRANCH 164 167
ENDBRANCH  84 164
ENDBRANCH  82  84
ENDBRANCH   1  80
BRANCH   1 169
ATOM    169  CB  ILE d   1      49.283  54.502   6.035  0.00  0.00    -0.030 C 
ATOM    170  H43 ILE d   1      49.105  54.562   7.119  0.00  0.00     0.043 H 
BRANCH 169 171
ATOM    171  CG1 ILE d   1      50.456  53.536   5.771  0.00  0.00    -0.063 C 
ATOM    172  H44 ILE d   1      51.389  54.053   6.039  0.00  0.00     0.033 H 
ATOM    173  H45 ILE d   1      50.465  53.297   4.697  0.00  0.00     0.033 H 
BRANCH 171 174
ATOM    174  CD1 ILE d   1      50.407  52.251   6.529  0.00  0.00    -0.076 C 
ATOM    175  H49 ILE d   1      51.283  51.639   6.270  0.00  0.00     0.027 H 
ATOM    176  H50 ILE d   1      49.488  51.706   6.267  0.00  0.00     0.027 H 
ATOM    177  H51 ILE d   1      50.413  52.462   7.609  0.00  0.00     0.027 H 
ENDBRANCH 171 174
ENDBRANCH 169 171
BRANCH 169 178
ATOM    178  CG2 ILE d   1      48.010  54.021   5.359  0.00  0.00    -0.071 C 
ATOM    179  H46 ILE d   1      47.195  54.730   5.566  0.00  0.00     0.028 H 
ATOM    180  H47 ILE d   1      47.740  53.028   5.749  0.00  0.00     0.028 H 
ATOM    181  H48 ILE d   1      48.173  53.957   4.273  0.00  0.00     0.028 H 
ENDBRANCH 169 178
ENDBRANCH   1 169
TORSDOF 57
