REMARK  7 active torsions:
REMARK  status: ('A' for Active; 'I' for Inactive)
REMARK    1  A    between atoms: C1_1  and  O1_8 
REMARK    2  A    between atoms: C2_2  and  O2_9 
REMARK    3  A    between atoms: C3_3  and  O3_10 
REMARK    4  A    between atoms: C4_4  and  O4_11 
REMARK    5  A    between atoms: C5_5  and  O5_12 
REMARK    6  A    between atoms: C6_6  and  O6_13 
REMARK    7  A    between atoms: O1_8  and  P1_7 
ROOT
ATOM      1  C1  IPD d   1      28.744  18.716 -25.023  0.00  0.00     0.106 C 
ATOM      2  C2  IPD d   1      29.136  20.115 -25.518  0.00  0.00     0.090 C 
ATOM      3  C3  IPD d   1      27.940  21.037 -25.806  0.00  0.00     0.090 C 
ATOM      4  C4  IPD d   1      26.979  21.116 -24.616  0.00  0.00     0.090 C 
ATOM      5  C5  IPD d   1      26.559  19.706 -24.197  0.00  0.00     0.090 C 
ATOM      6  C6  IPD d   1      27.773  18.837 -23.847  0.00  0.00     0.090 C 
ATOM      7  H1  IPD d   1      28.290  18.136 -25.840  0.00  0.00     0.092 H 
ATOM      8  H2  IPD d   1      29.719  20.005 -26.444  0.00  0.00     0.091 H 
ATOM      9  H3  IPD d   1      27.401  20.646 -26.682  0.00  0.00     0.091 H 
ATOM     10  H4  IPD d   1      27.484  21.605 -23.770  0.00  0.00     0.091 H 
ATOM     11  H5  IPD d   1      26.028  19.232 -25.036  0.00  0.00     0.091 H 
ATOM     12  H6  IPD d   1      28.303  19.320 -23.013  0.00  0.00     0.091 H 
ENDROOT
BRANCH   1  13
ATOM     13  O1  IPD d   1      29.922  18.067 -24.531  0.00  0.00    -0.272 OA
BRANCH  13  14
ATOM     14  P1  IPD d   1      30.411  16.560 -24.888  0.00  0.00     0.422 P 
ATOM     15  O7  IPD d   1      31.814  16.532 -24.324  0.00  0.00    -0.617 OA
ATOM     16  O8  IPD d   1      29.431  15.656 -24.178  0.00  0.00    -0.617 OA
ATOM     17  O9  IPD d   1      30.366  16.488 -26.397  0.00  0.00    -0.617 OA
ENDBRANCH  13  14
ENDBRANCH   1  13
BRANCH   2  18
ATOM     18  O2  IPD d   1      29.949  20.730 -24.509  0.00  0.00    -0.390 OA
ATOM     19  H7  IPD d   1      30.694  20.171 -24.320  0.00  0.00     0.210 HD
ENDBRANCH   2  18
BRANCH   6  20
ATOM     20  O6  IPD d   1      27.373  17.527 -23.426  0.00  0.00    -0.390 OA
ATOM     21  H11 IPD d   1      26.890  17.104 -24.127  0.00  0.00     0.210 HD
ENDBRANCH   6  20
BRANCH   3  22
ATOM     22  O3  IPD d   1      28.383  22.375 -26.075  0.00  0.00    -0.390 OA
ATOM     23  H8  IPD d   1      28.824  22.721 -25.308  0.00  0.00     0.210 HD
ENDBRANCH   3  22
BRANCH   5  24
ATOM     24  O5  IPD d   1      25.658  19.815 -23.080  0.00  0.00    -0.390 OA
ATOM     25  H10 IPD d   1      25.352  18.949 -22.836  0.00  0.00     0.210 HD
ENDBRANCH   5  24
BRANCH   4  26
ATOM     26  O4  IPD d   1      25.839  21.892 -24.995  0.00  0.00    -0.390 OA
ATOM     27  H9  IPD d   1      26.121  22.762 -25.251  0.00  0.00     0.210 HD
ENDBRANCH   4  26
TORSDOF 7
