REMARK  6 active torsions:
REMARK  status: ('A' for Active; 'I' for Inactive)
REMARK    1  A    between atoms: C1_1  and  O1_7 
REMARK    2  A    between atoms: C2_2  and  O2_8 
REMARK    3  A    between atoms: C3_3  and  O3_9 
REMARK    4  A    between atoms: C4_4  and  O4_10 
REMARK    5  A    between atoms: C5_5  and  O5_11 
REMARK    6  A    between atoms: C6_6  and  O6_12 
ROOT
ATOM      1  C1  INS d   1      27.677 -13.640  11.218  0.00  0.00     0.090 C 
ATOM      2  C2  INS d   1      27.653 -14.706  10.056  0.00  0.00     0.090 C 
ATOM      3  C3  INS d   1      28.695 -14.349   8.963  0.00  0.00     0.090 C 
ATOM      4  C4  INS d   1      30.088 -14.047   9.523  0.00  0.00     0.090 C 
ATOM      5  C5  INS d   1      30.052 -12.917  10.615  0.00  0.00     0.090 C 
ATOM      6  C6  INS d   1      29.119 -13.371  11.788  0.00  0.00     0.090 C 
ATOM      7  H1  INS d   1      27.285 -12.695  10.815  0.00  0.00     0.091 H 
ATOM      8  H2  INS d   1      26.651 -14.675   9.604  0.00  0.00     0.091 H 
ATOM      9  H3  INS d   1      28.336 -13.460   8.424  0.00  0.00     0.091 H 
ATOM     10  H4  INS d   1      30.484 -14.957   9.997  0.00  0.00     0.091 H 
ATOM     11  H5  INS d   1      29.663 -11.991  10.168  0.00  0.00     0.091 H 
ATOM     12  H6  INS d   1      29.515 -14.301  12.222  0.00  0.00     0.091 H 
ENDROOT
BRANCH   1  13
ATOM     13  O1  INS d   1      26.803 -14.081  12.346  0.00  0.00    -0.390 OA
ATOM     14  H7  INS d   1      25.927 -14.248  12.020  0.00  0.00     0.210 HD
ENDBRANCH   1  13
BRANCH   2  15
ATOM     15  O2  INS d   1      27.897 -16.070  10.499  0.00  0.00    -0.390 OA
ATOM     16  H8  INS d   1      27.809 -16.662   9.761  0.00  0.00     0.210 HD
ENDBRANCH   2  15
BRANCH   6  17
ATOM     17  O6  INS d   1      29.064 -12.349  12.832  0.00  0.00    -0.390 OA
ATOM     18  H12 INS d   1      29.938 -12.200  13.174  0.00  0.00     0.210 HD
ENDBRANCH   6  17
BRANCH   3  19
ATOM     19  O3  INS d   1      28.819 -15.451   8.037  0.00  0.00    -0.390 OA
ATOM     20  H9  INS d   1      27.965 -15.657   7.676  0.00  0.00     0.210 HD
ENDBRANCH   3  19
BRANCH   5  21
ATOM     21  O5  INS d   1      31.368 -12.677  11.143  0.00  0.00    -0.390 OA
ATOM     22  H11 INS d   1      31.702 -13.476  11.532  0.00  0.00     0.210 HD
ENDBRANCH   5  21
BRANCH   4  23
ATOM     23  O4  INS d   1      30.925 -13.708   8.408  0.00  0.00    -0.390 OA
ATOM     24  H10 INS d   1      30.914 -14.419   7.778  0.00  0.00     0.210 HD
ENDBRANCH   4  23
TORSDOF 6
