REMARK  7 active torsions:
REMARK  status: ('A' for Active; 'I' for Inactive)
REMARK    1  A    between atoms: C9_1  and  N3_8 
REMARK    2  A    between atoms: N4_20  and  C11_3 
REMARK    3  A    between atoms: C12_4  and  C15_7 
REMARK       I    between atoms: N3_8  and  C8_9 
REMARK    4  A    between atoms: C8_9  and  C17_11 
REMARK    5  A    between atoms: C19_13  and  C7_16 
REMARK    6  A    between atoms: C5_26  and  N4_20 
REMARK    7  A    between atoms: C4_32  and  C21_21 
ROOT
ATOM      1  C9  MUH d   1      53.320  -0.377  71.129  0.00  0.00     0.037 A 
ATOM      2  C10 MUH d   1      53.482  -0.160  72.579  0.00  0.00    -0.031 A 
ATOM      3  C11 MUH d   1      53.270  -1.270  73.549  0.00  0.00     0.041 A 
ATOM      4  C12 MUH d   1      52.868  -2.599  73.048  0.00  0.00    -0.035 A 
ATOM      5  C13 MUH d   1      52.718  -2.808  71.597  0.00  0.00    -0.073 A 
ATOM      6  C14 MUH d   1      52.946  -1.708  70.640  0.00  0.00    -0.057 A 
ATOM      7  H1  MUH d   1      53.760   0.822  72.944  0.00  0.00     0.090 H 
ATOM      8  H2  MUH d   1      52.435  -3.787  71.226  0.00  0.00     0.084 H 
ATOM      9  H3  MUH d   1      52.837  -1.884  69.576  0.00  0.00     0.086 H 
ENDROOT
BRANCH   3  10
ATOM     10  N4  MUH d   1      53.493  -1.090  74.944  0.00  0.00    -0.340 N 
ATOM     11  H12 MUH d   1      54.464  -1.196  75.270  0.00  0.00     0.167 HD
BRANCH  10  12
ATOM     12  C5  MUH d   1      52.527  -0.781  75.931  0.00  0.00     0.140 A 
ATOM     13  C21 MUH d   1      52.892  -0.745  77.358  0.00  0.00     0.039 A 
ATOM     14  C22 MUH d   1      51.772  -0.413  78.253  0.00  0.00    -0.066 A 
ATOM     15  C23 MUH d   1      50.400  -0.130  77.844  0.00  0.00    -0.065 A 
ATOM     16  H13 MUH d   1      51.986  -0.375  79.315  0.00  0.00     0.085 H 
ATOM     17  C24 MUH d   1      50.142  -0.191  76.412  0.00  0.00     0.004 A 
ATOM     18  H14 MUH d   1      49.623   0.110  78.560  0.00  0.00     0.085 H 
ATOM     19  N5  MUH d   1      51.202  -0.509  75.546  0.00  0.00    -0.242 NA
ATOM     20  H15 MUH d   1      49.150   0.005  76.021  0.00  0.00     0.114 H 
BRANCH  13  21
ATOM     21  C4  MUH d   1      54.319  -1.036  77.838  0.00  0.00     0.073 A 
ATOM     22  C1  MUH d   1      54.694  -1.035  79.231  0.00  0.00    -0.037 A 
ATOM     23  C2  MUH d   1      56.076  -1.239  79.500  0.00  0.00     0.006 A 
ATOM     24  H16 MUH d   1      53.968  -0.888  80.023  0.00  0.00     0.089 H 
ATOM     25  N1  MUH d   1      56.998  -1.429  78.500  0.00  0.00    -0.254 NA
ATOM     26  H17 MUH d   1      56.413  -1.245  80.530  0.00  0.00     0.114 H 
ATOM     27  C3  MUH d   1      56.687  -1.441  77.159  0.00  0.00     0.086 A 
ATOM     28  N2  MUH d   1      55.362  -1.245  76.862  0.00  0.00    -0.241 NA
ATOM     29  H18 MUH d   1      57.437  -1.595  76.391  0.00  0.00     0.146 H 
ENDBRANCH  13  21
ENDBRANCH  10  12
ENDBRANCH   3  10
BRANCH   4  30
ATOM     30  C15 MUH d   1      52.600  -3.653  74.022  0.00  0.00    -0.049 C 
ATOM     31  H4  MUH d   1      52.779  -3.268  75.037  0.00  0.00     0.033 H 
ATOM     32  H5  MUH d   1      53.267  -4.507  73.831  0.00  0.00     0.033 H 
ATOM     33  H6  MUH d   1      51.553  -3.978  73.932  0.00  0.00     0.033 H 
ENDBRANCH   4  30
BRANCH   1  34
ATOM     34  N3  MUH d   1      53.469   0.627  70.166  0.00  0.00    -0.323 N 
ATOM     35  C8  MUH d   1      53.727   1.950  70.334  0.00  0.00     0.256 C 
ATOM     36  O1  MUH d   1      53.977   2.524  71.393  0.00  0.00    -0.267 OA
ATOM     37  H7  MUH d   1      53.371   0.327  69.217  0.00  0.00     0.169 HD
BRANCH  35  38
ATOM     38  C17 MUH d   1      53.706   2.716  69.095  0.00  0.00     0.033 A 
ATOM     39  C16 MUH d   1      52.671   2.607  68.059  0.00  0.00    -0.068 A 
ATOM     40  C6  MUH d   1      52.771   3.457  66.873  0.00  0.00    -0.081 A 
ATOM     41  H8  MUH d   1      51.849   1.910  68.171  0.00  0.00     0.085 H 
ATOM     42  C20 MUH d   1      53.886   4.415  66.729  0.00  0.00    -0.068 A 
ATOM     43  H11 MUH d   1      52.021   3.383  66.094  0.00  0.00     0.083 H 
ATOM     44  C19 MUH d   1      54.926   4.527  67.779  0.00  0.00     0.048 A 
ATOM     45  H10 MUH d   1      53.944   5.042  65.847  0.00  0.00     0.084 H 
ATOM     46  C18 MUH d   1      54.811   3.646  68.957  0.00  0.00    -0.053 A 
ATOM     47  H9  MUH d   1      55.566   3.695  69.734  0.00  0.00     0.086 H 
BRANCH  44  48
ATOM     48  C7  MUH d   1      56.088   5.547  67.716  0.00  0.00     0.417 C 
ATOM     49  F3  MUH d   1      56.419   5.980  66.504  0.00  0.00    -0.166 F 
ATOM     50  F1  MUH d   1      57.207   5.029  68.182  0.00  0.00    -0.166 F 
ATOM     51  F2  MUH d   1      55.731   6.602  68.470  0.00  0.00    -0.166 F 
ENDBRANCH  44  48
ENDBRANCH  35  38
ENDBRANCH   1  34
TORSDOF 7
