REMARK  2 active torsions:
REMARK  status: ('A' for Active; 'I' for Inactive)
REMARK    1  A    between atoms: C2_2  and  O1_7 
REMARK    2  A    between atoms: C3_3  and  S1_8 
ROOT
ATOM      1  C1  HTS d   1      -6.863   3.240  16.557  0.00  0.00    -0.050 A 
ATOM      2  C2  HTS d   1      -6.539   1.929  16.908  0.00  0.00     0.082 A 
ATOM      3  C3  HTS d   1      -5.703   1.154  16.111  0.00  0.00     0.030 A 
ATOM      4  C4  HTS d   1      -5.145   1.644  14.917  0.00  0.00    -0.064 A 
ATOM      5  C5  HTS d   1      -5.481   2.966  14.574  0.00  0.00    -0.082 A 
ATOM      6  C6  HTS d   1      -6.309   3.736  15.367  0.00  0.00    -0.080 A 
ATOM      7  H1  HTS d   1      -7.513   3.848  17.176  0.00  0.00     0.087 H 
ATOM      8  H2  HTS d   1      -4.494   1.038  14.297  0.00  0.00     0.085 H 
ATOM      9  H3  HTS d   1      -5.079   3.392  13.662  0.00  0.00     0.083 H 
ATOM     10  H4  HTS d   1      -6.537   4.751  15.062  0.00  0.00     0.083 H 
ENDROOT
BRANCH   2  11
ATOM     11  O1  HTS d   1      -7.044   1.442  18.062  0.00  0.00    -0.359 OA
ATOM     12  H5  HTS d   1      -7.589   2.103  18.472  0.00  0.00     0.217 HD
ENDBRANCH   2  11
BRANCH   3  13
ATOM     13  S1  HTS d   1      -5.289  -0.464  16.650  0.00  0.00    -0.140 SA
ATOM     14  H6  HTS d   1      -5.768  -0.662  17.515  0.00  0.00     0.107 HD
ENDBRANCH   3  13
TORSDOF 2
