REMARK  11 active torsions:
REMARK  status: ('A' for Active; 'I' for Inactive)
REMARK    1  A    between atoms: N3B_8  and  PG_1 
REMARK    2  A    between atoms: PB_5  and  N3B_8 
REMARK    3  A    between atoms: O3A_12  and  PB_5 
REMARK    4  A    between atoms: PA_9  and  O3A_12 
REMARK    5  A    between atoms: PA_9  and  O5'_13 
REMARK    6  A    between atoms: O5'_13  and  C5'_14 
REMARK    7  A    between atoms: C5'_14  and  C4'_15 
REMARK    8  A    between atoms: C3'_17  and  O3'_18 
REMARK    9  A    between atoms: C2'_19  and  O2'_20 
REMARK   10  A    between atoms: C1'_21  and  N9_22 
REMARK   11  A    between atoms: C6_26  and  N6_27 
ROOT
ATOM      1  C4' ANP d   1      42.252  10.336  37.079  0.00  0.00     0.089 C 
ATOM      2  O4' ANP d   1      43.117  11.392  37.534  0.00  0.00    -0.353 OA
ATOM      3  C3' ANP d   1      41.448   9.844  38.320  0.00  0.00     0.091 C 
ATOM      4  C2' ANP d   1      42.349  10.271  39.476  0.00  0.00     0.105 C 
ATOM      5  C1' ANP d   1      42.648  11.620  38.844  0.00  0.00     0.139 C 
ATOM      6  H4  ANP d   1      42.856   9.488  36.724  0.00  0.00     0.090 H 
ATOM      7  H5  ANP d   1      40.486  10.375  38.363  0.00  0.00     0.091 H 
ATOM      8  H7  ANP d   1      41.831  10.349  40.443  0.00  0.00     0.093 H 
ATOM      9  H9  ANP d   1      43.674  11.632  39.240  0.00  0.00     0.122 H 
ENDROOT
BRANCH   1  10
ATOM     10  C5' ANP d   1      41.473  10.890  35.859  0.00  0.00     0.058 C 
ATOM     11  H2  ANP d   1      41.480  11.987  35.941  0.00  0.00     0.079 H 
ATOM     12  H3  ANP d   1      42.025  10.586  34.957  0.00  0.00     0.079 H 
BRANCH  10  13
ATOM     13  O5' ANP d   1      40.112  10.490  35.675  0.00  0.00    -0.287 OA
BRANCH  13  14
ATOM     14  PA  ANP d   1      39.611  10.365  34.158  0.00  0.00     0.417 P 
ATOM     15  O1A ANP d   1      40.222  11.612  33.436  0.00  0.00    -0.624 OA
ATOM     16  O2A ANP d   1      39.974   8.946  33.630  0.00  0.00    -0.624 OA
BRANCH  14  17
ATOM     17  O3A ANP d   1      38.016  10.622  34.065  0.00  0.00    -0.186 OA
BRANCH  17  18
ATOM     18  PB  ANP d   1      37.347   9.933  32.770  0.00  0.00     0.379 P 
ATOM     19  O1B ANP d   1      37.292   8.369  32.903  0.00  0.00    -0.629 OA
ATOM     20  O2B ANP d   1      38.158  10.575  31.585  0.00  0.00    -0.629 OA
BRANCH  18  21
ATOM     21  N3B ANP d   1      35.908  10.685  32.197  0.00  0.00    -0.218 N 
ATOM     22  H1  ANP d   1      35.813  11.679  32.249  0.00  0.00     0.179 HD
BRANCH  21  23
ATOM     23  PG  ANP d   1      34.661   9.759  31.550  0.00  0.00     0.381 P 
ATOM     24  O1G ANP d   1      34.659   8.802  32.769  0.00  0.00    -0.622 OA
ATOM     25  O2G ANP d   1      35.486   9.237  30.350  0.00  0.00    -0.622 OA
ATOM     26  O3G ANP d   1      33.421  10.671  31.298  0.00  0.00    -0.622 OA
ENDBRANCH  21  23
ENDBRANCH  18  21
ENDBRANCH  17  18
ENDBRANCH  14  17
ENDBRANCH  13  14
ENDBRANCH  10  13
ENDBRANCH   1  10
BRANCH   3  27
ATOM     27  O3' ANP d   1      41.178   8.459  38.393  0.00  0.00    -0.390 OA
ATOM     28  H6  ANP d   1      40.686   8.275  39.185  0.00  0.00     0.210 HD
ENDBRANCH   3  27
BRANCH   5  29
ATOM     29  N9  ANP d   1      42.418  12.897  39.512  0.00  0.00    -0.294 N 
ATOM     30  C8  ANP d   1      41.583  13.896  39.032  0.00  0.00     0.071 A 
ATOM     31  N7  ANP d   1      41.517  14.954  39.800  0.00  0.00    -0.236 NA
ATOM     32  H10 ANP d   1      41.031  13.807  38.098  0.00  0.00     0.144 H 
ATOM     33  C5  ANP d   1      42.368  14.633  40.852  0.00  0.00     0.149 A 
ATOM     34  C6  ANP d   1      42.741  15.342  42.002  0.00  0.00     0.155 A 
ATOM     35  C4  ANP d   1      42.928  13.382  40.702  0.00  0.00     0.167 A 
ATOM     36  N1  ANP d   1      43.600  14.780  42.873  0.00  0.00    -0.222 NA
ATOM     37  C2  ANP d   1      44.078  13.554  42.621  0.00  0.00     0.091 A 
ATOM     38  N3  ANP d   1      43.800  12.778  41.562  0.00  0.00    -0.222 NA
ATOM     39  H13 ANP d   1      44.765  13.144  43.353  0.00  0.00     0.146 H 
BRANCH  34  40
ATOM     40  N6  ANP d   1      42.258  16.554  42.242  0.00  0.00    -0.382 N 
ATOM     41  H11 ANP d   1      42.542  17.062  43.092  0.00  0.00     0.157 HD
ATOM     42  H12 ANP d   1      41.599  16.986  41.579  0.00  0.00     0.157 HD
ENDBRANCH  34  40
ENDBRANCH   5  29
BRANCH   4  43
ATOM     43  O2' ANP d   1      43.471   9.413  39.601  0.00  0.00    -0.388 OA
ATOM     44  H8  ANP d   1      43.173   8.525  39.762  0.00  0.00     0.210 HD
ENDBRANCH   4  43
TORSDOF 11
