REMARK  12 active torsions:
REMARK  status: ('A' for Active; 'I' for Inactive)
REMARK    1  A    between atoms: C1'_27  and  N9_7 
REMARK    2  A    between atoms: PA_11  and  O3A_14 
REMARK    3  A    between atoms: O5'_31  and  PA_11 
REMARK    4  A    between atoms: O3A_14  and  PB_15 
REMARK    5  A    between atoms: PB_15  and  O3B_18 
REMARK    6  A    between atoms: O3B_18  and  PG_19 
REMARK    7  A    between atoms: PG_19  and  O3G_22 
REMARK    8  A    between atoms: O3G_22  and  PD_23 
REMARK    9  A    between atoms: C5'_30  and  C4'_29 
REMARK   10  A    between atoms: C5'_30  and  O5'_31 
REMARK   11  A    between atoms: C3'_32  and  O3'_33 
REMARK   12  A    between atoms: C2'_34  and  O2'_35 
ROOT
ATOM      1  C1' AQP d   1      54.793  26.477  36.062  0.00  0.00     0.139 C 
ATOM      2  O4' AQP d   1      54.912  25.173  35.741  0.00  0.00    -0.353 OA
ATOM      3  C4' AQP d   1      55.254  24.327  36.873  0.00  0.00     0.089 C 
ATOM      4  C3' AQP d   1      55.219  25.256  38.109  0.00  0.00     0.091 C 
ATOM      5  C2' AQP d   1      54.397  26.381  37.508  0.00  0.00     0.105 C 
ATOM      6  H5  AQP d   1      55.706  27.073  35.915  0.00  0.00     0.122 H 
ATOM      7  H6  AQP d   1      56.303  24.018  36.751  0.00  0.00     0.090 H 
ATOM      8  H9  AQP d   1      54.661  24.784  38.931  0.00  0.00     0.091 H 
ATOM      9  H11 AQP d   1      53.365  26.000  37.519  0.00  0.00     0.093 H 
ENDROOT
BRANCH   3  10
ATOM     10  C5' AQP d   1      54.500  23.084  36.895  0.00  0.00     0.058 C 
ATOM     11  H7  AQP d   1      54.974  22.368  37.583  0.00  0.00     0.079 H 
ATOM     12  H8  AQP d   1      54.460  22.650  35.885  0.00  0.00     0.079 H 
BRANCH  10  13
ATOM     13  O5' AQP d   1      53.167  23.399  37.351  0.00  0.00    -0.287 OA
BRANCH  13  14
ATOM     14  PA  AQP d   1      52.198  22.336  37.889  0.00  0.00     0.417 P 
ATOM     15  O1A AQP d   1      51.612  21.622  36.786  0.00  0.00    -0.624 OA
ATOM     16  O2A AQP d   1      52.914  21.544  38.863  0.00  0.00    -0.624 OA
BRANCH  14  17
ATOM     17  O3A AQP d   1      51.069  23.141  38.582  0.00  0.00    -0.180 OA
BRANCH  17  18
ATOM     18  PB  AQP d   1      50.059  24.158  37.924  0.00  0.00     0.427 P 
ATOM     19  O2B AQP d   1      50.402  25.632  38.186  0.00  0.00    -0.624 OA
ATOM     20  O1B AQP d   1      48.696  23.908  38.522  0.00  0.00    -0.624 OA
BRANCH  18  21
ATOM     21  O3B AQP d   1      50.217  23.589  36.415  0.00  0.00    -0.180 OA
BRANCH  21  22
ATOM     22  PG  AQP d   1      49.300  23.501  35.185  0.00  0.00     0.428 P 
ATOM     23  O2G AQP d   1      50.022  23.571  33.887  0.00  0.00    -0.624 OA
ATOM     24  O1G AQP d   1      48.290  24.541  35.332  0.00  0.00    -0.624 OA
BRANCH  22  25
ATOM     25  O3G AQP d   1      48.635  22.210  35.399  0.00  0.00    -0.173 OA
BRANCH  25  26
ATOM     26  PD  AQP d   1      47.226  21.818  36.104  0.00  0.00     0.431 P 
ATOM     27  O2D AQP d   1      47.129  20.356  36.291  0.00  0.00    -0.616 OA
ATOM     28  O1D AQP d   1      47.086  22.471  37.439  0.00  0.00    -0.616 OA
ATOM     29  O3D AQP d   1      46.099  22.262  35.200  0.00  0.00    -0.616 OA
ENDBRANCH  25  26
ENDBRANCH  22  25
ENDBRANCH  21  22
ENDBRANCH  18  21
ENDBRANCH  17  18
ENDBRANCH  14  17
ENDBRANCH  13  14
ENDBRANCH  10  13
ENDBRANCH   3  10
BRANCH   4  30
ATOM     30  O3' AQP d   1      56.505  25.586  38.620  0.00  0.00    -0.390 OA
ATOM     31  H10 AQP d   1      56.956  24.791  38.879  0.00  0.00     0.210 HD
ENDBRANCH   4  30
BRANCH   1  32
ATOM     32  N9  AQP d   1      53.673  26.927  35.172  0.00  0.00    -0.294 N 
ATOM     33  C4  AQP d   1      53.757  27.867  34.165  0.00  0.00     0.167 A 
ATOM     34  N3  AQP d   1      54.853  28.660  33.715  0.00  0.00    -0.222 NA
ATOM     35  C5  AQP d   1      52.466  27.941  33.598  0.00  0.00     0.149 A 
ATOM     36  C2  AQP d   1      54.681  29.544  32.672  0.00  0.00     0.091 A 
ATOM     37  N1  AQP d   1      53.412  29.604  32.073  0.00  0.00    -0.222 NA
ATOM     38  H3  AQP d   1      55.495  30.170  32.326  0.00  0.00     0.146 H 
ATOM     39  C6  AQP d   1      52.275  28.858  32.477  0.00  0.00     0.155 A 
ATOM     40  N6  AQP d   1      51.146  29.022  31.838  0.00  0.00    -0.382 N 
ATOM     41  H1  AQP d   1      50.312  28.487  32.120  0.00  0.00     0.157 HD
ATOM     42  H2  AQP d   1      51.090  29.686  31.052  0.00  0.00     0.157 HD
ATOM     43  N7  AQP d   1      51.581  27.078  34.251  0.00  0.00    -0.236 NA
ATOM     44  C8  AQP d   1      52.356  26.478  35.201  0.00  0.00     0.071 A 
ATOM     45  H4  AQP d   1      51.986  25.732  35.903  0.00  0.00     0.144 H 
ENDBRANCH   1  32
BRANCH   5  46
ATOM     46  O2' AQP d   1      54.283  27.608  38.114  0.00  0.00    -0.388 OA
ATOM     47  H12 AQP d   1      53.730  28.171  37.585  0.00  0.00     0.210 HD
ENDBRANCH   5  46
TORSDOF 12
