REMARK WARNING: 32 MAX_TORS EXCEEDED!!!
REMARK  45 active torsions:
REMARK  status: ('A' for Active; 'I' for Inactive)
REMARK    1  A    between atoms: N_1  and  CA_2 
REMARK    2  A    between atoms: CA_2  and  C_3 
REMARK    3  A    between atoms: CA_2  and  CB_5 
REMARK       I    between atoms: C_3  and  N_9 
REMARK    4  A    between atoms: CB_5  and  CG_6 
REMARK    5  A    between atoms: CG_6  and  CD1_7 
REMARK    6  A    between atoms: CG_6  and  CD2_8 
REMARK    7  A    between atoms: CA_10  and  C_11 
REMARK       I    between atoms: C_11  and  N_16 
REMARK    8  A    between atoms: N_16  and  CA_17 
REMARK    9  A    between atoms: CA_17  and  C_18 
REMARK   10  A    between atoms: CA_17  and  CB_20 
REMARK       I    between atoms: C_18  and  N_22 
REMARK   11  A    between atoms: CB_20  and  OG_21 
REMARK   12  A    between atoms: N_22  and  CA_23 
REMARK   13  A    between atoms: CA_23  and  C_24 
REMARK       I    between atoms: C_24  and  N_26 
REMARK   14  A    between atoms: N_26  and  CA_27 
REMARK   15  A    between atoms: CA_27  and  C_28 
REMARK   16  A    between atoms: CA_27  and  CB_30 
REMARK       I    between atoms: C_28  and  N_34 
REMARK   17  A    between atoms: CB_30  and  CG_31 
REMARK   18  A    between atoms: CG_31  and  CD1_32 
REMARK   19  A    between atoms: CG_31  and  CD2_33 
REMARK   20  A    between atoms: N_34  and  CA_35 
REMARK   21  A    between atoms: CA_35  and  C_36 
REMARK   22  A    between atoms: CA_35  and  CB_38 
REMARK       I    between atoms: C_36  and  N_42 
REMARK   23  A    between atoms: CB_38  and  CG_39 
REMARK   24  A    between atoms: CG_39  and  CD1_40 
REMARK   25  A    between atoms: CG_39  and  CD2_41 
REMARK   26  A    between atoms: N_42  and  CA_43 
REMARK   27  A    between atoms: CA_43  and  CB_44 
REMARK   28  A    between atoms: CA_43  and  C_51 
REMARK   29  A    between atoms: CB_44  and  CG2_45 
REMARK   30  A    between atoms: CB_44  and  OG1_46 
REMARK   31  A    between atoms: OG1_46  and  P_47 
REMARK       I    between atoms: C_51  and  N_53 
REMARK   32  A    between atoms: CA_54  and  C_55 
REMARK       I    between atoms: C_55  and  N_60 
REMARK   33  A    between atoms: CA_61  and  C_62 
REMARK       I    between atoms: C_62  and  N_67 
REMARK   34  A    between atoms: N_67  and  CA_68 
REMARK   35  A    between atoms: CA_68  and  C_69 
REMARK   36  A    between atoms: CA_68  and  CB_71 
REMARK       I    between atoms: C_69  and  N_76 
REMARK   37  A    between atoms: CB_71  and  CG_72 
REMARK   38  A    between atoms: CG_72  and  CD_73 
REMARK       I    between atoms: CD_73  and  NE2_75 
REMARK   39  A    between atoms: N_76  and  CA_77 
REMARK   40  A    between atoms: CA_77  and  CB_78 
REMARK   41  A    between atoms: CA_77  and  C_80 
REMARK   42  A    between atoms: CB_78  and  OG_79 
REMARK   43  A    between atoms: OG_79  and  P_82 
REMARK       I    between atoms: C_80  and  N_86 
REMARK   44  A    between atoms: N_86  and  CA_87 
REMARK   45  A    between atoms: CA_87  and  C_88 
ROOT
ATOM      1  CA  LEU d   1      31.652  64.364  28.522  0.00  0.00     0.089 C 
ATOM      2  H41 LEU d   1      31.947  65.056  27.720  0.00  0.00     0.087 H 
ENDROOT
BRANCH   1   3
ATOM      3  N   LEU d   1      31.585  63.024  27.943  0.00  0.00    -0.346 N 
ATOM      4  C   LEU d   1      31.446  62.855  26.630  0.00  0.00     0.241 C 
ATOM      5  O   LEU d   1      31.408  63.801  25.842  0.00  0.00    -0.271 OA
ATOM      6  H40 LEU d   1      31.644  62.224  28.540  0.00  0.00     0.163 HD
BRANCH   4   7
ATOM      7  CA  LEU d   1      31.337  61.416  26.112  0.00  0.00     0.089 C 
ATOM      8  H30 LEU d   1      30.775  60.811  26.839  0.00  0.00     0.087 H 
BRANCH   7   9
ATOM      9  N   LEU d   1      30.620  61.432  24.837  0.00  0.00    -0.346 N 
ATOM     10  C   GLY d   1      29.339  61.083  24.722  0.00  0.00     0.236 C 
ATOM     11  O   GLY d   1      28.655  60.692  25.670  0.00  0.00    -0.272 OA
ATOM     12  H29 LEU d   1      31.113  61.718  24.015  0.00  0.00     0.163 HD
BRANCH  10  13
ATOM     13  CA  GLY d   1      28.760  61.183  23.322  0.00  0.00     0.069 C 
ATOM     14  H27 GLY d   1      28.672  60.176  22.889  0.00  0.00     0.078 H 
ATOM     15  H28 GLY d   1      27.765  61.650  23.369  0.00  0.00     0.078 H 
BRANCH  13  16
ATOM     16  N   GLY d   1      29.635  61.991  22.494  0.00  0.00    -0.350 N 
ATOM     17  C   SER d   1      30.197  61.487  21.399  0.00  0.00     0.242 C 
ATOM     18  O   SER d   1      29.995  60.331  21.011  0.00  0.00    -0.271 OA
ATOM     19  H26 GLY d   1      29.818  62.940  22.750  0.00  0.00     0.163 HD
BRANCH  17  20
ATOM     20  CA  SER d   1      31.119  62.440  20.622  0.00  0.00     0.109 C 
ATOM     21  H22 SER d   1      31.215  63.368  21.204  0.00  0.00     0.090 H 
BRANCH  20  22
ATOM     22  N   SER d   1      32.461  61.890  20.425  0.00  0.00    -0.344 N 
ATOM     23  C   PRO d   1      33.344  61.788  21.412  0.00  0.00     0.241 C 
ATOM     24  O   PRO d   1      33.107  62.162  22.568  0.00  0.00    -0.271 OA
ATOM     25  H21 SER d   1      32.723  61.579  19.512  0.00  0.00     0.163 HD
BRANCH  23  26
ATOM     26  CA  PRO d   1      34.710  61.199  21.026  0.00  0.00     0.091 C 
ATOM     27  N   PRO d   1      35.825  61.833  21.738  0.00  0.00    -0.337 N 
ATOM     28  C   LEU d   1      35.805  63.175  21.832  0.00  0.00     0.251 C 
ATOM     29  CD  PRO d   1      36.710  60.823  22.341  0.00  0.00    -0.001 C 
ATOM     30  O   LEU d   1      34.886  63.848  21.352  0.00  0.00    -0.271 OA
ATOM     31  CG  PRO d   1      35.742  59.703  22.614  0.00  0.00    -0.048 C 
ATOM     32  H19 PRO d   1      37.169  61.193  23.270  0.00  0.00     0.064 H 
ATOM     33  H20 PRO d   1      37.499  60.511  21.641  0.00  0.00     0.064 H 
ATOM     34  CB  PRO d   1      34.856  59.712  21.384  0.00  0.00    -0.036 C 
ATOM     35  H17 PRO d   1      36.268  58.742  22.716  0.00  0.00     0.035 H 
ATOM     36  H18 PRO d   1      35.157  59.899  23.524  0.00  0.00     0.035 H 
ATOM     37  H15 PRO d   1      35.329  59.158  20.560  0.00  0.00     0.036 H 
ATOM     38  H16 PRO d   1      33.875  59.268  21.608  0.00  0.00     0.036 H 
ATOM     39  H14 PRO d   1      34.839  61.332  19.942  0.00  0.00     0.087 H 
BRANCH  28  40
ATOM     40  CA  LEU d   1      36.958  63.854  22.575  0.00  0.00     0.176 C 
ATOM     41  H4  LEU d   1      37.756  63.115  22.742  0.00  0.00     0.099 H 
BRANCH  40  42
ATOM     42  N   LEU d   1      37.524  64.998  21.785  0.00  0.00    -0.066 N 
ATOM     43  H1  LEU d   1      38.279  65.422  22.301  0.00  0.00     0.275 HD
ATOM     44  H2  LEU d   1      36.803  65.683  21.622  0.00  0.00     0.275 HD
ATOM     45  H3  LEU d   1      37.870  64.658  20.902  0.00  0.00     0.275 HD
ENDBRANCH  40  42
BRANCH  40  46
ATOM     46  CB  LEU d   1      36.444  64.355  23.936  0.00  0.00    -0.028 C 
ATOM     47  H5  LEU d   1      35.709  65.145  23.724  0.00  0.00     0.037 H 
ATOM     48  H6  LEU d   1      37.309  64.789  24.459  0.00  0.00     0.037 H 
BRANCH  46  49
ATOM     49  CG  LEU d   1      35.773  63.382  24.925  0.00  0.00    -0.059 C 
ATOM     50  H7  LEU d   1      35.108  62.707  24.367  0.00  0.00     0.038 H 
BRANCH  49  51
ATOM     51  CD1 LEU d   1      36.816  62.549  25.666  0.00  0.00    -0.073 C 
ATOM     52  H8  LEU d   1      36.311  61.865  26.364  0.00  0.00     0.028 H 
ATOM     53  H9  LEU d   1      37.486  63.216  26.228  0.00  0.00     0.028 H 
ATOM     54  H10 LEU d   1      37.402  61.966  24.941  0.00  0.00     0.028 H 
ENDBRANCH  49  51
BRANCH  49  55
ATOM     55  CD2 LEU d   1      34.953  64.176  25.934  0.00  0.00    -0.073 C 
ATOM     56  H11 LEU d   1      34.200  64.777  25.403  0.00  0.00     0.028 H 
ATOM     57  H12 LEU d   1      35.618  64.841  26.505  0.00  0.00     0.028 H 
ATOM     58  H13 LEU d   1      34.449  63.483  26.623  0.00  0.00     0.028 H 
ENDBRANCH  49  55
ENDBRANCH  46  49
ENDBRANCH  40  46
ENDBRANCH  28  40
ENDBRANCH  23  26
ENDBRANCH  20  22
BRANCH  20  59
ATOM     59  CB  SER d   1      30.495  62.781  19.260  0.00  0.00     0.044 C 
ATOM     60  H23 SER d   1      29.522  63.267  19.423  0.00  0.00     0.077 H 
ATOM     61  H24 SER d   1      30.350  61.852  18.689  0.00  0.00     0.077 H 
BRANCH  59  62
ATOM     62  OG  SER d   1      31.330  63.656  18.516  0.00  0.00    -0.398 OA
ATOM     63  H25 SER d   1      30.920  63.849  17.681  0.00  0.00     0.209 HD
ENDBRANCH  59  62
ENDBRANCH  20  59
ENDBRANCH  17  20
ENDBRANCH  13  16
ENDBRANCH  10  13
ENDBRANCH   7   9
BRANCH   7  64
ATOM     64  CB  LEU d   1      32.727  60.800  25.922  0.00  0.00    -0.035 C 
ATOM     65  H31 LEU d   1      33.392  61.257  26.670  0.00  0.00     0.037 H 
ATOM     66  H32 LEU d   1      33.069  61.072  24.913  0.00  0.00     0.037 H 
BRANCH  64  67
ATOM     67  CG  LEU d   1      32.870  59.274  26.057  0.00  0.00    -0.059 C 
ATOM     68  H33 LEU d   1      32.787  59.006  27.121  0.00  0.00     0.038 H 
BRANCH  67  69
ATOM     69  CD1 LEU d   1      31.788  58.529  25.295  0.00  0.00    -0.073 C 
ATOM     70  H34 LEU d   1      31.931  57.446  25.421  0.00  0.00     0.028 H 
ATOM     71  H35 LEU d   1      31.849  58.785  24.227  0.00  0.00     0.028 H 
ATOM     72  H36 LEU d   1      30.801  58.816  25.685  0.00  0.00     0.028 H 
ENDBRANCH  67  69
BRANCH  67  73
ATOM     73  CD2 LEU d   1      34.248  58.878  25.556  0.00  0.00    -0.073 C 
ATOM     74  H37 LEU d   1      35.015  59.428  26.120  0.00  0.00     0.028 H 
ATOM     75  H38 LEU d   1      34.334  59.122  24.487  0.00  0.00     0.028 H 
ATOM     76  H39 LEU d   1      34.393  57.797  25.698  0.00  0.00     0.028 H 
ENDBRANCH  67  73
ENDBRANCH  64  67
ENDBRANCH   7  64
ENDBRANCH   4   7
ENDBRANCH   1   3
BRANCH   1  77
ATOM     77  C   LEU d   1      32.646  64.549  29.679  0.00  0.00     0.241 C 
ATOM     78  O   LEU d   1      33.257  63.593  30.155  0.00  0.00    -0.271 OA
ATOM     79  N   TPO d   1      32.799  65.811  30.082  0.00  0.00    -0.344 N 
ATOM     80  H51 TPO d   1      32.309  66.506  29.555  0.00  0.00     0.163 HD
BRANCH  79  81
ATOM     81  CA  TPO d   1      33.612  66.305  31.223  0.00  0.00     0.114 C 
ATOM     82  H52 TPO d   1      33.439  65.695  32.122  0.00  0.00     0.091 H 
BRANCH  81  83
ATOM     83  CB  TPO d   1      35.105  66.314  30.855  0.00  0.00     0.076 C 
ATOM     84  H53 TPO d   1      35.677  66.909  31.582  0.00  0.00     0.087 H 
BRANCH  83  85
ATOM     85  CG2 TPO d   1      35.292  66.847  29.441  0.00  0.00    -0.049 C 
ATOM     86  H54 TPO d   1      36.363  66.849  29.189  0.00  0.00     0.031 H 
ATOM     87  H55 TPO d   1      34.899  67.873  29.381  0.00  0.00     0.031 H 
ATOM     88  H56 TPO d   1      34.749  66.204  28.732  0.00  0.00     0.031 H 
ENDBRANCH  83  85
BRANCH  83  89
ATOM     89  OG1 TPO d   1      35.545  65.016  30.811  0.00  0.00    -0.275 OA
BRANCH  89  90
ATOM     90  P   TPO d   1      36.904  64.721  31.643  0.00  0.00     0.422 P 
ATOM     91  O1P TPO d   1      36.638  65.141  33.126  0.00  0.00    -0.617 OA
ATOM     92  O2P TPO d   1      38.079  65.584  31.015  0.00  0.00    -0.617 OA
ATOM     93  O3P TPO d   1      37.142  63.157  31.463  0.00  0.00    -0.617 OA
ENDBRANCH  89  90
ENDBRANCH  83  89
ENDBRANCH  81  83
BRANCH  81  94
ATOM     94  C   TPO d   1      33.192  67.719  31.432  0.00  0.00     0.246 C 
ATOM     95  O   TPO d   1      32.723  68.396  30.518  0.00  0.00    -0.271 OA
ATOM     96  N   PRO d   1      33.355  68.185  32.677  0.00  0.00    -0.337 N 
ATOM     97  CA  PRO d   1      33.008  69.549  33.056  0.00  0.00     0.092 C 
ATOM     98  CD  PRO d   1      33.771  67.406  33.857  0.00  0.00    -0.001 C 
ATOM     99  CB  PRO d   1      33.313  69.580  34.553  0.00  0.00    -0.036 C 
ATOM    100  H57 PRO d   1      31.957  69.798  32.849  0.00  0.00     0.087 H 
ATOM    101  CG  PRO d   1      33.130  68.168  34.974  0.00  0.00    -0.048 C 
ATOM    102  H58 PRO d   1      32.613  70.242  35.083  0.00  0.00     0.036 H 
ATOM    103  H59 PRO d   1      34.345  69.915  34.737  0.00  0.00     0.036 H 
ATOM    104  H60 PRO d   1      32.063  67.916  35.065  0.00  0.00     0.035 H 
ATOM    105  H61 PRO d   1      33.636  67.971  35.931  0.00  0.00     0.035 H 
ATOM    106  H62 PRO d   1      34.866  67.391  33.960  0.00  0.00     0.064 H 
ATOM    107  H63 PRO d   1      33.393  66.374  33.809  0.00  0.00     0.064 H 
BRANCH  97 108
ATOM    108  C   PRO d   1      33.949  70.447  32.276  0.00  0.00     0.243 C 
ATOM    109  O   PRO d   1      35.058  70.035  31.915  0.00  0.00    -0.271 OA
ATOM    110  N   PRO d   1      33.509  71.672  31.974  0.00  0.00    -0.337 N 
ATOM    111  CA  PRO d   1      34.374  72.591  31.233  0.00  0.00     0.091 C 
ATOM    112  CD  PRO d   1      32.184  72.266  32.224  0.00  0.00    -0.001 C 
ATOM    113  CB  PRO d   1      33.449  73.772  30.943  0.00  0.00    -0.036 C 
ATOM    114  H64 PRO d   1      34.749  72.146  30.300  0.00  0.00     0.087 H 
ATOM    115  CG  PRO d   1      32.472  73.734  32.098  0.00  0.00    -0.048 C 
ATOM    116  H65 PRO d   1      32.930  73.640  29.982  0.00  0.00     0.036 H 
ATOM    117  H66 PRO d   1      34.009  74.719  30.931  0.00  0.00     0.036 H 
ATOM    118  H67 PRO d   1      31.558  74.301  31.866  0.00  0.00     0.035 H 
ATOM    119  H68 PRO d   1      32.926  74.131  33.018  0.00  0.00     0.035 H 
ATOM    120  H69 PRO d   1      31.817  72.016  33.230  0.00  0.00     0.064 H 
ATOM    121  H70 PRO d   1      31.450  71.937  31.474  0.00  0.00     0.064 H 
BRANCH 111 122
ATOM    122  C   PRO d   1      35.541  72.959  32.143  0.00  0.00     0.241 C 
ATOM    123  O   PRO d   1      35.410  72.902  33.365  0.00  0.00    -0.271 OA
ATOM    124  N   GLN d   1      36.682  73.312  31.565  0.00  0.00    -0.346 N 
ATOM    125  H71 GLN d   1      36.750  73.327  30.567  0.00  0.00     0.163 HD
BRANCH 124 126
ATOM    126  CA  GLN d   1      37.838  73.679  32.376  0.00  0.00     0.090 C 
ATOM    127  H72 GLN d   1      38.105  72.816  33.004  0.00  0.00     0.087 H 
BRANCH 126 128
ATOM    128  C   GLN d   1      37.524  74.854  33.297  0.00  0.00     0.241 C 
ATOM    129  O   GLN d   1      36.832  75.796  32.917  0.00  0.00    -0.271 OA
ATOM    130  N   SEP d   1      38.035  74.774  34.518  0.00  0.00    -0.344 N 
ATOM    131  H79 SEP d   1      38.598  73.980  34.748  0.00  0.00     0.163 HD
BRANCH 130 132
ATOM    132  CA  SEP d   1      37.813  75.792  35.542  0.00  0.00     0.110 C 
ATOM    133  H80 SEP d   1      36.804  76.218  35.435  0.00  0.00     0.090 H 
BRANCH 132 134
ATOM    134  CB  SEP d   1      37.960  75.077  36.898  0.00  0.00     0.059 C 
ATOM    135  H81 SEP d   1      37.096  74.402  36.990  0.00  0.00     0.079 H 
ATOM    136  H82 SEP d   1      37.900  75.858  37.671  0.00  0.00     0.079 H 
BRANCH 134 137
ATOM    137  OG  SEP d   1      38.903  74.442  37.143  0.00  0.00    -0.280 OA
BRANCH 137 138
ATOM    138  P   SEP d   1      38.181  73.142  37.530  0.00  0.00     0.422 P 
ATOM    139  O1P SEP d   1      37.089  72.987  38.665  0.00  0.00    -0.617 OA
ATOM    140  O2P SEP d   1      39.560  72.449  37.942  0.00  0.00    -0.617 OA
ATOM    141  O3P SEP d   1      37.620  72.614  36.106  0.00  0.00    -0.617 OA
ENDBRANCH 137 138
ENDBRANCH 134 137
ENDBRANCH 132 134
BRANCH 132 142
ATOM    142  C   SEP d   1      38.849  76.911  35.469  0.00  0.00     0.243 C 
ATOM    143  O   SEP d   1      38.519  78.092  35.616  0.00  0.00    -0.271 OA
ATOM    144  N   GLY d   1      40.102  76.523  35.250  0.00  0.00    -0.349 N 
ATOM    145  H83 GLY d   1      40.303  75.549  35.145  0.00  0.00     0.163 HD
BRANCH 144 146
ATOM    146  CA  GLY d   1      41.184  77.486  35.161  0.00  0.00     0.075 C 
ATOM    147  H84 GLY d   1      41.474  77.785  36.179  0.00  0.00     0.080 H 
ATOM    148  H85 GLY d   1      40.827  78.367  34.607  0.00  0.00     0.080 H 
BRANCH 146 149
ATOM    149  C   GLY d   1      42.406  76.926  34.451  0.00  0.00     0.191 C 
ATOM    150  O   GLY d   1      42.335  75.778  33.953  0.00  0.00    -0.647 OA
ATOM    151  OXT GLY d   1      43.436  77.638  34.387  0.00  0.00    -0.647 OA
ENDBRANCH 146 149
ENDBRANCH 144 146
ENDBRANCH 132 142
ENDBRANCH 130 132
ENDBRANCH 126 128
BRANCH 126 152
ATOM    152  CB  GLN d   1      39.025  74.002  31.476  0.00  0.00    -0.030 C 
ATOM    153  H73 GLN d   1      39.776  74.547  32.067  0.00  0.00     0.037 H 
ATOM    154  H74 GLN d   1      38.676  74.639  30.650  0.00  0.00     0.037 H 
BRANCH 152 155
ATOM    155  CG  GLN d   1      39.677  72.762  30.889  0.00  0.00     0.011 C 
ATOM    156  H75 GLN d   1      40.268  73.056  30.009  0.00  0.00     0.047 H 
ATOM    157  H76 GLN d   1      38.889  72.058  30.583  0.00  0.00     0.047 H 
BRANCH 155 158
ATOM    158  CD  GLN d   1      40.592  72.069  31.883  0.00  0.00     0.215 C 
ATOM    159  OE1 GLN d   1      41.645  72.599  32.243  0.00  0.00    -0.274 OA
ATOM    160  NE2 GLN d   1      40.194  70.883  32.338  0.00  0.00    -0.370 N 
ATOM    161  H77 GLN d   1      40.760  70.384  32.995  0.00  0.00     0.159 HD
ATOM    162  H78 GLN d   1      39.330  70.491  32.023  0.00  0.00     0.159 HD
ENDBRANCH 155 158
ENDBRANCH 152 155
ENDBRANCH 126 152
ENDBRANCH 124 126
ENDBRANCH 111 122
ENDBRANCH  97 108
ENDBRANCH  81  94
ENDBRANCH  79  81
ENDBRANCH   1  77
BRANCH   1 163
ATOM    163  CB  LEU d   1      30.258  64.741  29.017  0.00  0.00    -0.035 C 
ATOM    164  H42 LEU d   1      30.187  65.839  29.010  0.00  0.00     0.037 H 
ATOM    165  H43 LEU d   1      30.159  64.373  30.049  0.00  0.00     0.037 H 
BRANCH 163 166
ATOM    166  CG  LEU d   1      29.073  64.192  28.211  0.00  0.00    -0.059 C 
ATOM    167  H44 LEU d   1      29.335  63.191  27.837  0.00  0.00     0.038 H 
BRANCH 166 168
ATOM    168  CD1 LEU d   1      27.840  64.067  29.095  0.00  0.00    -0.073 C 
ATOM    169  H45 LEU d   1      27.002  63.673  28.502  0.00  0.00     0.028 H 
ATOM    170  H46 LEU d   1      27.573  65.057  29.494  0.00  0.00     0.028 H 
ATOM    171  H47 LEU d   1      28.054  63.381  29.928  0.00  0.00     0.028 H 
ENDBRANCH 166 168
BRANCH 166 172
ATOM    172  CD2 LEU d   1      28.800  65.094  27.026  0.00  0.00    -0.073 C 
ATOM    173  H48 LEU d   1      29.705  65.167  26.405  0.00  0.00     0.028 H 
ATOM    174  H49 LEU d   1      28.519  66.095  27.384  0.00  0.00     0.028 H 
ATOM    175  H50 LEU d   1      27.978  64.675  26.428  0.00  0.00     0.028 H 
ENDBRANCH 166 172
ENDBRANCH 163 166
ENDBRANCH   1 163
TORSDOF 45
