REMARK  5 active torsions:
REMARK  status: ('A' for Active; 'I' for Inactive)
REMARK    1  A    between atoms: CAD_6  and  OAG_7 
REMARK    2  A    between atoms: OAG_7  and  CAJ_8 
REMARK    3  A    between atoms: CAK_13  and  CAY_14 
REMARK    4  A    between atoms: CAY_14  and  NAX_23 
REMARK    5  A    between atoms: NAW_28  and  CAV_29 
ROOT
ATOM      1  CAY 4MR d   1      25.867   9.201  49.951  0.00  0.00     0.314 C 
ATOM      2  CAZ 4MR d   1      25.335   8.718  48.597  0.00  0.00     0.277 C 
ATOM      3  OAS 4MR d   1      24.164   8.349  48.517  0.00  0.00    -0.269 OA
ATOM      4  NBA 4MR d   1      26.105   8.785  47.430  0.00  0.00    -0.276 N 
ATOM      5  CBF 4MR d   1      27.387   9.346  47.425  0.00  0.00     0.329 C 
ATOM      6  OBG 4MR d   1      28.094   9.232  46.425  0.00  0.00    -0.247 OA
ATOM      7  NBE 4MR d   1      27.917   9.913  48.591  0.00  0.00    -0.276 N 
ATOM      8  CBD 4MR d   1      27.192   9.956  49.789  0.00  0.00     0.277 C 
ATOM      9  OBH 4MR d   1      27.712  10.475  50.776  0.00  0.00    -0.269 OA
ATOM     10  H10 4MR d   1      25.729   8.422  46.577  0.00  0.00     0.173 HD
ATOM     11  H11 4MR d   1      28.840  10.298  48.568  0.00  0.00     0.173 HD
ENDROOT
BRANCH   1  12
ATOM     12  CAK 4MR d   1      26.108   7.925  50.767  0.00  0.00    -0.003 A 
ATOM     13  CAL 4MR d   1      27.271   7.184  50.572  0.00  0.00    -0.071 A 
ATOM     14  CAM 4MR d   1      27.361   5.871  51.026  0.00  0.00    -0.050 A 
ATOM     15  H7  4MR d   1      28.115   7.634  50.062  0.00  0.00     0.084 H 
ATOM     16  CAJ 4MR d   1      26.294   5.285  51.700  0.00  0.00     0.076 A 
ATOM     17  H6  4MR d   1      28.267   5.302  50.853  0.00  0.00     0.087 H 
ATOM     18  CAI 4MR d   1      25.140   6.034  51.922  0.00  0.00    -0.050 A 
ATOM     19  CAH 4MR d   1      25.048   7.343  51.458  0.00  0.00    -0.071 A 
ATOM     20  H8  4MR d   1      24.308   5.594  52.460  0.00  0.00     0.087 H 
ATOM     21  H9  4MR d   1      24.144   7.914  51.636  0.00  0.00     0.084 H 
BRANCH  16  22
ATOM     22  OAG 4MR d   1      26.481   4.050  52.244  0.00  0.00    -0.311 OA
BRANCH  22  23
ATOM     23  CAD 4MR d   1      25.376   3.311  52.543  0.00  0.00     0.076 A 
ATOM     24  CAA 4MR d   1      24.364   3.114  51.606  0.00  0.00    -0.050 A 
ATOM     25  CAB 4MR d   1      23.352   2.192  51.854  0.00  0.00    -0.080 A 
ATOM     26  H1  4MR d   1      24.365   3.680  50.682  0.00  0.00     0.087 H 
ATOM     27  CAC 4MR d   1      23.355   1.451  53.033  0.00  0.00    -0.083 A 
ATOM     28  H2  4MR d   1      22.560   2.050  51.128  0.00  0.00     0.083 H 
ATOM     29  CAF 4MR d   1      24.365   1.644  53.970  0.00  0.00    -0.080 A 
ATOM     30  H3  4MR d   1      22.572   0.725  53.220  0.00  0.00     0.083 H 
ATOM     31  CAE 4MR d   1      25.368   2.578  53.727  0.00  0.00    -0.050 A 
ATOM     32  H4  4MR d   1      24.371   1.068  54.888  0.00  0.00     0.083 H 
ATOM     33  H5  4MR d   1      26.147   2.736  54.464  0.00  0.00     0.087 H 
ENDBRANCH  22  23
ENDBRANCH  16  22
ENDBRANCH   1  12
BRANCH   1  34
ATOM     34  NAX 4MR d   1      24.846  10.042  50.604  0.00  0.00    -0.038 N 
ATOM     35  CAR 4MR d   1      25.215  10.427  51.977  0.00  0.00     0.097 C 
ATOM     36  CAQ 4MR d   1      24.049  11.169  52.635  0.00  0.00     0.009 C 
ATOM     37  H13 4MR d   1      26.097  11.084  51.948  0.00  0.00     0.078 H 
ATOM     38  H14 4MR d   1      25.449   9.524  52.560  0.00  0.00     0.078 H 
ATOM     39  NAW 4MR d   1      23.733  12.353  51.821  0.00  0.00    -0.248 NA
ATOM     40  H15 4MR d   1      24.333  11.482  53.651  0.00  0.00     0.059 H 
ATOM     41  H16 4MR d   1      23.171  10.509  52.687  0.00  0.00     0.059 H 
ATOM     42  CBB 4MR d   1      23.332  11.976  50.456  0.00  0.00     0.009 C 
ATOM     43  CBC 4MR d   1      24.494  11.225  49.799  0.00  0.00     0.097 C 
ATOM     44  H19 4MR d   1      22.445  11.326  50.496  0.00  0.00     0.059 H 
ATOM     45  H20 4MR d   1      23.098  12.880  49.875  0.00  0.00     0.059 H 
ATOM     46  H17 4MR d   1      24.197  10.904  48.790  0.00  0.00     0.078 H 
ATOM     47  H18 4MR d   1      25.366  11.892  49.730  0.00  0.00     0.078 H 
ATOM     48  H12 4MR d   1      24.013   9.478  50.674  0.00  0.00     0.282 HD
BRANCH  39  49
ATOM     49  CAV 4MR d   1      22.808  13.284  52.484  0.00  0.00     0.203 A 
ATOM     50  NAU 4MR d   1      22.933  13.498  53.803  0.00  0.00    -0.231 NA
ATOM     51  CAT 4MR d   1      22.364  14.535  54.392  0.00  0.00     0.007 A 
ATOM     52  CAN 4MR d   1      21.606  15.427  53.641  0.00  0.00    -0.049 A 
ATOM     53  H21 4MR d   1      22.488  14.690  55.458  0.00  0.00     0.114 H 
ATOM     54  CAO 4MR d   1      21.472  15.173  52.280  0.00  0.00     0.007 A 
ATOM     55  H22 4MR d   1      21.136  16.290  54.100  0.00  0.00     0.087 H 
ATOM     56  NAP 4MR d   1      22.065  14.121  51.743  0.00  0.00    -0.231 NA
ATOM     57  H23 4MR d   1      20.881  15.838  51.660  0.00  0.00     0.114 H 
ENDBRANCH  39  49
ENDBRANCH   1  34
TORSDOF 5
