REMARK  11 active torsions:
REMARK  status: ('A' for Active; 'I' for Inactive)
REMARK    1  A    between atoms: CG_9  and  CB_10 
REMARK    2  A    between atoms: CB_10  and  CA_11 
REMARK    3  A    between atoms: CA_11  and  C_12 
REMARK    4  A    between atoms: CA_11  and  N_15 
REMARK       I    between atoms: C_12  and  NAA_14 
REMARK       I    between atoms: N_15  and  CBD_16 
REMARK    5  A    between atoms: CBD_16  and  CBL_18 
REMARK    6  A    between atoms: CBL_18  and  CAX_19 
REMARK    7  A    between atoms: CBL_18  and  CAV_29 
REMARK    8  A    between atoms: CAX_19  and  PBN_20 
REMARK    9  A    between atoms: PBN_20  and  CBG_23 
REMARK   10  A    between atoms: CAV_29  and  CBF_30 
REMARK   11  A    between atoms: CBH_34  and  CBE_35 
ROOT
ATOM      1  CBL 5MR d   1      26.916  10.182  49.101  0.00  0.00     0.038 C 
ATOM      2  H13 5MR d   1      25.970   9.669  48.876  0.00  0.00     0.056 H 
ENDROOT
BRANCH   1   3
ATOM      3  CBD 5MR d   1      26.756  10.998  50.386  0.00  0.00     0.223 C 
ATOM      4  N   5MR d   1      25.495  11.172  50.779  0.00  0.00    -0.347 N 
ATOM      5  H12 5MR d   1      24.767  10.729  50.257  0.00  0.00     0.163 HD
ATOM      6  OAC 5MR d   1      27.731  11.456  50.982  0.00  0.00    -0.273 OA
BRANCH   4   7
ATOM      7  CA  5MR d   1      25.126  11.986  51.946  0.00  0.00     0.093 C 
ATOM      8  H9  5MR d   1      25.992  12.595  52.243  0.00  0.00     0.088 H 
BRANCH   7   9
ATOM      9  CB  5MR d   1      23.968  12.905  51.547  0.00  0.00    -0.012 C 
ATOM     10  H7  5MR d   1      23.067  12.295  51.387  0.00  0.00     0.044 H 
ATOM     11  H8  5MR d   1      23.785  13.623  52.360  0.00  0.00     0.044 H 
BRANCH   9  12
ATOM     12  CG  5MR d   1      24.279  13.678  50.262  0.00  0.00    -0.028 A 
ATOM     13  CD2 5MR d   1      24.864  14.938  50.161  0.00  0.00    -0.002 A 
ATOM     14  CE3 5MR d   1      25.317  15.860  51.097  0.00  0.00    -0.070 A 
ATOM     15  CE2 5MR d   1      24.959  15.215  48.801  0.00  0.00     0.042 A 
ATOM     16  CZ3 5MR d   1      25.866  17.068  50.668  0.00  0.00    -0.082 A 
ATOM     17  H1  5MR d   1      25.244  15.641  52.156  0.00  0.00     0.084 H 
ATOM     18  CH2 5MR d   1      25.961  17.347  49.308  0.00  0.00    -0.081 A 
ATOM     19  H2  5MR d   1      26.219  17.791  51.395  0.00  0.00     0.083 H 
ATOM     20  CZ2 5MR d   1      25.509  16.421  48.372  0.00  0.00    -0.056 A 
ATOM     21  H3  5MR d   1      26.388  18.287  48.977  0.00  0.00     0.083 H 
ATOM     22  H4  5MR d   1      25.585  16.638  47.313  0.00  0.00     0.086 H 
ATOM     23  NE1 5MR d   1      24.455  14.174  48.146  0.00  0.00    -0.365 N 
ATOM     24  CD1 5MR d   1      24.047  13.256  49.021  0.00  0.00    -0.015 A 
ATOM     25  H5  5MR d   1      24.390  14.090  47.121  0.00  0.00     0.165 HD
ATOM     26  H6  5MR d   1      23.591  12.302  48.760  0.00  0.00     0.112 H 
ENDBRANCH   9  12
ENDBRANCH   7   9
BRANCH   7  27
ATOM     27  C   5MR d   1      24.698  11.123  53.140  0.00  0.00     0.238 C 
ATOM     28  O   5MR d   1      24.017  10.114  53.001  0.00  0.00    -0.271 OA
ATOM     29  NAA 5MR d   1      25.104  11.582  54.323  0.00  0.00    -0.368 N 
ATOM     30  H10 5MR d   1      24.872  11.085  55.159  0.00  0.00     0.159 HD
ATOM     31  H11 5MR d   1      25.641  12.424  54.375  0.00  0.00     0.159 HD
ENDBRANCH   7  27
ENDBRANCH   4   7
ENDBRANCH   1   3
BRANCH   1  32
ATOM     32  CAX 5MR d   1      27.261  11.159  47.973  0.00  0.00     0.023 C 
ATOM     33  H14 5MR d   1      28.293  11.512  48.113  0.00  0.00     0.050 H 
ATOM     34  H15 5MR d   1      26.571  12.014  48.021  0.00  0.00     0.050 H 
BRANCH  32  35
ATOM     35  PBN 5MR d   1      27.123  10.389  46.342  0.00  0.00     0.141 P 
ATOM     36  OAE 5MR d   1      28.341   9.339  46.307  0.00  0.00    -0.664 OA
ATOM     37  OAD 5MR d   1      25.838   9.659  46.286  0.00  0.00    -0.664 OA
BRANCH  35  38
ATOM     38  CBG 5MR d   1      27.456  11.644  45.091  0.00  0.00     0.030 A 
ATOM     39  CAP 5MR d   1      28.642  11.607  44.366  0.00  0.00    -0.067 A 
ATOM     40  CAJ 5MR d   1      28.881  12.552  43.370  0.00  0.00    -0.082 A 
ATOM     41  H16 5MR d   1      29.381  10.842  44.576  0.00  0.00     0.085 H 
ATOM     42  CAG 5MR d   1      27.933  13.533  43.103  0.00  0.00    -0.083 A 
ATOM     43  H17 5MR d   1      29.805  12.522  42.804  0.00  0.00     0.083 H 
ATOM     44  CAK 5MR d   1      26.745  13.572  43.831  0.00  0.00    -0.082 A 
ATOM     45  H18 5MR d   1      28.118  14.268  42.328  0.00  0.00     0.083 H 
ATOM     46  CAQ 5MR d   1      26.507  12.629  44.824  0.00  0.00    -0.067 A 
ATOM     47  H19 5MR d   1      26.007  14.338  43.623  0.00  0.00     0.083 H 
ATOM     48  H20 5MR d   1      25.583  12.660  45.391  0.00  0.00     0.085 H 
ENDBRANCH  35  38
ENDBRANCH  32  35
ENDBRANCH   1  32
BRANCH   1  49
ATOM     49  CAV 5MR d   1      28.033   9.141  49.218  0.00  0.00    -0.006 C 
ATOM     50  H21 5MR d   1      28.911   9.632  49.663  0.00  0.00     0.044 H 
ATOM     51  H22 5MR d   1      28.282   8.793  48.205  0.00  0.00     0.044 H 
BRANCH  49  52
ATOM     52  CBF 5MR d   1      27.692   7.916  50.069  0.00  0.00     0.082 A 
ATOM     53  CAU 5MR d   1      26.538   7.265  50.206  0.00  0.00    -0.021 A 
ATOM     54  CBH 5MR d   1      26.727   6.176  50.948  0.00  0.00     0.097 A 
ATOM     55  H23 5MR d   1      25.587   7.576  49.777  0.00  0.00     0.091 H 
ATOM     56  NAY 5MR d   1      28.007   6.108  51.301  0.00  0.00    -0.128 NA
ATOM     57  OBB 5MR d   1      28.655   7.228  50.746  0.00  0.00    -0.217 OA
BRANCH  54  58
ATOM     58  CBE 5MR d   1      25.764   5.226  51.287  0.00  0.00    -0.005 A 
ATOM     59  CAN 5MR d   1      24.479   5.294  50.755  0.00  0.00    -0.071 A 
ATOM     60  CAH 5MR d   1      23.530   4.330  51.080  0.00  0.00    -0.082 A 
ATOM     61  H24 5MR d   1      24.216   6.103  50.083  0.00  0.00     0.084 H 
ATOM     62  CAF 5MR d   1      23.863   3.290  51.942  0.00  0.00    -0.083 A 
ATOM     63  H25 5MR d   1      22.532   4.389  50.662  0.00  0.00     0.083 H 
ATOM     64  CAI 5MR d   1      25.146   3.220  52.476  0.00  0.00    -0.082 A 
ATOM     65  H26 5MR d   1      23.126   2.537  52.197  0.00  0.00     0.083 H 
ATOM     66  CAO 5MR d   1      26.094   4.187  52.149  0.00  0.00    -0.071 A 
ATOM     67  H27 5MR d   1      25.409   2.411  53.148  0.00  0.00     0.083 H 
ATOM     68  H28 5MR d   1      27.092   4.129  52.568  0.00  0.00     0.084 H 
ENDBRANCH  54  58
ENDBRANCH  49  52
ENDBRANCH   1  49
TORSDOF 11
