REMARK  7 active torsions:
REMARK  status: ('A' for Active; 'I' for Inactive)
REMARK    1  A    between atoms: CG_9  and  CB_10 
REMARK    2  A    between atoms: CB_10  and  CA_11 
REMARK    3  A    between atoms: CA_11  and  C_12 
REMARK    4  A    between atoms: CA_11  and  N_15 
REMARK    5  A    between atoms: N_15  and  SAZ_16 
REMARK    6  A    between atoms: SAZ_16  and  CAY_19 
REMARK    7  A    between atoms: CAM_24  and  CAL_25 
ROOT
ATOM      1  N   6MR d   1      25.999  11.871  48.534  0.00  0.00    -0.300 N 
ATOM      2  H10 6MR d   1      25.221  12.415  48.221  0.00  0.00     0.173 HD
ENDROOT
BRANCH   1   3
ATOM      3  CA  6MR d   1      27.017  11.304  47.635  0.00  0.00     0.107 C 
ATOM      4  H9  6MR d   1      27.949  11.146  48.198  0.00  0.00     0.091 H 
BRANCH   3   5
ATOM      5  CB  6MR d   1      27.278  12.281  46.485  0.00  0.00    -0.010 C 
ATOM      6  H7  6MR d   1      27.782  13.172  46.887  0.00  0.00     0.044 H 
ATOM      7  H8  6MR d   1      27.932  11.792  45.748  0.00  0.00     0.044 H 
BRANCH   5   8
ATOM      8  CG  6MR d   1      25.988  12.720  45.783  0.00  0.00    -0.028 A 
ATOM      9  CD2 6MR d   1      25.396  12.136  44.666  0.00  0.00    -0.002 A 
ATOM     10  CE3 6MR d   1      25.742  11.067  43.843  0.00  0.00    -0.070 A 
ATOM     11  CE2 6MR d   1      24.238  12.868  44.413  0.00  0.00     0.042 A 
ATOM     12  CZ3 6MR d   1      24.919  10.732  42.767  0.00  0.00    -0.082 A 
ATOM     13  H1  6MR d   1      26.645  10.499  44.037  0.00  0.00     0.084 H 
ATOM     14  CH2 6MR d   1      23.760  11.458  42.517  0.00  0.00    -0.081 A 
ATOM     15  H2  6MR d   1      25.185   9.902  42.123  0.00  0.00     0.083 H 
ATOM     16  CZ2 6MR d   1      23.417  12.529  43.340  0.00  0.00    -0.056 A 
ATOM     17  H3  6MR d   1      23.123  11.191  41.682  0.00  0.00     0.083 H 
ATOM     18  H4  6MR d   1      22.514  13.097  43.146  0.00  0.00     0.086 H 
ATOM     19  NE1 6MR d   1      24.163  13.826  45.333  0.00  0.00    -0.365 N 
ATOM     20  CD1 6MR d   1      25.211  13.735  46.152  0.00  0.00    -0.015 A 
ATOM     21  H5  6MR d   1      23.413  14.528  45.402  0.00  0.00     0.165 HD
ATOM     22  H6  6MR d   1      25.403  14.394  46.998  0.00  0.00     0.112 H 
ENDBRANCH   5   8
ENDBRANCH   3   5
BRANCH   3  23
ATOM     23  C   6MR d   1      26.539   9.963  47.066  0.00  0.00     0.197 C 
ATOM     24  O   6MR d   1      25.313   9.722  47.122  0.00  0.00    -0.646 OA
ATOM     25  OXT 6MR d   1      27.408   9.208  46.579  0.00  0.00    -0.646 OA
ENDBRANCH   3  23
ENDBRANCH   1   3
BRANCH   1  26
ATOM     26  SAZ 6MR d   1      26.284  11.512  50.100  0.00  0.00     0.259 S 
ATOM     27  OBE 6MR d   1      25.408  12.386  50.947  0.00  0.00    -0.201 OA
ATOM     28  OAP 6MR d   1      27.716  11.807  50.438  0.00  0.00    -0.201 OA
BRANCH  26  29
ATOM     29  CAY 6MR d   1      25.927   9.829  50.427  0.00  0.00     0.079 A 
ATOM     30  CAX 6MR d   1      26.878   8.851  50.142  0.00  0.00    -0.059 A 
ATOM     31  CAW 6MR d   1      26.611   7.506  50.377  0.00  0.00    -0.071 A 
ATOM     32  H11 6MR d   1      27.838   9.142  49.732  0.00  0.00     0.085 H 
ATOM     33  CAM 6MR d   1      25.382   7.116  50.902  0.00  0.00    -0.026 A 
ATOM     34  H12 6MR d   1      27.363   6.759  50.150  0.00  0.00     0.084 H 
ATOM     35  CAN 6MR d   1      24.431   8.091  51.190  0.00  0.00    -0.071 A 
ATOM     36  CAO 6MR d   1      24.700   9.438  50.952  0.00  0.00    -0.059 A 
ATOM     37  H14 6MR d   1      23.472   7.800  51.603  0.00  0.00     0.084 H 
ATOM     38  H13 6MR d   1      23.948  10.185  51.178  0.00  0.00     0.085 H 
BRANCH  33  39
ATOM     39  CAL 6MR d   1      25.108   5.768  51.149  0.00  0.00    -0.026 A 
ATOM     40  CAK 6MR d   1      26.093   4.919  51.648  0.00  0.00    -0.071 A 
ATOM     41  CAJ 6MR d   1      25.764   3.631  52.064  0.00  0.00    -0.066 A 
ATOM     42  H15 6MR d   1      27.119   5.262  51.713  0.00  0.00     0.084 H 
ATOM     43  CAT 6MR d   1      24.454   3.169  51.984  0.00  0.00     0.006 A 
ATOM     44  H16 6MR d   1      26.538   2.981  52.455  0.00  0.00     0.085 H 
ATOM     45  I   6MR d   1      23.989   1.254  52.697  0.00  0.00    -0.045 I 
ATOM     46  CAU 6MR d   1      23.473   4.011  51.466  0.00  0.00    -0.066 A 
ATOM     47  CAV 6MR d   1      23.800   5.300  51.050  0.00  0.00    -0.071 A 
ATOM     48  H17 6MR d   1      22.450   3.662  51.386  0.00  0.00     0.085 H 
ATOM     49  H18 6MR d   1      23.029   5.945  50.645  0.00  0.00     0.084 H 
ENDBRANCH  33  39
ENDBRANCH  26  29
ENDBRANCH   1  26
TORSDOF 7
