REMARK  9 active torsions:
REMARK  status: ('A' for Active; 'I' for Inactive)
REMARK    1  A    between atoms: CAT_6  and  OAU_7 
REMARK    2  A    between atoms: OAU_7  and  CAV_8 
REMARK    3  A    between atoms: CAL_13  and  SAM_14 
REMARK    4  A    between atoms: SAM_14  and  CAN_17 
REMARK    5  A    between atoms: CAN_17  and  CAO_18 
REMARK    6  A    between atoms: CAO_18  and  CAP_19 
REMARK    7  A    between atoms: CAO_18  and  NAZ_23 
REMARK    8  A    between atoms: CAO_18  and  CAE_24 
REMARK       I    between atoms: CAE_24  and  NAD_26 
REMARK    9  A    between atoms: NAD_26  and  OAA_27 
ROOT
ATOM      1  CAV 7MR d   1      26.683   6.030  51.104  0.00  0.00     0.076 A 
ATOM      2  CAJ 7MR d   1      25.537   6.693  51.537  0.00  0.00    -0.049 A 
ATOM      3  CAK 7MR d   1      25.489   8.084  51.542  0.00  0.00    -0.059 A 
ATOM      4  CAW 7MR d   1      27.784   6.772  50.685  0.00  0.00    -0.049 A 
ATOM      5  CAX 7MR d   1      27.738   8.163  50.688  0.00  0.00    -0.059 A 
ATOM      6  CAL 7MR d   1      26.589   8.821  51.117  0.00  0.00     0.059 A 
ATOM      7  H6  7MR d   1      24.678   6.123  51.872  0.00  0.00     0.087 H 
ATOM      8  H7  7MR d   1      24.593   8.594  51.878  0.00  0.00     0.085 H 
ATOM      9  H8  7MR d   1      28.682   6.263  50.355  0.00  0.00     0.087 H 
ATOM     10  H9  7MR d   1      28.597   8.734  50.356  0.00  0.00     0.085 H 
ENDROOT
BRANCH   6  11
ATOM     11  SAM 7MR d   1      26.535  10.569  51.167  0.00  0.00     0.178 S 
ATOM     12  OAY 7MR d   1      26.072  10.989  52.530  0.00  0.00    -0.223 OA
ATOM     13  OAC 7MR d   1      27.906  11.124  50.914  0.00  0.00    -0.223 OA
BRANCH  11  14
ATOM     14  CAN 7MR d   1      25.359  11.223  49.925  0.00  0.00     0.081 C 
ATOM     15  H10 7MR d   1      24.945  12.164  50.316  0.00  0.00     0.061 H 
ATOM     16  H11 7MR d   1      24.550  10.487  49.807  0.00  0.00     0.061 H 
BRANCH  14  17
ATOM     17  CAO 7MR d   1      25.941  11.508  48.536  0.00  0.00     0.313 C 
BRANCH  17  18
ATOM     18  CAP 7MR d   1      24.900  12.218  47.667  0.00  0.00     0.430 C 
ATOM     19  FBA 7MR d   1      25.343  12.312  46.417  0.00  0.00    -0.168 F 
ATOM     20  FAF 7MR d   1      23.767  11.523  47.676  0.00  0.00    -0.168 F 
ATOM     21  FAQ 7MR d   1      24.664  13.434  48.150  0.00  0.00    -0.168 F 
ENDBRANCH  17  18
BRANCH  17  22
ATOM     22  NAZ 7MR d   1      27.114  12.384  48.679  0.00  0.00    -0.051 N 
ATOM     23  H12 7MR d   1      27.807  11.927  49.250  0.00  0.00     0.276 HD
ATOM     24  H13 7MR d   1      26.836  13.249  49.116  0.00  0.00     0.276 HD
ATOM     25  H14 7MR d   1      27.502  12.577  47.769  0.00  0.00     0.276 HD
ENDBRANCH  17  22
BRANCH  17  26
ATOM     26  CAE 7MR d   1      26.364  10.207  47.845  0.00  0.00     0.287 C 
ATOM     27  OAB 7MR d   1      25.596   9.249  47.766  0.00  0.00    -0.268 OA
ATOM     28  NAD 7MR d   1      27.583  10.223  47.313  0.00  0.00    -0.235 N 
ATOM     29  H15 7MR d   1      28.149  11.045  47.382  0.00  0.00     0.197 HD
BRANCH  28  30
ATOM     30  OAA 7MR d   1      28.080   9.071  46.647  0.00  0.00    -0.287 OA
ATOM     31  H16 7MR d   1      28.957   9.245  46.327  0.00  0.00     0.244 HD
ENDBRANCH  28  30
ENDBRANCH  17  26
ENDBRANCH  14  17
ENDBRANCH  11  14
ENDBRANCH   6  11
BRANCH   1  32
ATOM     32  OAU 7MR d   1      26.734   4.673  50.987  0.00  0.00    -0.311 OA
BRANCH  32  33
ATOM     33  CAT 7MR d   1      25.940   3.949  51.823  0.00  0.00     0.076 A 
ATOM     34  CAI 7MR d   1      26.437   3.474  53.033  0.00  0.00    -0.050 A 
ATOM     35  CAH 7MR d   1      25.641   2.666  53.841  0.00  0.00    -0.080 A 
ATOM     36  H1  7MR d   1      27.442   3.732  53.346  0.00  0.00     0.087 H 
ATOM     37  CAG 7MR d   1      24.349   2.334  53.443  0.00  0.00    -0.083 A 
ATOM     38  H2  7MR d   1      26.029   2.295  54.783  0.00  0.00     0.083 H 
ATOM     39  CAR 7MR d   1      23.850   2.814  52.236  0.00  0.00    -0.080 A 
ATOM     40  H3  7MR d   1      23.733   1.702  54.072  0.00  0.00     0.083 H 
ATOM     41  CAS 7MR d   1      24.646   3.621  51.429  0.00  0.00    -0.050 A 
ATOM     42  H4  7MR d   1      22.843   2.560  51.925  0.00  0.00     0.083 H 
ATOM     43  H5  7MR d   1      24.257   3.996  50.489  0.00  0.00     0.087 H 
ENDBRANCH  32  33
ENDBRANCH   1  32
TORSDOF 9
