REMARK  7 active torsions:
REMARK  status: ('A' for Active; 'I' for Inactive)
REMARK    1  A    between atoms: CAI_1  and  OAH_2 
REMARK    2  A    between atoms: OAH_2  and  CAG_3 
REMARK    3  A    between atoms: CAO_8  and  SAN_9 
REMARK    4  A    between atoms: SAN_9  and  CAM_12 
REMARK    5  A    between atoms: CAM_12  and  CAB_13 
REMARK    6  A    between atoms: CAM_12  and  CAL_16 
REMARK    7  A    between atoms: CAL_16  and  CAK_17 
ROOT
ATOM      1  CAG 8MR d   1      26.400   6.158  51.115  0.00  0.00     0.068 A 
ATOM      2  CAQ 8MR d   1      27.509   6.899  51.511  0.00  0.00    -0.049 A 
ATOM      3  CAP 8MR d   1      27.527   8.279  51.334  0.00  0.00    -0.059 A 
ATOM      4  CAF 8MR d   1      25.307   6.800  50.545  0.00  0.00    -0.049 A 
ATOM      5  CAE 8MR d   1      25.326   8.179  50.366  0.00  0.00    -0.059 A 
ATOM      6  CAO 8MR d   1      26.435   8.921  50.757  0.00  0.00     0.060 A 
ATOM      7  H4  8MR d   1      28.361   6.400  51.959  0.00  0.00     0.087 H 
ATOM      8  H5  8MR d   1      28.391   8.854  51.645  0.00  0.00     0.085 H 
ATOM      9  H6  8MR d   1      24.440   6.226  50.240  0.00  0.00     0.087 H 
ATOM     10  H7  8MR d   1      24.473   8.677  49.920  0.00  0.00     0.085 H 
ENDROOT
BRANCH   6  11
ATOM     11  SAN 8MR d   1      26.449  10.654  50.491  0.00  0.00     0.185 S 
ATOM     12  OAS 8MR d   1      27.857  11.139  50.296  0.00  0.00    -0.222 OA
ATOM     13  OAD 8MR d   1      25.856  11.351  51.679  0.00  0.00    -0.222 OA
BRANCH  11  14
ATOM     14  CAM 8MR d   1      25.464  10.998  48.987  0.00  0.00     0.114 C 
ATOM     15  H8  8MR d   1      24.878  10.094  48.768  0.00  0.00     0.073 H 
BRANCH  14  16
ATOM     16  CAB 8MR d   1      24.472  12.144  49.206  0.00  0.00     0.225 C 
ATOM     17  FA  8MR d   1      23.556  11.815  50.194  0.00  0.00    -0.213 F 
ATOM     18  FB  8MR d   1      23.780  12.411  48.034  0.00  0.00    -0.213 F 
ATOM     19  H9  8MR d   1      25.028  13.042  49.512  0.00  0.00     0.147 H 
ENDBRANCH  14  16
BRANCH  14  20
ATOM     20  CAL 8MR d   1      26.357  11.269  47.774  0.00  0.00     0.037 C 
ATOM     21  H10 8MR d   1      27.073  12.066  48.025  0.00  0.00     0.051 H 
ATOM     22  H11 8MR d   1      25.729  11.593  46.931  0.00  0.00     0.051 H 
BRANCH  20  23
ATOM     23  CAK 8MR d   1      27.130  10.012  47.368  0.00  0.00     0.174 C 
ATOM     24  OAR 8MR d   1      28.302  10.168  46.967  0.00  0.00    -0.648 OA
ATOM     25  OAJ 8MR d   1      26.528   8.921  47.466  0.00  0.00    -0.648 OA
ENDBRANCH  20  23
ENDBRANCH  14  20
ENDBRANCH  11  14
ENDBRANCH   6  11
BRANCH   1  26
ATOM     26  OAH 8MR d   1      26.392   4.805  51.264  0.00  0.00    -0.356 OA
BRANCH  26  27
ATOM     27  CAI 8MR d   1      25.775   4.459  52.507  0.00  0.00     0.010 C 
ATOM     28  H1  8MR d   1      25.771   3.365  52.622  0.00  0.00     0.066 H 
ATOM     29  H2  8MR d   1      24.741   4.833  52.519  0.00  0.00     0.066 H 
ATOM     30  H3  8MR d   1      26.339   4.913  53.335  0.00  0.00     0.066 H 
ENDBRANCH  26  27
ENDBRANCH   1  26
TORSDOF 7
