REMARK  3 active torsions:
REMARK  status: ('A' for Active; 'I' for Inactive)
REMARK    1  A    between atoms: C33_22  and  N39_37 
REMARK    2  A    between atoms: N39_37  and  C40_28 
REMARK    3  A    between atoms: N39_37  and  C41_38 
ROOT
ATOM      1  C1  BIM d   1     -37.423  -0.926  74.606  0.00  0.00     0.260 A 
ATOM      2  C3  BIM d   1     -37.151  -1.466  73.271  0.00  0.00     0.061 A 
ATOM      3  C4  BIM d   1     -39.166  -2.101  74.059  0.00  0.00     0.260 A 
ATOM      4  C5  BIM d   1     -38.232  -2.200  72.926  0.00  0.00     0.061 A 
ATOM      5  C6  BIM d   1     -38.612  -3.023  71.727  0.00  0.00     0.009 A 
ATOM      6  C7  BIM d   1     -37.754  -3.797  70.956  0.00  0.00     0.003 A 
ATOM      7  C8  BIM d   1     -39.863  -3.207  71.172  0.00  0.00    -0.008 A 
ATOM      8  N10 BIM d   1     -39.780  -4.033  70.097  0.00  0.00    -0.355 N 
ATOM      9  C11 BIM d   1     -35.874  -1.167  72.572  0.00  0.00     0.009 A 
ATOM     10  C12 BIM d   1     -35.674  -0.739  71.274  0.00  0.00    -0.008 A 
ATOM     11  C15 BIM d   1     -33.696  -0.952  72.175  0.00  0.00     0.045 A 
ATOM     12  C16 BIM d   1     -36.384  -3.989  71.061  0.00  0.00    -0.070 A 
ATOM     13  C17 BIM d   1     -35.745  -4.809  70.144  0.00  0.00    -0.082 A 
ATOM     14  C18 BIM d   1     -37.855  -5.232  69.035  0.00  0.00    -0.056 A 
ATOM     15  C19 BIM d   1     -36.477  -5.432  69.135  0.00  0.00    -0.081 A 
ATOM     16  C21 BIM d   1     -32.862  -1.745  74.694  0.00  0.00    -0.082 A 
ATOM     17  C23 BIM d   1     -31.927  -1.386  73.727  0.00  0.00    -0.081 A 
ATOM     18  O25 BIM d   1     -36.663  -0.213  75.231  0.00  0.00    -0.267 OA
ATOM     19  C27 BIM d   1     -34.130  -0.976  68.555  0.00  0.00    -0.045 C 
ATOM     20  C30 BIM d   1     -37.318  -0.645  67.771  0.00  0.00    -0.058 A 
ATOM     21  C32 BIM d   1     -38.448  -1.331  67.414  0.00  0.00    -0.071 A 
ATOM     22  C33 BIM d   1     -37.257  -2.544  65.716  0.00  0.00     0.131 A 
ATOM     23  C34 BIM d   1     -38.459  -2.287  66.399  0.00  0.00    -0.012 A 
ATOM     24  C35 BIM d   1     -40.983  -4.415  69.323  0.00  0.00    -0.000 C 
ATOM     25  C36 BIM d   1     -40.961  -4.552  67.784  0.00  0.00    -0.050 C 
ATOM     26  C37 BIM d   1     -39.771  -3.000  66.065  0.00  0.00    -0.037 C 
ATOM     27  C38 BIM d   1     -40.850  -3.156  67.172  0.00  0.00    -0.060 C 
ATOM     28  C13 BIM d   1     -34.616  -1.305  73.127  0.00  0.00     0.003 A 
ATOM     29  C20 BIM d   1     -34.220  -1.710  74.395  0.00  0.00    -0.070 A 
ATOM     30  C22 BIM d   1     -32.339  -0.984  72.458  0.00  0.00    -0.056 A 
ATOM     31  N14 BIM d   1     -34.345  -0.605  71.055  0.00  0.00    -0.355 N 
ATOM     32  C26 BIM d   1     -33.709  -0.161  69.800  0.00  0.00    -0.000 C 
ATOM     33  C28 BIM d   1     -34.903  -0.130  67.526  0.00  0.00    -0.023 C 
ATOM     34  C29 BIM d   1     -36.144  -0.883  67.110  0.00  0.00     0.037 A 
ATOM     35  N31 BIM d   1     -36.126  -1.826  66.097  0.00  0.00    -0.235 NA
ATOM     36  O24 BIM d   1     -40.254  -2.626  74.103  0.00  0.00    -0.267 OA
ATOM     37  N2  BIM d   1     -38.655  -1.328  75.072  0.00  0.00    -0.289 N 
ATOM     38  C9  BIM d   1     -38.488  -4.405  69.959  0.00  0.00     0.045 A 
ATOM     39  H1  BIM d   1     -40.782  -2.756  71.542  0.00  0.00     0.113 H 
ATOM     40  H2  BIM d   1     -36.459  -0.541  70.545  0.00  0.00     0.113 H 
ATOM     41  H3  BIM d   1     -35.821  -3.504  71.850  0.00  0.00     0.084 H 
ATOM     42  H4  BIM d   1     -34.675  -4.966  70.212  0.00  0.00     0.083 H 
ATOM     43  H5  BIM d   1     -38.424  -5.714  68.249  0.00  0.00     0.087 H 
ATOM     44  H6  BIM d   1     -35.973  -6.076  68.423  0.00  0.00     0.083 H 
ATOM     45  H7  BIM d   1     -32.532  -2.052  75.680  0.00  0.00     0.083 H 
ATOM     46  H8  BIM d   1     -30.870  -1.419  73.963  0.00  0.00     0.083 H 
ATOM     47  H9  BIM d   1     -34.772  -1.808  68.879  0.00  0.00     0.035 H 
ATOM     48  H10 BIM d   1     -33.225  -1.376  68.074  0.00  0.00     0.035 H 
ATOM     49  H11 BIM d   1     -37.353   0.083  68.573  0.00  0.00     0.086 H 
ATOM     50  H12 BIM d   1     -39.371  -1.122  67.942  0.00  0.00     0.084 H 
ATOM     51  H13 BIM d   1     -41.749  -3.660  69.553  0.00  0.00     0.064 H 
ATOM     52  H14 BIM d   1     -41.302  -5.392  69.714  0.00  0.00     0.064 H 
ATOM     53  H15 BIM d   1     -41.889  -5.034  67.442  0.00  0.00     0.035 H 
ATOM     54  H16 BIM d   1     -40.097  -5.160  67.478  0.00  0.00     0.035 H 
ATOM     55  H17 BIM d   1     -39.509  -4.013  65.726  0.00  0.00     0.040 H 
ATOM     56  H18 BIM d   1     -40.237  -2.445  65.237  0.00  0.00     0.040 H 
ATOM     57  H19 BIM d   1     -40.612  -2.449  67.980  0.00  0.00     0.033 H 
ATOM     58  H20 BIM d   1     -41.826  -2.898  66.734  0.00  0.00     0.033 H 
ATOM     59  H24 BIM d   1     -34.956  -1.994  75.138  0.00  0.00     0.084 H 
ATOM     60  H25 BIM d   1     -31.612  -0.701  71.706  0.00  0.00     0.087 H 
ATOM     61  H26 BIM d   1     -33.978   0.892  69.630  0.00  0.00     0.064 H 
ATOM     62  H27 BIM d   1     -32.619  -0.247  69.916  0.00  0.00     0.064 H 
ATOM     63  H28 BIM d   1     -34.269   0.052  66.646  0.00  0.00     0.042 H 
ATOM     64  H29 BIM d   1     -35.188   0.832  67.978  0.00  0.00     0.042 H 
ATOM     65  H33 BIM d   1     -39.081  -1.107  75.949  0.00  0.00     0.172 HD
ENDROOT
BRANCH  22  66
ATOM     66  N39 BIM d   1     -37.067  -3.474  64.647  0.00  0.00    -0.374 N 
BRANCH  66  67
ATOM     67  C40 BIM d   1     -38.007  -4.070  63.673  0.00  0.00    -0.018 C 
ATOM     68  H21 BIM d   1     -37.459  -4.749  63.003  0.00  0.00     0.056 H 
ATOM     69  H22 BIM d   1     -38.477  -3.271  63.081  0.00  0.00     0.056 H 
ATOM     70  H23 BIM d   1     -38.784  -4.633  64.211  0.00  0.00     0.056 H 
ENDBRANCH  66  67
BRANCH  66  71
ATOM     71  C41 BIM d   1     -35.722  -4.006  64.346  0.00  0.00    -0.018 C 
ATOM     72  H30 BIM d   1     -34.994  -3.583  65.053  0.00  0.00     0.056 H 
ATOM     73  H31 BIM d   1     -35.440  -3.729  63.319  0.00  0.00     0.056 H 
ATOM     74  H32 BIM d   1     -35.731  -5.102  64.441  0.00  0.00     0.056 H 
ENDBRANCH  66  71
ENDBRANCH  22  66
TORSDOF 3
