REMARK  3 active torsions:
REMARK  status: ('A' for Active; 'I' for Inactive)
REMARK    1  A    between atoms: O7_1  and  C7_2 
REMARK    2  A    between atoms: C5_4  and  O5_5 
REMARK    3  A    between atoms: C8_11  and  O8_12 
ROOT
ATOM      1  C7  NK1 d   1      31.727  66.985   7.153  0.00  0.00     0.074 C 
ATOM      2  C6  NK1 d   1      30.916  65.706   7.211  0.00  0.00     0.034 C 
ATOM      3  C5  NK1 d   1      29.473  65.789   6.731  0.00  0.00     0.049 C 
ATOM      4  C4  NK1 d   1      28.562  66.708   7.572  0.00  0.00    -0.039 C 
ATOM      5  C3  NK1 d   1      28.531  66.340   9.054  0.00  0.00    -0.056 C 
ATOM      6  C2  NK1 d   1      29.892  66.439   9.739  0.00  0.00    -0.031 C 
ATOM      7  S1  NK1 d   1      31.068  65.310   8.960  0.00  0.00    -0.208 SA
ATOM      8  C9  NK1 d   1      32.679  66.066   9.208  0.00  0.00    -0.005 C 
ATOM      9  C8  NK1 d   1      33.038  66.731   7.871  0.00  0.00     0.069 C 
ATOM     10  H2  NK1 d   1      31.192  67.784   7.688  0.00  0.00     0.088 H 
ATOM     11  H3  NK1 d   1      31.410  64.933   6.605  0.00  0.00     0.063 H 
ATOM     12  H4  NK1 d   1      29.467  66.143   5.689  0.00  0.00     0.084 H 
ATOM     13  H6  NK1 d   1      27.538  66.642   7.175  0.00  0.00     0.036 H 
ATOM     14  H7  NK1 d   1      28.926  67.742   7.477  0.00  0.00     0.036 H 
ATOM     15  H8  NK1 d   1      28.169  65.305   9.148  0.00  0.00     0.034 H 
ATOM     16  H9  NK1 d   1      27.834  67.020   9.566  0.00  0.00     0.034 H 
ATOM     17  H10 NK1 d   1      29.784  66.174  10.801  0.00  0.00     0.047 H 
ATOM     18  H11 NK1 d   1      30.267  67.469   9.654  0.00  0.00     0.047 H 
ATOM     19  H12 NK1 d   1      33.425  65.301   9.468  0.00  0.00     0.051 H 
ATOM     20  H13 NK1 d   1      32.630  66.818  10.009  0.00  0.00     0.051 H 
ATOM     21  H14 NK1 d   1      33.554  67.686   8.046  0.00  0.00     0.088 H 
ENDROOT
BRANCH   1  22
ATOM     22  O7  NK1 d   1      31.855  67.378   5.779  0.00  0.00    -0.392 OA
ATOM     23  H1  NK1 d   1      32.362  68.180   5.726  0.00  0.00     0.210 HD
ENDBRANCH   1  22
BRANCH   9  24
ATOM     24  O8  NK1 d   1      33.904  65.857   7.134  0.00  0.00    -0.392 OA
ATOM     25  H15 NK1 d   1      34.130  66.262   6.305  0.00  0.00     0.210 HD
ENDBRANCH   9  24
BRANCH   3  26
ATOM     26  O5  NK1 d   1      28.926  64.468   6.811  0.00  0.00    -0.394 OA
ATOM     27  H5  NK1 d   1      29.430  63.883   6.258  0.00  0.00     0.210 HD
ENDBRANCH   3  26
TORSDOF 3
