REMARK  2 active torsions:
REMARK  status: ('A' for Active; 'I' for Inactive)
REMARK    1  A    between atoms: O7_1  and  C7_2 
REMARK    2  A    between atoms: C8_10  and  O8_11 
ROOT
ATOM      1  C7  NK2 d   1      31.513  66.291   7.566  0.00  0.00     0.072 C 
ATOM      2  C6  NK2 d   1      30.675  64.997   7.538  0.00  0.00     0.010 C 
ATOM      3  C5  NK2 d   1      29.267  65.193   6.937  0.00  0.00    -0.052 C 
ATOM      4  C4  NK2 d   1      28.317  66.020   7.800  0.00  0.00    -0.063 C 
ATOM      5  C3  NK2 d   1      28.232  65.571   9.274  0.00  0.00    -0.058 C 
ATOM      6  C2  NK2 d   1      29.543  65.683  10.051  0.00  0.00    -0.031 C 
ATOM      7  S1  NK2 d   1      30.798  64.638   9.298  0.00  0.00    -0.210 SA
ATOM      8  C9  NK2 d   1      32.462  65.283   9.625  0.00  0.00    -0.005 C 
ATOM      9  C8  NK2 d   1      32.795  66.026   8.328  0.00  0.00     0.069 C 
ATOM     10  H2  NK2 d   1      30.948  67.046   8.132  0.00  0.00     0.088 H 
ATOM     11  H3  NK2 d   1      31.172  64.210   6.952  0.00  0.00     0.059 H 
ATOM     12  H4  NK2 d   1      28.817  64.201   6.786  0.00  0.00     0.034 H 
ATOM     13  H5  NK2 d   1      29.376  65.698   5.966  0.00  0.00     0.034 H 
ATOM     14  H6  NK2 d   1      27.310  65.953   7.362  0.00  0.00     0.033 H 
ATOM     15  H7  NK2 d   1      28.657  67.066   7.779  0.00  0.00     0.033 H 
ATOM     16  H8  NK2 d   1      27.910  64.519   9.294  0.00  0.00     0.034 H 
ATOM     17  H9  NK2 d   1      27.480  66.194   9.779  0.00  0.00     0.034 H 
ATOM     18  H10 NK2 d   1      29.378  65.363  11.090  0.00  0.00     0.047 H 
ATOM     19  H11 NK2 d   1      29.885  66.728  10.039  0.00  0.00     0.047 H 
ATOM     20  H12 NK2 d   1      33.175  64.466   9.809  0.00  0.00     0.051 H 
ATOM     21  H13 NK2 d   1      32.460  65.968  10.486  0.00  0.00     0.051 H 
ATOM     22  H14 NK2 d   1      33.270  66.989   8.569  0.00  0.00     0.088 H 
ENDROOT
BRANCH   1  23
ATOM     23  O7  NK2 d   1      31.702  66.819   6.252  0.00  0.00    -0.392 OA
ATOM     24  H1  NK2 d   1      32.220  67.614   6.303  0.00  0.00     0.210 HD
ENDBRANCH   1  23
BRANCH   9  25
ATOM     25  O8  NK2 d   1      33.709  65.239   7.571  0.00  0.00    -0.392 OA
ATOM     26  H15 NK2 d   1      33.922  65.692   6.764  0.00  0.00     0.210 HD
ENDBRANCH   9  25
TORSDOF 2
