REMARK  6 active torsions:
REMARK  status: ('A' for Active; 'I' for Inactive)
REMARK    1  A    between atoms: C4_2  and  C21_12 
REMARK    2  A    between atoms: N6_27  and  C4_2 
REMARK    3  A    between atoms: C7_5  and  C8_6 
REMARK    4  A    between atoms: O4_14  and  C7_5 
REMARK    5  A    between atoms: C11_15  and  C20_11 
REMARK    6  A    between atoms: O4_14  and  C11_15 
ROOT
ATOM      1  N1  SP6 d   1      52.437  10.867   9.555  0.00  0.00    -0.267 N 
ATOM      2  C5  SP6 d   1      51.127  10.956   9.262  0.00  0.00     0.336 A 
ATOM      3  C6  SP6 d   1      53.001  11.313  10.716  0.00  0.00     0.013 A 
ATOM      4  C8  SP6 d   1      54.329  11.092  10.734  0.00  0.00     0.098 A 
ATOM      5  C3  SP6 d   1      53.333  10.314   8.730  0.00  0.00     0.090 A 
ATOM      6  S1  SP6 d   1      54.925  10.322   9.354  0.00  0.00    -0.064 SA
ATOM      7  C2  SP6 d   1      52.950   9.794   7.487  0.00  0.00     0.016 A 
ATOM      8  C1  SP6 d   1      51.597   9.855   7.131  0.00  0.00     0.254 A 
ATOM      9  O1  SP6 d   1      51.198   9.403   6.031  0.00  0.00    -0.268 OA
ATOM     10  O2  SP6 d   1      50.313  11.477  10.063  0.00  0.00    -0.246 OA
ATOM     11  N6  SP6 d   1      50.672  10.445   8.027  0.00  0.00    -0.262 N 
ATOM     12  H3  SP6 d   1      52.447  11.787  11.525  0.00  0.00     0.114 H 
ATOM     13  H15 SP6 d   1      53.685   9.354   6.815  0.00  0.00     0.096 H 
ENDROOT
BRANCH   4  14
ATOM     14  C7  SP6 d   1      55.079  11.428  11.804  0.00  0.00     0.302 C 
ATOM     15  O3  SP6 d   1      54.635  12.097  12.735  0.00  0.00    -0.259 OA
BRANCH  14  16
ATOM     16  O4  SP6 d   1      56.435  10.924  11.944  0.00  0.00    -0.312 OA
BRANCH  16  17
ATOM     17  C11 SP6 d   1      57.197  11.156  13.137  0.00  0.00     0.053 C 
ATOM     18  H8  SP6 d   1      58.266  11.063  12.896  0.00  0.00     0.082 H 
ATOM     19  H9  SP6 d   1      56.989  12.175  13.495  0.00  0.00     0.082 H 
BRANCH  17  20
ATOM     20  C20 SP6 d   1      56.861  10.172  14.247  0.00  0.00    -0.034 A 
ATOM     21  C16 SP6 d   1      57.524  10.274  15.477  0.00  0.00    -0.075 A 
ATOM     22  C18 SP6 d   1      57.248   9.391  16.528  0.00  0.00    -0.082 A 
ATOM     23  H10 SP6 d   1      58.266  11.052  15.618  0.00  0.00     0.084 H 
ATOM     24  C9  SP6 d   1      56.286   8.390  16.344  0.00  0.00    -0.083 A 
ATOM     25  H11 SP6 d   1      57.772   9.481  17.472  0.00  0.00     0.083 H 
ATOM     26  C12 SP6 d   1      55.618   8.285  15.123  0.00  0.00    -0.082 A 
ATOM     27  H14 SP6 d   1      56.061   7.699  17.148  0.00  0.00     0.083 H 
ATOM     28  C14 SP6 d   1      55.899   9.173  14.078  0.00  0.00    -0.075 A 
ATOM     29  H13 SP6 d   1      54.875   7.509  14.983  0.00  0.00     0.083 H 
ATOM     30  H12 SP6 d   1      55.369   9.085  13.136  0.00  0.00     0.084 H 
ENDBRANCH  17  20
ENDBRANCH  16  17
ENDBRANCH  14  16
ENDBRANCH   4  14
BRANCH  11  31
ATOM     31  C4  SP6 d   1      49.240  10.511   7.694  0.00  0.00     0.031 C 
ATOM     32  H1  SP6 d   1      48.790  11.404   8.152  0.00  0.00     0.072 H 
ATOM     33  H2  SP6 d   1      49.111  10.553   6.603  0.00  0.00     0.072 H 
BRANCH  31  34
ATOM     34  C21 SP6 d   1      48.579   9.255   8.247  0.00  0.00    -0.040 A 
ATOM     35  C15 SP6 d   1      47.481   8.699   7.588  0.00  0.00    -0.075 A 
ATOM     36  C13 SP6 d   1      46.870   7.545   8.090  0.00  0.00    -0.082 A 
ATOM     37  H6  SP6 d   1      47.101   9.163   6.685  0.00  0.00     0.084 H 
ATOM     38  C10 SP6 d   1      47.349   6.938   9.251  0.00  0.00    -0.083 A 
ATOM     39  H5  SP6 d   1      46.018   7.119   7.573  0.00  0.00     0.083 H 
ATOM     40  C19 SP6 d   1      48.447   7.484   9.915  0.00  0.00    -0.082 A 
ATOM     41  H4  SP6 d   1      46.870   6.045   9.636  0.00  0.00     0.083 H 
ATOM     42  C17 SP6 d   1      49.053   8.634   9.413  0.00  0.00    -0.075 A 
ATOM     43  H16 SP6 d   1      48.827   7.017  10.816  0.00  0.00     0.083 H 
ATOM     44  H7  SP6 d   1      49.906   9.056   9.932  0.00  0.00     0.084 H 
ENDBRANCH  31  34
ENDBRANCH  11  31
TORSDOF 6
