REMARK  6 active torsions:
REMARK  status: ('A' for Active; 'I' for Inactive)
REMARK       I    between atoms: C1_1  and  N3_3 
REMARK    1  A    between atoms: C32_32  and  C1_1 
REMARK    2  A    between atoms: C5_5  and  N7_7 
REMARK       I    between atoms: N7_7  and  C8_8 
REMARK    3  A    between atoms: C8_8  and  C9_9 
REMARK    4  A    between atoms: C26_26  and  N19_19 
REMARK    5  A    between atoms: N22_22  and  C25_25 
REMARK    6  A    between atoms: C31_31  and  C32_32 
ROOT
ATOM      1  N7  626 d   1       0.747  25.670  69.152  0.00  0.00    -0.307 N 
ATOM      2  C8  626 d   1      -0.173  24.770  68.747  0.00  0.00     0.257 C 
ATOM      3  O10 626 d   1      -0.820  24.881  67.708  0.00  0.00    -0.267 OA
ATOM      4  H2  626 d   1       1.210  25.508  70.024  0.00  0.00     0.170 HD
ENDROOT
BRANCH   2   5
ATOM      5  C9  626 d   1      -0.415  23.542  69.572  0.00  0.00     0.032 A 
ATOM      6  C11 626 d   1       0.203  23.323  70.822  0.00  0.00    -0.066 A 
ATOM      7  C12 626 d   1      -0.032  22.159  71.569  0.00  0.00    -0.056 A 
ATOM      8  H3  626 d   1       0.878  24.075  71.216  0.00  0.00     0.085 H 
ATOM      9  C26 626 d   1      -0.904  21.145  71.115  0.00  0.00     0.030 A 
ATOM     10  H4  626 d   1       0.470  22.034  72.522  0.00  0.00     0.086 H 
ATOM     11  C13 626 d   1      -1.529  21.365  69.861  0.00  0.00    -0.056 A 
ATOM     12  C14 626 d   1      -1.293  22.531  69.112  0.00  0.00    -0.066 A 
ATOM     13  H5  626 d   1      -2.206  20.614  69.470  0.00  0.00     0.086 H 
ATOM     14  H6  626 d   1      -1.795  22.659  68.160  0.00  0.00     0.085 H 
BRANCH   9  15
ATOM     15  N19 626 d   1      -1.126  19.964  71.918  0.00  0.00    -0.378 N 
ATOM     16  C20 626 d   1      -1.764  18.776  71.323  0.00  0.00     0.018 C 
ATOM     17  C21 626 d   1      -0.734  18.013  70.485  0.00  0.00     0.098 C 
ATOM     18  H11 626 d   1      -2.599  19.091  70.680  0.00  0.00     0.066 H 
ATOM     19  H12 626 d   1      -2.143  18.123  72.123  0.00  0.00     0.066 H 
ATOM     20  N22 626 d   1       0.423  17.618  71.323  0.00  0.00    -0.072 N 
ATOM     21  H13 626 d   1      -0.384  18.658  69.665  0.00  0.00     0.078 H 
ATOM     22  H14 626 d   1      -1.204  17.110  70.067  0.00  0.00     0.078 H 
ATOM     23  C23 626 d   1       0.999  18.773  72.048  0.00  0.00     0.098 C 
ATOM     24  H15 626 d   1       0.072  16.981  72.020  0.00  0.00     0.279 HD
ATOM     25  C24 626 d   1      -0.082  19.505  72.847  0.00  0.00     0.018 C 
ATOM     26  H16 626 d   1       1.445  19.469  71.322  0.00  0.00     0.078 H 
ATOM     27  H17 626 d   1       1.777  18.415  72.738  0.00  0.00     0.078 H 
ATOM     28  H18 626 d   1      -0.521  18.821  73.588  0.00  0.00     0.066 H 
ATOM     29  H19 626 d   1       0.361  20.370  73.363  0.00  0.00     0.066 H 
BRANCH  20  30
ATOM     30  C25 626 d   1       1.454  16.883  70.553  0.00  0.00     0.066 C 
ATOM     31  H20 626 d   1       0.987  16.035  70.031  0.00  0.00     0.068 H 
ATOM     32  H21 626 d   1       2.228  16.509  71.240  0.00  0.00     0.068 H 
ATOM     33  H22 626 d   1       1.913  17.559  69.817  0.00  0.00     0.068 H 
ENDBRANCH  20  30
ENDBRANCH   9  15
ENDBRANCH   2   5
BRANCH   1  34
ATOM     34  C5  626 d   1       1.095  26.818  68.428  0.00  0.00     0.134 A 
ATOM     35  N6  626 d   1       2.044  27.586  68.875  0.00  0.00    -0.262 N 
ATOM     36  N4  626 d   1       2.207  28.566  68.064  0.00  0.00    -0.175 NA
ATOM     37  H1  626 d   1       2.579  27.432  69.742  0.00  0.00     0.191 HD
ATOM     38  C15 626 d   1       1.356  28.508  66.992  0.00  0.00     0.084 A 
ATOM     39  C16 626 d   1       0.622  27.412  67.170  0.00  0.00     0.033 A 
ATOM     40  C18 626 d   1       1.050  29.284  65.769  0.00  0.00     0.040 A 
ATOM     41  C17 626 d   1      -0.362  27.216  66.064  0.00  0.00     0.027 A 
ATOM     42  N3  626 d   1      -0.034  28.420  65.244  0.00  0.00    -0.342 N 
ATOM     43  H7  626 d   1      -0.183  26.281  65.513  0.00  0.00     0.072 H 
ATOM     44  H8  626 d   1      -1.400  27.235  66.427  0.00  0.00     0.072 H 
ATOM     45  C1  626 d   1      -0.631  28.770  64.101  0.00  0.00     0.225 C 
ATOM     46  O2  626 d   1      -0.258  29.761  63.478  0.00  0.00    -0.273 OA
ATOM     47  H9  626 d   1       0.699  30.301  65.998  0.00  0.00     0.074 H 
ATOM     48  H10 626 d   1       1.909  29.338  65.084  0.00  0.00     0.074 H 
BRANCH  45  49
ATOM     49  C32 626 d   1      -1.796  27.961  63.546  0.00  0.00     0.039 C 
ATOM     50  H26 626 d   1      -2.532  28.645  63.098  0.00  0.00     0.055 H 
ATOM     51  H27 626 d   1      -2.269  27.398  64.364  0.00  0.00     0.055 H 
BRANCH  49  52
ATOM     52  C31 626 d   1      -1.308  26.994  62.492  0.00  0.00    -0.009 A 
ATOM     53  S29 626 d   1      -2.331  25.720  61.946  0.00  0.00    -0.106 SA
ATOM     54  C27 626 d   1      -1.101  25.166  60.863  0.00  0.00    -0.045 A 
ATOM     55  C28 626 d   1       0.064  25.923  60.906  0.00  0.00    -0.076 A 
ATOM     56  H23 626 d   1      -1.228  24.305  60.209  0.00  0.00     0.095 H 
ATOM     57  C30 626 d   1      -0.055  27.007  61.867  0.00  0.00    -0.069 A 
ATOM     58  H24 626 d   1       0.948  25.730  60.300  0.00  0.00     0.084 H 
ATOM     59  H25 626 d   1       0.728  27.735  62.074  0.00  0.00     0.085 H 
ENDBRANCH  49  52
ENDBRANCH  45  49
ENDBRANCH   1  34
TORSDOF 6
