REMARK  10 active torsions:
REMARK  status: ('A' for Active; 'I' for Inactive)
REMARK    1  A    between atoms: O2B_1  and  C2B_2 
REMARK    2  A    between atoms: C3B_3  and  O3B_4 
REMARK    3  A    between atoms: C4B_5  and  O4B_6 
REMARK    4  A    between atoms: C5B_7  and  C6B_8 
REMARK    5  A    between atoms: C6B_8  and  O6B_9 
REMARK    6  A    between atoms: C1B_11  and  O3A_12 
REMARK    7  A    between atoms: O3A_12  and  C3A_13 
REMARK    8  A    between atoms: C4A_14  and  O4A_15 
REMARK    9  A    between atoms: C2A_19  and  C6A_20 
REMARK   10  A    between atoms: C6A_20  and  O6A_21 
ROOT
ATOM      1  O3A 9MR d   1      27.111  58.969 -26.131  0.00  0.00    -0.350 OA
ENDROOT
BRANCH   1   2
ATOM      2  C1B 9MR d   1      28.436  58.934 -26.652  0.00  0.00     0.159 C 
ATOM      3  C2B 9MR d   1      29.333  59.759 -25.735  0.00  0.00     0.110 C 
ATOM      4  C3B 9MR d   1      30.800  59.632 -26.152  0.00  0.00     0.092 C 
ATOM      5  H2  9MR d   1      29.225  59.377 -24.709  0.00  0.00     0.094 H 
ATOM      6  C4B 9MR d   1      31.190  58.157 -26.225  0.00  0.00     0.090 C 
ATOM      7  H3  9MR d   1      30.940  60.090 -27.142  0.00  0.00     0.091 H 
ATOM      8  C5B 9MR d   1      30.190  57.380 -27.091  0.00  0.00     0.089 C 
ATOM      9  H5  9MR d   1      31.189  57.732 -25.210  0.00  0.00     0.091 H 
ATOM     10  O5B 9MR d   1      28.847  57.563 -26.588  0.00  0.00    -0.348 OA
ATOM     11  H7  9MR d   1      30.258  57.729 -28.132  0.00  0.00     0.090 H 
ATOM     12  H11 9MR d   1      28.473  59.315 -27.683  0.00  0.00     0.133 H 
BRANCH   3  13
ATOM     13  O2B 9MR d   1      28.951  61.125 -25.752  0.00  0.00    -0.388 OA
ATOM     14  H1  9MR d   1      29.496  61.613 -25.145  0.00  0.00     0.210 HD
ENDBRANCH   3  13
BRANCH   4  15
ATOM     15  O3B 9MR d   1      31.614  60.320 -25.194  0.00  0.00    -0.390 OA
ATOM     16  H4  9MR d   1      31.488  59.932 -24.336  0.00  0.00     0.210 HD
ENDBRANCH   4  15
BRANCH   6  17
ATOM     17  O4B 9MR d   1      32.513  58.053 -26.781  0.00  0.00    -0.390 OA
ATOM     18  H6  9MR d   1      32.520  58.431 -27.652  0.00  0.00     0.210 HD
ENDBRANCH   6  17
BRANCH   8  19
ATOM     19  C6B 9MR d   1      30.476  55.889 -27.017  0.00  0.00     0.043 C 
ATOM     20  H8  9MR d   1      31.492  55.697 -27.391  0.00  0.00     0.078 H 
ATOM     21  H9  9MR d   1      29.748  55.350 -27.641  0.00  0.00     0.078 H 
BRANCH  19  22
ATOM     22  O6B 9MR d   1      30.375  55.419 -25.657  0.00  0.00    -0.398 OA
ATOM     23  H10 9MR d   1      30.557  54.487 -25.631  0.00  0.00     0.209 HD
ENDBRANCH  19  22
ENDBRANCH   8  19
ENDBRANCH   1   2
BRANCH   1  24
ATOM     24  C3A 9MR d   1      26.136  58.394 -27.007  0.00  0.00     0.075 C 
ATOM     25  C4A 9MR d   1      25.190  57.468 -26.238  0.00  0.00     0.084 C 
ATOM     26  C5M 9MR d   1      24.215  56.800 -27.197  0.00  0.00     0.107 C 
ATOM     27  H13 9MR d   1      24.626  58.063 -25.504  0.00  0.00     0.089 H 
ATOM     28  N5A 9MR d   1      23.441  57.817 -27.940  0.00  0.00    -0.072 N 
ATOM     29  H15 9MR d   1      23.523  56.165 -26.625  0.00  0.00     0.079 H 
ATOM     30  H16 9MR d   1      24.777  56.180 -27.911  0.00  0.00     0.079 H 
ATOM     31  C1A 9MR d   1      24.309  58.795 -28.633  0.00  0.00     0.089 C 
ATOM     32  H17 9MR d   1      22.851  58.312 -27.290  0.00  0.00     0.277 HD
ATOM     33  H18 9MR d   1      22.868  57.350 -28.626  0.00  0.00     0.277 HD
ATOM     34  C2A 9MR d   1      25.248  59.463 -27.632  0.00  0.00     0.017 C 
ATOM     35  H19 9MR d   1      23.683  59.562 -29.112  0.00  0.00     0.076 H 
ATOM     36  H20 9MR d   1      24.904  58.276 -29.399  0.00  0.00     0.076 H 
ATOM     37  H21 9MR d   1      24.641  59.915 -26.834  0.00  0.00     0.049 H 
ATOM     38  H12 9MR d   1      26.655  57.831 -27.796  0.00  0.00     0.088 H 
BRANCH  25  39
ATOM     39  O4A 9MR d   1      25.931  56.462 -25.555  0.00  0.00    -0.391 OA
ATOM     40  H14 9MR d   1      26.423  55.950 -26.186  0.00  0.00     0.210 HD
ENDBRANCH  25  39
BRANCH  34  41
ATOM     41  C6A 9MR d   1      26.064  60.588 -28.294  0.00  0.00     0.024 C 
ATOM     42  H22 9MR d   1      26.781  60.987 -27.561  0.00  0.00     0.074 H 
ATOM     43  H23 9MR d   1      25.378  61.388 -28.608  0.00  0.00     0.074 H 
BRANCH  41  44
ATOM     44  O6A 9MR d   1      26.786  60.118 -29.441  0.00  0.00    -0.400 OA
ATOM     45  H24 9MR d   1      27.276  60.837 -29.822  0.00  0.00     0.209 HD
ENDBRANCH  41  44
ENDBRANCH  34  41
ENDBRANCH   1  24
TORSDOF 10
