REMARK  11 active torsions:
REMARK  status: ('A' for Active; 'I' for Inactive)
REMARK    1  A    between atoms: O4B_20  and  C1A_1 
REMARK    2  A    between atoms: C2A_2  and  O2A_7 
REMARK    3  A    between atoms: C3A_3  and  O3A_8 
REMARK    4  A    between atoms: C4A_4  and  O4A_9 
REMARK    5  A    between atoms: C5A_5  and  C6A_6 
REMARK    6  A    between atoms: C6A_6  and  O6A_11 
REMARK    7  A    between atoms: C2B_13  and  O2B_18 
REMARK    8  A    between atoms: C3B_14  and  O3B_19 
REMARK    9  A    between atoms: C4B_15  and  O4B_20 
REMARK   10  A    between atoms: C5B_16  and  C6B_17 
REMARK   11  A    between atoms: C6B_17  and  O6B_22 
ROOT
ATOM      1  C1B IDC d   1      24.123  58.229 -28.483  0.00  0.00     0.138 A 
ATOM      2  C2B IDC d   1      24.483  57.195 -27.396  0.00  0.00     0.119 C 
ATOM      3  C3B IDC d   1      25.333  57.829 -26.293  0.00  0.00     0.094 C 
ATOM      4  C4B IDC d   1      26.364  58.781 -26.897  0.00  0.00     0.091 C 
ATOM      5  C5B IDC d   1      25.596  59.991 -27.451  0.00  0.00     0.065 C 
ATOM      6  N1B IDC d   1      24.678  59.529 -28.506  0.00  0.00    -0.332 N 
ATOM      7  N2B IDC d   1      23.352  58.139 -29.563  0.00  0.00    -0.243 NA
ATOM      8  C7B IDC d   1      23.395  59.305 -30.215  0.00  0.00     0.019 A 
ATOM      9  C8B IDC d   1      24.195  60.150 -29.572  0.00  0.00    -0.001 A 
ATOM     10  H12 IDC d   1      25.093  56.419 -27.881  0.00  0.00     0.099 H 
ATOM     11  H13 IDC d   1      24.678  58.396 -25.615  0.00  0.00     0.091 H 
ATOM     12  H14 IDC d   1      26.887  58.278 -27.723  0.00  0.00     0.090 H 
ATOM     13  H15 IDC d   1      25.009  60.437 -26.634  0.00  0.00     0.080 H 
ATOM     14  H21 IDC d   1      22.856  59.529 -31.134  0.00  0.00     0.117 H 
ATOM     15  H22 IDC d   1      24.415  61.174 -29.870  0.00  0.00     0.113 H 
ENDROOT
BRANCH   4  16
ATOM     16  O4B IDC d   1      27.332  59.162 -25.912  0.00  0.00    -0.348 OA
BRANCH  16  17
ATOM     17  C1A IDC d   1      28.658  59.097 -26.455  0.00  0.00     0.159 C 
ATOM     18  C2A IDC d   1      29.617  59.863 -25.544  0.00  0.00     0.110 C 
ATOM     19  C3A IDC d   1      31.065  59.688 -26.014  0.00  0.00     0.092 C 
ATOM     20  H2  IDC d   1      29.523  59.467 -24.522  0.00  0.00     0.094 H 
ATOM     21  C4A IDC d   1      31.403  58.211 -26.110  0.00  0.00     0.090 C 
ATOM     22  H3  IDC d   1      31.192  60.157 -27.001  0.00  0.00     0.091 H 
ATOM     23  C5A IDC d   1      30.364  57.479 -26.980  0.00  0.00     0.089 C 
ATOM     24  H4  IDC d   1      31.394  57.773 -25.101  0.00  0.00     0.091 H 
ATOM     25  O5A IDC d   1      29.011  57.700 -26.471  0.00  0.00    -0.348 OA
ATOM     26  H5  IDC d   1      30.437  57.848 -28.014  0.00  0.00     0.090 H 
ATOM     27  H1  IDC d   1      28.686  59.518 -27.471  0.00  0.00     0.133 H 
BRANCH  18  28
ATOM     28  O2A IDC d   1      29.300  61.232 -25.533  0.00  0.00    -0.388 OA
ATOM     29  H8  IDC d   1      29.886  61.687 -24.940  0.00  0.00     0.210 HD
ENDBRANCH  18  28
BRANCH  19  30
ATOM     30  O3A IDC d   1      31.927  60.316 -25.070  0.00  0.00    -0.390 OA
ATOM     31  H9  IDC d   1      31.812  59.910 -24.219  0.00  0.00     0.210 HD
ENDBRANCH  19  30
BRANCH  21  32
ATOM     32  O4A IDC d   1      32.721  58.068 -26.676  0.00  0.00    -0.390 OA
ATOM     33  H10 IDC d   1      32.731  58.440 -27.550  0.00  0.00     0.210 HD
ENDBRANCH  21  32
BRANCH  23  34
ATOM     34  C6A IDC d   1      30.609  55.967 -26.948  0.00  0.00     0.043 C 
ATOM     35  H6  IDC d   1      31.648  55.764 -27.249  0.00  0.00     0.078 H 
ATOM     36  H7  IDC d   1      29.921  55.476 -27.652  0.00  0.00     0.078 H 
BRANCH  34  37
ATOM     37  O6A IDC d   1      30.390  55.439 -25.633  0.00  0.00    -0.398 OA
ATOM     38  H11 IDC d   1      30.548  54.502 -25.639  0.00  0.00     0.209 HD
ENDBRANCH  34  37
ENDBRANCH  23  34
ENDBRANCH  16  17
ENDBRANCH   4  16
BRANCH   3  39
ATOM     39  O3B IDC d   1      25.993  56.791 -25.553  0.00  0.00    -0.390 OA
ATOM     40  H19 IDC d   1      26.565  56.304 -26.134  0.00  0.00     0.210 HD
ENDBRANCH   3  39
BRANCH   5  41
ATOM     41  C6B IDC d   1      26.531  61.061 -28.011  0.00  0.00     0.038 C 
ATOM     42  H16 IDC d   1      27.201  61.406 -27.209  0.00  0.00     0.077 H 
ATOM     43  H17 IDC d   1      25.929  61.907 -28.375  0.00  0.00     0.077 H 
BRANCH  41  44
ATOM     44  O6B IDC d   1      27.319  60.555 -29.088  0.00  0.00    -0.399 OA
ATOM     45  H20 IDC d   1      26.747  60.260 -29.786  0.00  0.00     0.209 HD
ENDBRANCH  41  44
ENDBRANCH   5  41
BRANCH   2  46
ATOM     46  O2B IDC d   1      23.333  56.535 -26.822  0.00  0.00    -0.385 OA
ATOM     47  H18 IDC d   1      22.808  57.170 -26.350  0.00  0.00     0.210 HD
ENDBRANCH   2  46
TORSDOF 11
