REMARK  13 active torsions:
REMARK  status: ('A' for Active; 'I' for Inactive)
REMARK    1  A    between atoms: N4_3  and  C33_4 
REMARK       I    between atoms: N3_7  and  C8_8 
REMARK       I    between atoms: C8_8  and  N1_10 
REMARK    2  A    between atoms: N1_10  and  C9_11 
REMARK    3  A    between atoms: C9_11  and  C10_12 
REMARK    4  A    between atoms: C9_11  and  C17_19 
REMARK    5  A    between atoms: C10_12  and  C11_13 
REMARK       I    between atoms: C17_19  and  N2_21 
REMARK    6  A    between atoms: N2_21  and  C18_22 
REMARK    7  A    between atoms: C18_22  and  C19_23 
REMARK    8  A    between atoms: C18_22  and  C27_31 
REMARK    9  A    between atoms: C19_23  and  C20_24 
REMARK   10  A    between atoms: C20_24  and  C21_25 
REMARK   11  A    between atoms: C27_31  and  C28_32 
REMARK   12  A    between atoms: C28_32  and  S1_33 
REMARK   13  A    between atoms: S1_33  and  CAB_36 
ROOT
ATOM      1  C17 D1R d   1       5.665  -6.756 -22.742  0.00  0.00     0.241 C 
ATOM      2  O3  D1R d   1       5.939  -6.518 -23.920  0.00  0.00    -0.271 OA
ATOM      3  N2  D1R d   1       4.917  -5.966 -21.991  0.00  0.00    -0.355 N 
ATOM      4  H   D1R d   1       4.719  -6.217 -21.023  0.00  0.00     0.162 HD
ENDROOT
BRANCH   3   5
ATOM      5  C18 D1R d   1       4.373  -4.726 -22.557  0.00  0.00     0.013 C 
ATOM      6  H   D1R d   1       4.574  -4.643 -23.625  0.00  0.00     0.072 H 
BRANCH   5   7
ATOM      7  C19 D1R d   1       2.822  -4.729 -22.422  0.00  0.00    -0.043 C 
ATOM      8  H   D1R d   1       2.443  -3.725 -22.612  0.00  0.00     0.036 H 
ATOM      9  H   D1R d   1       2.550  -5.045 -21.415  0.00  0.00     0.036 H 
BRANCH   7  10
ATOM     10  C20 D1R d   1       2.204  -5.710 -23.448  0.00  0.00    -0.039 C 
ATOM     11  H   D1R d   1       2.562  -6.706 -23.187  0.00  0.00     0.040 H 
ATOM     12  H   D1R d   1       2.500  -5.360 -24.437  0.00  0.00     0.040 H 
BRANCH  10  13
ATOM     13  C21 D1R d   1       0.664  -5.773 -23.440  0.00  0.00    -0.058 A 
ATOM     14  C22 D1R d   1      -0.106  -4.667 -23.795  0.00  0.00    -0.077 A 
ATOM     15  C23 D1R d   1      -1.505  -4.761 -23.790  0.00  0.00    -0.082 A 
ATOM     16  H   D1R d   1       0.378  -3.732 -24.076  0.00  0.00     0.084 H 
ATOM     17  C24 D1R d   1      -2.141  -5.959 -23.431  0.00  0.00    -0.083 A 
ATOM     18  H   D1R d   1      -2.105  -3.894 -24.068  0.00  0.00     0.083 H 
ATOM     19  C25 D1R d   1      -1.377  -7.073 -23.084  0.00  0.00    -0.082 A 
ATOM     20  H   D1R d   1      -3.229  -6.019 -23.423  0.00  0.00     0.083 H 
ATOM     21  C26 D1R d   1       0.024  -6.970 -23.098  0.00  0.00    -0.077 A 
ATOM     22  H   D1R d   1      -1.860  -8.010 -22.806  0.00  0.00     0.083 H 
ATOM     23  H   D1R d   1       0.625  -7.841 -22.837  0.00  0.00     0.084 H 
ENDBRANCH  10  13
ENDBRANCH   7  10
ENDBRANCH   5   7
BRANCH   5  24
ATOM     24  C27 D1R d   1       5.074  -3.529 -21.882  0.00  0.00    -0.034 C 
ATOM     25  H   D1R d   1       4.769  -2.601 -22.365  0.00  0.00     0.037 H 
ATOM     26  H   D1R d   1       6.155  -3.632 -21.975  0.00  0.00     0.037 H 
BRANCH  24  27
ATOM     27  C28 D1R d   1       4.678  -3.500 -20.397  0.00  0.00     0.035 C 
ATOM     28  H   D1R d   1       5.603  -3.460 -19.822  0.00  0.00     0.056 H 
ATOM     29  H   D1R d   1       4.067  -4.384 -20.214  0.00  0.00     0.056 H 
BRANCH  27  30
ATOM     30  S1  D1R d   1       3.683  -2.054 -19.903  0.00  0.00     0.175 S 
ATOM     31  O4  D1R d   1       2.539  -1.893 -20.851  0.00  0.00    -0.223 OA
ATOM     32  O5  D1R d   1       4.555  -0.860 -19.950  0.00  0.00    -0.223 OA
BRANCH  30  33
ATOM     33  CAB D1R d   1       3.036  -2.338 -18.285  0.00  0.00     0.059 A 
ATOM     34  CAA D1R d   1       1.846  -1.728 -17.894  0.00  0.00    -0.062 A 
ATOM     35  CAC D1R d   1       1.333  -1.963 -16.614  0.00  0.00    -0.082 A 
ATOM     36  H   D1R d   1       1.317  -1.070 -18.583  0.00  0.00     0.085 H 
ATOM     37  CAE D1R d   1       2.005  -2.808 -15.731  0.00  0.00    -0.083 A 
ATOM     38  H   D1R d   1       0.404  -1.484 -16.305  0.00  0.00     0.083 H 
ATOM     39  CAF D1R d   1       3.189  -3.428 -16.122  0.00  0.00    -0.082 A 
ATOM     40  H   D1R d   1       1.603  -2.983 -14.733  0.00  0.00     0.083 H 
ATOM     41  CAD D1R d   1       3.701  -3.187 -17.399  0.00  0.00    -0.062 A 
ATOM     42  H   D1R d   1       3.712  -4.096 -15.437  0.00  0.00     0.083 H 
ATOM     43  H   D1R d   1       4.630  -3.667 -17.707  0.00  0.00     0.085 H 
ENDBRANCH  30  33
ENDBRANCH  27  30
ENDBRANCH  24  27
ENDBRANCH   5  24
ENDBRANCH   3   5
BRANCH   1  44
ATOM     44  C9  D1R d   1       6.198  -8.004 -22.060  0.00  0.00     0.095 C 
ATOM     45  H   D1R d   1       5.698  -8.257 -21.125  0.00  0.00     0.088 H 
BRANCH  44  46
ATOM     46  N1  D1R d   1       5.980  -9.114 -23.003  0.00  0.00    -0.329 N 
ATOM     47  C8  D1R d   1       4.722  -9.437 -23.341  0.00  0.00     0.319 C 
ATOM     48  N3  D1R d   1       4.457 -10.441 -24.206  0.00  0.00    -0.331 N 
ATOM     49  O2  D1R d   1       3.766  -8.816 -22.866  0.00  0.00    -0.247 OA
ATOM     50  C39 D1R d   1       5.568 -11.235 -24.796  0.00  0.00     0.024 C 
ATOM     51  C48 D1R d   1       3.019 -10.737 -24.520  0.00  0.00     0.024 C 
ATOM     52  C40 D1R d   1       4.996 -12.319 -25.723  0.00  0.00     0.128 C 
ATOM     53  H   D1R d   1       6.218 -10.575 -25.370  0.00  0.00     0.067 H 
ATOM     54  H   D1R d   1       6.138 -11.708 -23.996  0.00  0.00     0.067 H 
ATOM     55  N4  D1R d   1       4.032 -11.635 -26.590  0.00  0.00     0.087 N 
ATOM     56  H   D1R d   1       4.520 -13.117 -25.153  0.00  0.00     0.082 H 
ATOM     57  H   D1R d   1       5.783 -12.798 -26.305  0.00  0.00     0.082 H 
ATOM     58  C49 D1R d   1       2.781 -11.475 -25.846  0.00  0.00     0.128 C 
ATOM     59  H   D1R d   1       2.375 -12.463 -25.628  0.00  0.00     0.082 H 
ATOM     60  H   D1R d   1       2.087 -10.892 -26.451  0.00  0.00     0.082 H 
ATOM     61  H   D1R d   1       2.652 -11.389 -23.727  0.00  0.00     0.067 H 
ATOM     62  H   D1R d   1       2.511  -9.776 -24.600  0.00  0.00     0.067 H 
ATOM     63  H   D1R d   1       6.771  -9.628 -23.392  0.00  0.00     0.165 HD
BRANCH  55  64
ATOM     64  C33 D1R d   1       3.776 -12.375 -27.837  0.00  0.00     0.095 C 
ATOM     65  H   D1R d   1       3.369 -13.357 -27.598  0.00  0.00     0.071 H 
ATOM     66  H   D1R d   1       3.061 -11.822 -28.446  0.00  0.00     0.071 H 
ATOM     67  H   D1R d   1       4.710 -12.492 -28.387  0.00  0.00     0.071 H 
ENDBRANCH  55  64
ENDBRANCH  44  46
BRANCH  44  68
ATOM     68  C10 D1R d   1       7.687  -7.748 -21.709  0.00  0.00    -0.014 C 
ATOM     69  H   D1R d   1       7.680  -7.169 -20.785  0.00  0.00     0.043 H 
ATOM     70  H   D1R d   1       8.122  -7.272 -22.588  0.00  0.00     0.043 H 
BRANCH  68  71
ATOM     71  C11 D1R d   1       8.556  -8.977 -21.425  0.00  0.00    -0.056 A 
ATOM     72  C12 D1R d   1       9.879  -8.975 -21.879  0.00  0.00    -0.077 A 
ATOM     73  C13 D1R d   1      10.705 -10.080 -21.641  0.00  0.00    -0.082 A 
ATOM     74  H   D1R d   1      10.268  -8.112 -22.419  0.00  0.00     0.084 H 
ATOM     75  C14 D1R d   1      10.229 -11.185 -20.922  0.00  0.00    -0.083 A 
ATOM     76  H   D1R d   1      11.728 -10.081 -22.018  0.00  0.00     0.083 H 
ATOM     77  C15 D1R d   1       8.911 -11.188 -20.460  0.00  0.00    -0.082 A 
ATOM     78  H   D1R d   1      10.882 -12.035 -20.725  0.00  0.00     0.083 H 
ATOM     79  C16 D1R d   1       8.077 -10.086 -20.707  0.00  0.00    -0.077 A 
ATOM     80  H   D1R d   1       8.530 -12.047 -19.907  0.00  0.00     0.083 H 
ATOM     81  H   D1R d   1       7.051 -10.091 -20.339  0.00  0.00     0.084 H 
ENDBRANCH  68  71
ENDBRANCH  44  68
ENDBRANCH   1  44
TORSDOF 13
