REMARK  12 active torsions:
REMARK  status: ('A' for Active; 'I' for Inactive)
REMARK    1  A    between atoms: CBF_7  and  CAY_8 
REMARK    2  A    between atoms: CAY_8  and  NBL_9 
REMARK       I    between atoms: NBL_9  and  CBD_10 
REMARK    3  A    between atoms: NBL_9  and  CAZ_15 
REMARK    4  A    between atoms: CBD_10  and  CBC_12 
REMARK    5  A    between atoms: CAZ_15  and  CBG_16 
REMARK    6  A    between atoms: CBJ_20  and  SBM_21 
REMARK    7  A    between atoms: SBM_21  and  NBA_24 
REMARK    8  A    between atoms: NBA_24  and  CAW_25 
REMARK    9  A    between atoms: CAW_25  and  CAX_26 
REMARK   10  A    between atoms: CAX_26  and  CBK_27 
REMARK   11  A    between atoms: CBK_27  and  CBI_28 
REMARK   12  A    between atoms: CBK_27  and  CBH_34 
ROOT
ATOM      1  SBM 7XY d   1       7.420  64.158   3.992  0.00  0.00     0.265 S 
ATOM      2  OAC 7XY d   1       6.755  65.351   4.587  0.00  0.00    -0.200 OA
ATOM      3  OAD 7XY d   1       8.523  64.590   3.080  0.00  0.00    -0.200 OA
ENDROOT
BRANCH   1   4
ATOM      4  CBJ 7XY d   1       8.036  63.195   5.226  0.00  0.00     0.120 A 
ATOM      5  SBB 7XY d   1       7.728  63.448   6.844  0.00  0.00    -0.080 SA
ATOM      6  CBG 7XY d   1       8.609  62.122   7.343  0.00  0.00     0.002 A 
ATOM      7  CAT 7XY d   1       9.126  61.528   6.253  0.00  0.00    -0.067 A 
ATOM      8  CAU 7XY d   1       8.810  62.110   5.078  0.00  0.00    -0.052 A 
ATOM      9  H9  7XY d   1       9.755  60.641   6.314  0.00  0.00     0.085 H 
ATOM     10  H10 7XY d   1       9.148  61.738   4.112  0.00  0.00     0.086 H 
BRANCH   6  11
ATOM     11  CAZ 7XY d   1       8.778  61.727   8.810  0.00  0.00     0.028 C 
ATOM     12  H7  7XY d   1       9.462  60.868   8.874  0.00  0.00     0.072 H 
ATOM     13  H8  7XY d   1       9.204  62.577   9.363  0.00  0.00     0.072 H 
BRANCH  11  14
ATOM     14  NBL 7XY d   1       7.489  61.360   9.414  0.00  0.00    -0.334 N 
ATOM     15  CBD 7XY d   1       6.911  62.132  10.319  0.00  0.00     0.321 C 
ATOM     16  OAB 7XY d   1       5.857  61.814  10.847  0.00  0.00    -0.261 OA
BRANCH  14  17
ATOM     17  CAY 7XY d   1       6.805  60.083   9.033  0.00  0.00     0.022 C 
ATOM     18  H5  7XY d   1       5.909  59.942   9.656  0.00  0.00     0.071 H 
ATOM     19  H6  7XY d   1       6.513  60.121   7.973  0.00  0.00     0.071 H 
BRANCH  17  20
ATOM     20  CBF 7XY d   1       7.779  58.923   9.259  0.00  0.00    -0.039 A 
ATOM     21  CAV 7XY d   1       8.301  58.247   8.154  0.00  0.00    -0.054 A 
ATOM     22  CBE 7XY d   1       9.207  57.208   8.352  0.00  0.00     0.034 A 
ATOM     23  H1  7XY d   1       8.003  58.529   7.150  0.00  0.00     0.086 H 
ATOM     24 CLF  7XY d   1       9.849  56.417   6.955  0.00  0.00    -0.084 Cl
ATOM     25  CAN 7XY d   1       9.580  56.820   9.637  0.00  0.00    -0.062 A 
ATOM     26  CAM 7XY d   1       9.043  57.487  10.739  0.00  0.00    -0.081 A 
ATOM     27  H2  7XY d   1      10.282  56.006   9.780  0.00  0.00     0.086 H 
ATOM     28  CAO 7XY d   1       8.140  58.539  10.545  0.00  0.00    -0.075 A 
ATOM     29  H3  7XY d   1       9.325  57.191  11.743  0.00  0.00     0.083 H 
ATOM     30  H4  7XY d   1       7.721  59.056  11.401  0.00  0.00     0.084 H 
ENDBRANCH  17  20
ENDBRANCH  14  17
BRANCH  15  31
ATOM     31  CBC 7XY d   1       7.488  63.497  10.654  0.00  0.00     0.270 C 
ATOM     32  OAE 7XY d   1       7.911  63.652  11.816  0.00  0.00    -0.640 OA
ATOM     33  OAA 7XY d   1       7.371  64.404   9.792  0.00  0.00    -0.640 OA
ENDBRANCH  15  31
ENDBRANCH  11  14
ENDBRANCH   6  11
ENDBRANCH   1   4
BRANCH   1  34
ATOM     34  NBA 7XY d   1       6.265  63.338   3.152  0.00  0.00    -0.315 N 
ATOM     35  H11 7XY d   1       6.279  63.124   2.175  0.00  0.00     0.172 HD
BRANCH  34  36
ATOM     36  CAW 7XY d   1       5.203  62.977   4.118  0.00  0.00     0.004 C 
ATOM     37  H12 7XY d   1       4.883  63.884   4.651  0.00  0.00     0.065 H 
ATOM     38  H13 7XY d   1       5.609  62.252   4.839  0.00  0.00     0.065 H 
BRANCH  36  39
ATOM     39  CAX 7XY d   1       3.982  62.354   3.418  0.00  0.00    -0.039 C 
ATOM     40  H14 7XY d   1       3.800  62.890   2.475  0.00  0.00     0.036 H 
ATOM     41  H15 7XY d   1       3.105  62.457   4.074  0.00  0.00     0.036 H 
BRANCH  39  42
ATOM     42  CBK 7XY d   1       4.200  60.876   3.112  0.00  0.00    -0.002 C 
ATOM     43  H16 7XY d   1       5.126  60.842   2.519  0.00  0.00     0.054 H 
BRANCH  42  44
ATOM     44  CBI 7XY d   1       4.465  59.999   4.340  0.00  0.00    -0.050 A 
ATOM     45  CAR 7XY d   1       3.600  59.947   5.433  0.00  0.00    -0.076 A 
ATOM     46  CAK 7XY d   1       3.921  59.103   6.500  0.00  0.00    -0.082 A 
ATOM     47  H17 7XY d   1       2.698  60.548   5.455  0.00  0.00     0.084 H 
ATOM     48  CAH 7XY d   1       5.077  58.315   6.460  0.00  0.00    -0.083 A 
ATOM     49  H18 7XY d   1       3.269  59.058   7.365  0.00  0.00     0.083 H 
ATOM     50  CAL 7XY d   1       5.916  58.366   5.363  0.00  0.00    -0.082 A 
ATOM     51  H19 7XY d   1       5.315  57.663   7.292  0.00  0.00     0.083 H 
ATOM     52  CAS 7XY d   1       5.613  59.213   4.303  0.00  0.00    -0.076 A 
ATOM     53  H20 7XY d   1       6.806  57.748   5.329  0.00  0.00     0.083 H 
ATOM     54  H21 7XY d   1       6.273  59.261   3.445  0.00  0.00     0.084 H 
ENDBRANCH  42  44
BRANCH  42  55
ATOM     55  CBH 7XY d   1       3.097  60.249   2.211  0.00  0.00    -0.050 A 
ATOM     56  CAP 7XY d   1       1.786  60.715   2.174  0.00  0.00    -0.076 A 
ATOM     57  CAI 7XY d   1       0.872  60.126   1.293  0.00  0.00    -0.082 A 
ATOM     58  H22 7XY d   1       1.476  61.527   2.822  0.00  0.00     0.084 H 
ATOM     59  CAG 7XY d   1       1.270  59.070   0.463  0.00  0.00    -0.083 A 
ATOM     60  H23 7XY d   1      -0.149  60.489   1.253  0.00  0.00     0.083 H 
ATOM     61  CAJ 7XY d   1       2.587  58.605   0.498  0.00  0.00    -0.082 A 
ATOM     62  H24 7XY d   1       0.553  58.612  -0.209  0.00  0.00     0.083 H 
ATOM     63  CAQ 7XY d   1       3.489  59.197   1.376  0.00  0.00    -0.076 A 
ATOM     64  H25 7XY d   1       2.901  57.795  -0.150  0.00  0.00     0.083 H 
ATOM     65  H26 7XY d   1       4.511  58.838   1.414  0.00  0.00     0.084 H 
ENDBRANCH  42  55
ENDBRANCH  39  42
ENDBRANCH  36  39
ENDBRANCH  34  36
ENDBRANCH   1  34
TORSDOF 12
