REMARK  3 active torsions:
REMARK  status: ('A' for Active; 'I' for Inactive)
REMARK    1  A    between atoms: C2'_10  and  O2'_11 
REMARK    2  A    between atoms: C1'_12  and  N9_13 
REMARK    3  A    between atoms: C6_17  and  N6_18 
ROOT
ATOM      1  P   CMP d   1     -18.587  37.041  18.414  0.00  0.00     0.408 P 
ATOM      2  O1P CMP d   1     -19.279  36.525  19.664  0.00  0.00    -0.624 OA
ATOM      3  O2P CMP d   1     -17.172  37.438  18.767  0.00  0.00    -0.624 OA
ATOM      4  O5' CMP d   1     -18.602  35.931  17.376  0.00  0.00    -0.287 OA
ATOM      5  C5' CMP d   1     -19.869  35.445  16.865  0.00  0.00     0.058 C 
ATOM      6  C4' CMP d   1     -20.332  36.678  16.075  0.00  0.00     0.090 C 
ATOM      7  O4' CMP d   1     -21.599  36.545  15.432  0.00  0.00    -0.353 OA
ATOM      8  C3' CMP d   1     -20.485  37.842  17.055  0.00  0.00     0.106 C 
ATOM      9  O3' CMP d   1     -19.252  38.187  17.680  0.00  0.00    -0.279 OA
ATOM     10  C2' CMP d   1     -21.346  38.774  16.233  0.00  0.00     0.106 C 
ATOM     11  C1' CMP d   1     -22.382  37.606  15.978  0.00  0.00     0.140 C 
ATOM     12  H   CMP d   1     -20.567  35.116  17.634  0.00  0.00     0.079 H 
ATOM     13  H   CMP d   1     -19.794  34.533  16.272  0.00  0.00     0.079 H 
ATOM     14  H   CMP d   1     -19.578  36.826  15.302  0.00  0.00     0.090 H 
ATOM     15  H   CMP d   1     -20.993  37.717  18.011  0.00  0.00     0.092 H 
ATOM     16  H   CMP d   1     -21.753  39.709  16.618  0.00  0.00     0.093 H 
ATOM     17  H   CMP d   1     -23.342  37.251  15.604  0.00  0.00     0.122 H 
ENDROOT
BRANCH  11  18
ATOM     18  N9  CMP d   1     -23.825  37.763  16.475  0.00  0.00    -0.294 N 
ATOM     19  C8  CMP d   1     -24.813  37.891  15.470  0.00  0.00     0.071 A 
ATOM     20  N7  CMP d   1     -26.046  38.010  15.891  0.00  0.00    -0.236 NA
ATOM     21  H   CMP d   1     -24.562  37.891  14.409  0.00  0.00     0.144 H 
ATOM     22  C5  CMP d   1     -25.843  37.959  17.264  0.00  0.00     0.149 A 
ATOM     23  C6  CMP d   1     -26.674  38.019  18.416  0.00  0.00     0.155 A 
ATOM     24  C4  CMP d   1     -24.536  37.816  17.637  0.00  0.00     0.167 A 
ATOM     25  N1  CMP d   1     -26.018  37.923  19.651  0.00  0.00    -0.222 NA
ATOM     26  C2  CMP d   1     -24.685  37.781  19.867  0.00  0.00     0.091 A 
ATOM     27  N3  CMP d   1     -23.859  37.719  18.811  0.00  0.00    -0.222 NA
ATOM     28  H   CMP d   1     -24.292  37.718  20.882  0.00  0.00     0.146 H 
BRANCH  23  29
ATOM     29  N6  CMP d   1     -27.987  38.150  18.343  0.00  0.00    -0.382 N 
ATOM     30  H   CMP d   1     -28.444  38.212  17.433  0.00  0.00     0.157 HD
ATOM     31  H   CMP d   1     -28.544  38.189  19.197  0.00  0.00     0.157 HD
ENDBRANCH  23  29
ENDBRANCH  11  18
BRANCH  10  32
ATOM     32  O2' CMP d   1     -20.690  39.442  15.190  0.00  0.00    -0.388 OA
ATOM     33  H   CMP d   1     -21.315  40.006  14.729  0.00  0.00     0.210 HD
ENDBRANCH  10  32
TORSDOF 3
