REMARK  7 active torsions:
REMARK  status: ('A' for Active; 'I' for Inactive)
REMARK    1  A    between atoms: C10_9  and  C19_13 
REMARK    2  A    between atoms: C13_11  and  C18_19 
REMARK    3  A    between atoms: C17_22  and  C20_23 
REMARK    4  A    between atoms: C17_22  and  O17_26 
REMARK    5  A    between atoms: C20_23  and  C21_24 
REMARK    6  A    between atoms: O17_26  and  C23_27 
REMARK    7  A    between atoms: C23_27  and  C24_28 
ROOT
ATOM      1  C4  CA4 d   1      25.371   5.486   4.360  0.00  0.00    -0.030 C 
ATOM      2  C14 CA4 d   1      27.799   0.420   3.910  0.00  0.00    -0.037 C 
ATOM      3  C5  CA4 d   1      26.023   4.260   4.434  0.00  0.00    -0.024 C 
ATOM      4  C6  CA4 d   1      25.261   3.108   4.611  0.00  0.00     0.037 C 
ATOM      5  C11 CA4 d   1      29.541   2.744   3.959  0.00  0.00    -0.059 C 
ATOM      6  C7  CA4 d   1      25.856   1.854   4.724  0.00  0.00    -0.077 C 
ATOM      7  C8  CA4 d   1      27.376   1.680   4.668  0.00  0.00    -0.027 C 
ATOM      8  C9  CA4 d   1      28.015   2.879   3.964  0.00  0.00    -0.036 C 
ATOM      9  C10 CA4 d   1      27.541   4.174   4.623  0.00  0.00    -0.006 C 
ATOM     10  C12 CA4 d   1      29.971   1.462   3.238  0.00  0.00    -0.054 C 
ATOM     11  C13 CA4 d   1      29.316   0.257   3.915  0.00  0.00    -0.001 C 
ATOM     12  C3  CA4 d   1      26.048   6.680   4.138  0.00  0.00     0.154 C 
ATOM     13  C1  CA4 d   1      28.314   5.373   4.065  0.00  0.00    -0.032 A 
ATOM     14  C22 CA4 d   1      27.961   5.895   2.673  0.00  0.00    -0.050 A 
ATOM     15  C2  CA4 d   1      27.561   6.696   3.916  0.00  0.00     0.013 A 
ATOM     16  O3  CA4 d   1      25.429   7.743   4.138  0.00  0.00    -0.293 OA
ATOM     17 CL6  CA4 d   1      23.541   3.246   4.744  0.00  0.00    -0.084 Cl
ATOM     18  C15 CA4 d   1      27.350  -0.924   4.487  0.00  0.00    -0.057 C 
ATOM     19  C16 CA4 d   1      28.353  -1.911   3.873  0.00  0.00    -0.028 C 
ATOM     20  C17 CA4 d   1      29.394  -1.058   3.138  0.00  0.00     0.138 C 
ATOM     21  H1  CA4 d   1      24.289   5.512   4.481  0.00  0.00     0.090 H 
ATOM     22  H2  CA4 d   1      27.425   0.515   2.880  0.00  0.00     0.042 H 
ATOM     23  H3  CA4 d   1      29.904   2.713   4.997  0.00  0.00     0.033 H 
ATOM     24  H4  CA4 d   1      29.978   3.612   3.443  0.00  0.00     0.033 H 
ATOM     25  H5  CA4 d   1      25.225   0.976   4.855  0.00  0.00     0.080 H 
ATOM     26  H6  CA4 d   1      27.755   1.618   5.699  0.00  0.00     0.047 H 
ATOM     27  H7  CA4 d   1      27.675   2.888   2.918  0.00  0.00     0.042 H 
ATOM     28  H8  CA4 d   1      31.065   1.362   3.288  0.00  0.00     0.034 H 
ATOM     29  H9  CA4 d   1      29.655   1.509   2.185  0.00  0.00     0.034 H 
ATOM     30  H13 CA4 d   1      29.359   5.351   4.407  0.00  0.00     0.043 H 
ATOM     31  H14 CA4 d   1      27.190   5.387   2.074  0.00  0.00     0.034 H 
ATOM     32  H15 CA4 d   1      28.754   6.270   2.009  0.00  0.00     0.034 H 
ATOM     33  H16 CA4 d   1      28.020   7.656   4.195  0.00  0.00     0.052 H 
ATOM     34  H20 CA4 d   1      26.321  -1.163   4.180  0.00  0.00     0.033 H 
ATOM     35  H21 CA4 d   1      27.415  -0.925   5.585  0.00  0.00     0.033 H 
ATOM     36  H22 CA4 d   1      27.843  -2.583   3.167  0.00  0.00     0.038 H 
ATOM     37  H23 CA4 d   1      28.836  -2.506   4.663  0.00  0.00     0.038 H 
ENDROOT
BRANCH  20  38
ATOM     38  C20 CA4 d   1      30.795  -1.672   3.196  0.00  0.00     0.158 C 
ATOM     39  O20 CA4 d   1      31.647  -1.352   2.368  0.00  0.00    -0.295 OA
BRANCH  38  40
ATOM     40  C21 CA4 d   1      31.121  -2.711   4.270  0.00  0.00    -0.018 C 
ATOM     41  H24 CA4 d   1      32.165  -3.038   4.159  0.00  0.00     0.037 H 
ATOM     42  H25 CA4 d   1      30.452  -3.577   4.158  0.00  0.00     0.037 H 
ATOM     43  H26 CA4 d   1      30.980  -2.265   5.266  0.00  0.00     0.037 H 
ENDBRANCH  38  40
ENDBRANCH  20  38
BRANCH  20  44
ATOM     44  O17 CA4 d   1      28.972  -0.810   1.792  0.00  0.00    -0.302 OA
BRANCH  44  45
ATOM     45  C23 CA4 d   1      29.016  -1.912   0.993  0.00  0.00     0.256 C 
ATOM     46  O23 CA4 d   1      29.370  -3.004   1.437  0.00  0.00    -0.266 OA
BRANCH  45  47
ATOM     47  C24 CA4 d   1      28.638  -1.770  -0.482  0.00  0.00     0.004 C 
ATOM     48  H27 CA4 d   1      28.727  -2.747  -0.979  0.00  0.00     0.041 H 
ATOM     49  H28 CA4 d   1      29.314  -1.050  -0.966  0.00  0.00     0.041 H 
ATOM     50  H29 CA4 d   1      27.601  -1.411  -0.562  0.00  0.00     0.041 H 
ENDBRANCH  45  47
ENDBRANCH  44  45
ENDBRANCH  20  44
BRANCH  11  51
ATOM     51  C18 CA4 d   1      29.846   0.105   5.343  0.00  0.00    -0.065 C 
ATOM     52  H17 CA4 d   1      29.773   1.070   5.866  0.00  0.00     0.028 H 
ATOM     53  H18 CA4 d   1      30.898  -0.216   5.312  0.00  0.00     0.028 H 
ATOM     54  H19 CA4 d   1      29.249  -0.648   5.878  0.00  0.00     0.028 H 
ENDBRANCH  11  51
BRANCH   9  55
ATOM     55  C19 CA4 d   1      27.783   4.128   6.134  0.00  0.00    -0.064 C 
ATOM     56  H10 CA4 d   1      27.436   5.067   6.590  0.00  0.00     0.028 H 
ATOM     57  H11 CA4 d   1      28.858   4.001   6.330  0.00  0.00     0.028 H 
ATOM     58  H12 CA4 d   1      27.229   3.283   6.569  0.00  0.00     0.028 H 
ENDBRANCH   9  55
TORSDOF 7
