REMARK  7 active torsions:
REMARK  status: ('A' for Active; 'I' for Inactive)
REMARK    1  A    between atoms: N1_1  and  C25_23 
REMARK    2  A    between atoms: C4_2  and  C21_12 
REMARK    3  A    between atoms: N6_19  and  C4_2 
REMARK    4  A    between atoms: C7_5  and  C8_6 
REMARK    5  A    between atoms: C10_7  and  C24_14 
REMARK    6  A    between atoms: C11_27  and  C20_11 
REMARK    7  A    between atoms: C26_15  and  C11_27 
ROOT
ATOM      1  N1  GG1 d   1       6.116  33.545   4.575  0.00  0.00    -0.303 N 
ATOM      2  C5  GG1 d   1       7.795  34.597   6.492  0.00  0.00     0.264 A 
ATOM      3  C6  GG1 d   1       8.964  34.562   2.483  0.00  0.00    -0.063 A 
ATOM      4  C8  GG1 d   1       9.819  35.095   3.456  0.00  0.00     0.018 A 
ATOM      5  C22 GG1 d   1       8.182  34.587   5.156  0.00  0.00     0.061 A 
ATOM      6  N6  GG1 d   1       6.598  34.088   6.829  0.00  0.00    -0.261 N 
ATOM      7  O2  GG1 d   1       8.542  35.073   7.383  0.00  0.00    -0.267 OA
ATOM      8  C3  GG1 d   1       7.316  34.046   4.189  0.00  0.00     0.054 A 
ATOM      9  C2  GG1 d   1       7.720  34.035   2.850  0.00  0.00    -0.054 A 
ATOM     10  C1  GG1 d   1       5.771  33.572   5.884  0.00  0.00     0.332 A 
ATOM     11  O1  GG1 d   1       4.660  33.101   6.228  0.00  0.00    -0.246 OA
ATOM     12  C23 GG1 d   1       9.431  35.098   4.789  0.00  0.00    -0.047 A 
ATOM     13  H3  GG1 d   1       9.267  34.557   1.442  0.00  0.00     0.085 H 
ATOM     14  H8  GG1 d   1       7.067  33.617   2.093  0.00  0.00     0.087 H 
ATOM     15  H12 GG1 d   1      10.097  35.497   5.546  0.00  0.00     0.087 H 
ENDROOT
BRANCH   4  16
ATOM     16  C7  GG1 d   1      10.969  35.566   3.106  0.00  0.00    -0.067 C 
ATOM     17  C26 GG1 d   1      12.011  35.983   2.728  0.00  0.00    -0.097 C 
BRANCH  17  18
ATOM     18  C11 GG1 d   1      13.295  36.494   2.215  0.00  0.00     0.015 C 
ATOM     19  H13 GG1 d   1      13.290  36.428   1.117  0.00  0.00     0.059 H 
ATOM     20  H14 GG1 d   1      13.405  37.545   2.519  0.00  0.00     0.059 H 
BRANCH  18  21
ATOM     21  C20 GG1 d   1      14.483  35.701   2.749  0.00  0.00    -0.047 A 
ATOM     22  C16 GG1 d   1      15.749  35.891   2.186  0.00  0.00    -0.076 A 
ATOM     23  C18 GG1 d   1      16.856  35.194   2.663  0.00  0.00    -0.082 A 
ATOM     24  H15 GG1 d   1      15.870  36.591   1.367  0.00  0.00     0.084 H 
ATOM     25  C9  GG1 d   1      16.702  34.293   3.718  0.00  0.00    -0.083 A 
ATOM     26  H16 GG1 d   1      17.832  35.350   2.218  0.00  0.00     0.083 H 
ATOM     27  C12 GG1 d   1      15.440  34.094   4.291  0.00  0.00    -0.082 A 
ATOM     28  H19 GG1 d   1      17.560  33.747   4.094  0.00  0.00     0.083 H 
ATOM     29  C14 GG1 d   1      14.338  34.800   3.806  0.00  0.00    -0.076 A 
ATOM     30  H18 GG1 d   1      15.319  33.393   5.109  0.00  0.00     0.083 H 
ATOM     31  H17 GG1 d   1      13.362  34.648   4.253  0.00  0.00     0.084 H 
ENDBRANCH  18  21
ENDBRANCH  17  18
ENDBRANCH   4  16
BRANCH   1  32
ATOM     32  C25 GG1 d   1       5.156  32.963   3.632  0.00  0.00    -0.009 C 
ATOM     33  H9  GG1 d   1       5.569  33.009   2.613  0.00  0.00     0.057 H 
ATOM     34  H10 GG1 d   1       4.214  33.529   3.672  0.00  0.00     0.057 H 
ATOM     35  H11 GG1 d   1       4.965  31.914   3.903  0.00  0.00     0.057 H 
ENDBRANCH   1  32
BRANCH   6  36
ATOM     36  C4  GG1 d   1       6.186  34.096   8.237  0.00  0.00     0.031 C 
ATOM     37  H1  GG1 d   1       6.619  34.981   8.727  0.00  0.00     0.072 H 
ATOM     38  H2  GG1 d   1       5.088  34.151   8.284  0.00  0.00     0.072 H 
BRANCH  36  39
ATOM     39  C21 GG1 d   1       6.646  32.848   8.984  0.00  0.00    -0.040 A 
ATOM     40  C15 GG1 d   1       5.852  31.696   9.015  0.00  0.00    -0.074 A 
ATOM     41  C13 GG1 d   1       6.283  30.570   9.715  0.00  0.00    -0.066 A 
ATOM     42  H5  GG1 d   1       4.901  31.679   8.494  0.00  0.00     0.084 H 
ATOM     43  C10 GG1 d   1       7.512  30.589  10.394  0.00  0.00     0.040 A 
ATOM     44  H4  GG1 d   1       5.668  29.678   9.735  0.00  0.00     0.085 H 
ATOM     45  C19 GG1 d   1       8.301  31.741  10.362  0.00  0.00    -0.066 A 
ATOM     46  C17 GG1 d   1       7.868  32.864   9.663  0.00  0.00    -0.074 A 
ATOM     47  H7  GG1 d   1       9.252  31.761  10.882  0.00  0.00     0.085 H 
ATOM     48  H6  GG1 d   1       8.482  33.757   9.645  0.00  0.00     0.084 H 
BRANCH  43  49
ATOM     49  C24 GG1 d   1       7.987  29.391  11.177  0.00  0.00     0.209 C 
ATOM     50  O6  GG1 d   1       7.480  28.292  11.040  0.00  0.00    -0.644 OA
ATOM     51  O5  GG1 d   1       8.937  29.524  12.091  0.00  0.00    -0.644 OA
ENDBRANCH  43  49
ENDBRANCH  36  39
ENDBRANCH   6  36
TORSDOF 7
