REMARK  9 active torsions:
REMARK  status: ('A' for Active; 'I' for Inactive)
REMARK    1  A    between atoms: C1_1  and  O1_7 
REMARK    2  A    between atoms: C2_2  and  O2_8 
REMARK    3  A    between atoms: C3_3  and  O3_9 
REMARK    4  A    between atoms: C4_4  and  O4_10 
REMARK    5  A    between atoms: C5_5  and  O5_11 
REMARK    6  A    between atoms: C6_6  and  O6_12 
REMARK    7  A    between atoms: O1_7  and  P1_13 
REMARK    8  A    between atoms: O4_10  and  P4_17 
REMARK    9  A    between atoms: O5_11  and  P5_21 
ROOT
ATOM      1  C1  I3P d   1      -9.073 -16.655  -0.578  0.00  0.00     0.106 C 
ATOM      2  C2  I3P d   1      -8.713 -16.634  -2.040  0.00  0.00     0.090 C 
ATOM      3  C3  I3P d   1      -7.213 -16.826  -2.207  0.00  0.00     0.091 C 
ATOM      4  C4  I3P d   1      -6.807 -18.164  -1.516  0.00  0.00     0.106 C 
ATOM      5  C5  I3P d   1      -7.231 -18.205  -0.053  0.00  0.00     0.106 C 
ATOM      6  C6  I3P d   1      -8.753 -17.990   0.130  0.00  0.00     0.091 C 
ATOM      7  H1  I3P d   1      -8.509 -15.867  -0.057  0.00  0.00     0.092 H 
ATOM      8  H2  I3P d   1      -8.989 -15.656  -2.461  0.00  0.00     0.091 H 
ATOM      9  H3  I3P d   1      -6.666 -15.981  -1.764  0.00  0.00     0.091 H 
ATOM     10  H4  I3P d   1      -7.304 -18.992  -2.042  0.00  0.00     0.092 H 
ATOM     11  H5  I3P d   1      -6.706 -17.392   0.470  0.00  0.00     0.092 H 
ATOM     12  H6  I3P d   1      -9.347 -18.831  -0.257  0.00  0.00     0.091 H 
ENDROOT
BRANCH   1  13
ATOM     13  O1  I3P d   1     -10.451 -16.327  -0.567  0.00  0.00    -0.272 OA
BRANCH  13  14
ATOM     14  P1  I3P d   1     -10.950 -14.855  -0.150  0.00  0.00     0.422 P 
ATOM     15  O11 I3P d   1     -10.410 -14.433   1.160  0.00  0.00    -0.617 OA
ATOM     16  O12 I3P d   1     -12.477 -15.082   0.003  0.00  0.00    -0.617 OA
ATOM     17  O13 I3P d   1     -10.615 -14.091  -1.403  0.00  0.00    -0.617 OA
ENDBRANCH  13  14
ENDBRANCH   1  13
BRANCH   2  18
ATOM     18  O2  I3P d   1      -9.458 -17.661  -2.734  0.00  0.00    -0.390 OA
ATOM     19  H7  I3P d   1     -10.388 -17.514  -2.611  0.00  0.00     0.210 HD
ENDBRANCH   2  18
BRANCH   6  20
ATOM     20  O6  I3P d   1      -8.978 -17.755   1.509  0.00  0.00    -0.390 OA
ATOM     21  H9  I3P d   1      -8.683 -18.507   2.009  0.00  0.00     0.210 HD
ENDBRANCH   6  20
BRANCH   3  22
ATOM     22  O3  I3P d   1      -6.917 -16.939  -3.607  0.00  0.00    -0.390 OA
ATOM     23  H8  I3P d   1      -5.987 -17.098  -3.721  0.00  0.00     0.210 HD
ENDBRANCH   3  22
BRANCH   5  24
ATOM     24  O5  I3P d   1      -6.864 -19.435   0.549  0.00  0.00    -0.272 OA
BRANCH  24  25
ATOM     25  P5  I3P d   1      -6.213 -19.569   2.003  0.00  0.00     0.422 P 
ATOM     26  O51 I3P d   1      -6.190 -21.069   2.161  0.00  0.00    -0.617 OA
ATOM     27  O52 I3P d   1      -7.092 -18.859   2.983  0.00  0.00    -0.617 OA
ATOM     28  O53 I3P d   1      -4.866 -18.900   1.917  0.00  0.00    -0.617 OA
ENDBRANCH  24  25
ENDBRANCH   5  24
BRANCH   4  29
ATOM     29  O4  I3P d   1      -5.361 -18.337  -1.624  0.00  0.00    -0.272 OA
BRANCH  29  30
ATOM     30  P4  I3P d   1      -4.601 -19.152  -2.768  0.00  0.00     0.422 P 
ATOM     31  O41 I3P d   1      -4.883 -20.617  -2.671  0.00  0.00    -0.617 OA
ATOM     32  O42 I3P d   1      -5.041 -18.630  -4.103  0.00  0.00    -0.617 OA
ATOM     33  O43 I3P d   1      -3.161 -18.810  -2.450  0.00  0.00    -0.617 OA
ENDBRANCH  29  30
ENDBRANCH   4  29
TORSDOF 9
