REMARK  11 active torsions:
REMARK  status: ('A' for Active; 'I' for Inactive)
REMARK    1  A    between atoms: O3B_8  and  PG_1 
REMARK    2  A    between atoms: PB_5  and  O3B_8 
REMARK    3  A    between atoms: O3A_12  and  PB_5 
REMARK    4  A    between atoms: PA_9  and  O3A_12 
REMARK    5  A    between atoms: PA_9  and  O5'_13 
REMARK    6  A    between atoms: O5'_13  and  C5'_14 
REMARK    7  A    between atoms: C5'_14  and  C4'_15 
REMARK    8  A    between atoms: C3'_17  and  O3'_18 
REMARK    9  A    between atoms: C2'_19  and  O2'_20 
REMARK   10  A    between atoms: C1'_21  and  N9_22 
REMARK   11  A    between atoms: C6_26  and  N6_27 
ROOT
ATOM      1  C4' ATP d   1       2.669  -4.027   5.972  0.00  0.00     0.089 C 
ATOM      2  O4' ATP d   1       2.147  -5.256   5.402  0.00  0.00    -0.353 OA
ATOM      3  C3' ATP d   1       3.681  -3.482   4.959  0.00  0.00     0.091 C 
ATOM      4  C2' ATP d   1       3.181  -4.000   3.606  0.00  0.00     0.105 C 
ATOM      5  C1' ATP d   1       2.190  -5.136   3.946  0.00  0.00     0.139 C 
ATOM      6  H3  ATP d   1       3.180  -4.247   6.921  0.00  0.00     0.090 H 
ATOM      7  H4  ATP d   1       3.673  -2.382   4.966  0.00  0.00     0.091 H 
ATOM      8  H6  ATP d   1       2.655  -3.198   3.067  0.00  0.00     0.093 H 
ATOM      9  H8  ATP d   1       2.538  -6.081   3.503  0.00  0.00     0.122 H 
ENDROOT
BRANCH   1  10
ATOM     10  C5' ATP d   1       1.546  -3.022   6.244  0.00  0.00     0.058 C 
ATOM     11  H1  ATP d   1       1.949  -2.000   6.195  0.00  0.00     0.079 H 
ATOM     12  H2  ATP d   1       0.756  -3.142   5.488  0.00  0.00     0.079 H 
BRANCH  10  13
ATOM     13  O5' ATP d   1       1.001  -3.257   7.544  0.00  0.00    -0.287 OA
BRANCH  13  14
ATOM     14  PA  ATP d   1       0.945  -1.834   8.300  0.00  0.00     0.417 P 
ATOM     15  O1A ATP d   1       2.292  -1.498   8.812  0.00  0.00    -0.624 OA
ATOM     16  O2A ATP d   1       0.467  -0.693   7.264  0.00  0.00    -0.624 OA
BRANCH  14  17
ATOM     17  O3A ATP d   1      -0.096  -1.926   9.524  0.00  0.00    -0.180 OA
BRANCH  17  18
ATOM     18  PB  ATP d   1       0.171  -0.646  10.463  0.00  0.00     0.428 P 
ATOM     19  O1B ATP d   1      -0.780  -0.664  11.598  0.00  0.00    -0.624 OA
ATOM     20  O2B ATP d   1      -0.049   0.697   9.602  0.00  0.00    -0.624 OA
BRANCH  18  21
ATOM     21  O3B ATP d   1       1.682  -0.698  11.017  0.00  0.00    -0.173 OA
BRANCH  21  22
ATOM     22  PG  ATP d   1       1.676   0.020  12.461  0.00  0.00     0.431 P 
ATOM     23  O1G ATP d   1       0.867  -0.785  13.404  0.00  0.00    -0.616 OA
ATOM     24  O2G ATP d   1       3.187   0.124  13.009  0.00  0.00    -0.616 OA
ATOM     25  O3G ATP d   1       1.046   1.493  12.321  0.00  0.00    -0.616 OA
ENDBRANCH  21  22
ENDBRANCH  18  21
ENDBRANCH  17  18
ENDBRANCH  14  17
ENDBRANCH  13  14
ENDBRANCH  10  13
ENDBRANCH   1  10
BRANCH   3  26
ATOM     26  O3' ATP d   1       5.005  -3.933   5.264  0.00  0.00    -0.390 OA
ATOM     27  H5  ATP d   1       5.613  -3.583   4.624  0.00  0.00     0.210 HD
ENDBRANCH   3  26
BRANCH   5  28
ATOM     28  N9  ATP d   1       0.856  -4.819   3.424  0.00  0.00    -0.294 N 
ATOM     29  C8  ATP d   1      -0.254  -4.537   4.170  0.00  0.00     0.071 C 
ATOM     30  N7  ATP d   1      -1.233  -4.172   3.394  0.00  0.00    -0.236 NA
ATOM     31  H9  ATP d   1      -0.311  -4.607   5.255  0.00  0.00     0.144 H 
ATOM     32  C5  ATP d   1      -0.872  -4.370   2.107  0.00  0.00     0.149 C 
ATOM     33  C6  ATP d   1      -1.518  -4.278   0.848  0.00  0.00     0.155 C 
ATOM     34  C4  ATP d   1       0.492  -4.758   2.102  0.00  0.00     0.167 C 
ATOM     35  N1  ATP d   1      -0.780  -4.422  -0.283  0.00  0.00    -0.222 NA
ATOM     36  C2  ATP d   1       0.493  -4.837  -0.247  0.00  0.00     0.091 C 
ATOM     37  N3  ATP d   1       1.123  -4.985   0.920  0.00  0.00    -0.222 NA
ATOM     38  H12 ATP d   1       1.015  -5.054  -1.172  0.00  0.00     0.146 H 
BRANCH  33  39
ATOM     39  N6  ATP d   1      -2.879  -4.044   0.775  0.00  0.00    -0.382 N 
ATOM     40  H10 ATP d   1      -3.342  -3.978  -0.143  0.00  0.00     0.157 HD
ATOM     41  H11 ATP d   1      -3.430  -3.935   1.639  0.00  0.00     0.157 HD
ENDBRANCH  33  39
ENDBRANCH   5  28
BRANCH   4  42
ATOM     42  O2' ATP d   1       4.271  -4.454   2.798  0.00  0.00    -0.388 OA
ATOM     43  H7  ATP d   1       4.873  -3.735   2.647  0.00  0.00     0.210 HD
ENDBRANCH   4  42
TORSDOF 11
