REMARK  12 active torsions:
REMARK  status: ('A' for Active; 'I' for Inactive)
REMARK    1  A    between atoms: C2_1  and  C7_3 
REMARK    2  A    between atoms: C2_1  and  N13_14 
REMARK    3  A    between atoms: N13_14  and  C6_2 
REMARK    4  A    between atoms: C6_2  and  C22_16 
REMARK    5  A    between atoms: C7_3  and  C8_4 
REMARK    6  A    between atoms: C8_4  and  P14_6 
REMARK    7  A    between atoms: C8_4  and  P9_9 
REMARK    8  A    between atoms: C8_4  and  O13_13 
REMARK    9  A    between atoms: N13_14  and  C21_15 
REMARK   10  A    between atoms: C22_16  and  C26_17 
REMARK   11  A    between atoms: C26_17  and  C27_18 
REMARK   12  A    between atoms: C27_18  and  C28_19 
ROOT
ATOM      1  C6  GG3 d   1      71.447  37.787  -1.277  0.00  0.00     0.083 C 
ATOM      2  H3  GG3 d   1      71.023  36.823  -1.596  0.00  0.00     0.075 H 
ATOM      3  H4  GG3 d   1      72.513  37.827  -1.547  0.00  0.00     0.075 H 
ENDROOT
BRANCH   1   4
ATOM      4  N13 GG3 d   1      71.371  37.826   0.219  0.00  0.00    -0.075 N 
ATOM      5  H8  GG3 d   1      72.252  37.494   0.579  0.00  0.00     0.279 HD
BRANCH   4   6
ATOM      6  C2  GG3 d   1      70.299  36.917   0.693  0.00  0.00     0.087 C 
ATOM      7  H1  GG3 d   1      69.544  37.512   1.227  0.00  0.00     0.076 H 
ATOM      8  H2  GG3 d   1      69.835  36.435  -0.180  0.00  0.00     0.076 H 
BRANCH   6   9
ATOM      9  C7  GG3 d   1      70.828  35.809   1.651  0.00  0.00     0.012 C 
ATOM     10  H5  GG3 d   1      69.998  35.401   2.247  0.00  0.00     0.042 H 
ATOM     11  H6  GG3 d   1      71.591  36.228   2.323  0.00  0.00     0.042 H 
BRANCH   9  12
ATOM     12  C8  GG3 d   1      71.449  34.692   0.779  0.00  0.00     0.286 C 
BRANCH  12  13
ATOM     13  P14 GG3 d   1      70.837  33.077   1.315  0.00  0.00     0.310 P 
ATOM     14  O16 GG3 d   1      71.269  32.736   2.717  0.00  0.00    -0.637 OA
ATOM     15  O17 GG3 d   1      71.317  32.143   0.263  0.00  0.00    -0.637 OA
ATOM     16  O15 GG3 d   1      69.314  33.272   1.251  0.00  0.00    -0.637 OA
ENDBRANCH  12  13
BRANCH  12  17
ATOM     17  P9  GG3 d   1      73.299  34.738   0.819  0.00  0.00     0.310 P 
ATOM     18  O11 GG3 d   1      73.620  34.370   2.251  0.00  0.00    -0.637 OA
ATOM     19  O10 GG3 d   1      73.822  33.622  -0.086  0.00  0.00    -0.637 OA
ATOM     20  O12 GG3 d   1      73.620  36.143   0.389  0.00  0.00    -0.637 OA
ENDBRANCH  12  17
BRANCH  12  21
ATOM     21  O13 GG3 d   1      70.932  34.800  -0.582  0.00  0.00    -0.365 OA
ATOM     22  H7  GG3 d   1      71.274  34.086  -1.107  0.00  0.00     0.212 HD
ENDBRANCH  12  21
ENDBRANCH   9  12
ENDBRANCH   6   9
ENDBRANCH   4   6
BRANCH   4  23
ATOM     23  C21 GG3 d   1      71.150  39.179   0.756  0.00  0.00     0.066 C 
ATOM     24  H9  GG3 d   1      71.105  39.135   1.854  0.00  0.00     0.068 H 
ATOM     25  H10 GG3 d   1      70.202  39.578   0.366  0.00  0.00     0.068 H 
ATOM     26  H11 GG3 d   1      71.978  39.835   0.449  0.00  0.00     0.068 H 
ENDBRANCH   4  23
ENDBRANCH   1   4
BRANCH   1  27
ATOM     27  C22 GG3 d   1      70.741  38.875  -2.082  0.00  0.00    -0.042 C 
ATOM     28  H12 GG3 d   1      71.153  39.865  -1.837  0.00  0.00     0.035 H 
ATOM     29  H13 GG3 d   1      69.660  38.867  -1.877  0.00  0.00     0.035 H 
BRANCH  27  30
ATOM     30  C26 GG3 d   1      71.009  38.532  -3.537  0.00  0.00    -0.060 C 
ATOM     31  H14 GG3 d   1      70.126  38.043  -3.974  0.00  0.00     0.033 H 
ATOM     32  H15 GG3 d   1      71.875  37.857  -3.608  0.00  0.00     0.033 H 
BRANCH  30  33
ATOM     33  C27 GG3 d   1      71.298  39.811  -4.267  0.00  0.00    -0.041 C 
ATOM     34  H16 GG3 d   1      72.180  40.283  -3.809  0.00  0.00     0.040 H 
ATOM     35  H17 GG3 d   1      70.429  40.477  -4.161  0.00  0.00     0.040 H 
BRANCH  33  36
ATOM     36  C28 GG3 d   1      71.574  39.610  -5.750  0.00  0.00    -0.058 A 
ATOM     37  C33 GG3 d   1      71.872  40.769  -6.522  0.00  0.00    -0.077 A 
ATOM     38  C32 GG3 d   1      72.124  40.658  -7.913  0.00  0.00    -0.082 A 
ATOM     39  H18 GG3 d   1      71.906  41.741  -6.044  0.00  0.00     0.084 H 
ATOM     40  C31 GG3 d   1      72.084  39.380  -8.530  0.00  0.00    -0.083 A 
ATOM     41  H19 GG3 d   1      72.345  41.542  -8.501  0.00  0.00     0.083 H 
ATOM     42  C30 GG3 d   1      71.799  38.219  -7.770  0.00  0.00    -0.082 A 
ATOM     43  H20 GG3 d   1      72.273  39.292  -9.594  0.00  0.00     0.083 H 
ATOM     44  C29 GG3 d   1      71.550  38.318  -6.383  0.00  0.00    -0.077 A 
ATOM     45  H21 GG3 d   1      71.772  37.250  -8.255  0.00  0.00     0.083 H 
ATOM     46  H22 GG3 d   1      71.343  37.428  -5.800  0.00  0.00     0.084 H 
ENDBRANCH  33  36
ENDBRANCH  30  33
ENDBRANCH  27  30
ENDBRANCH   1  27
TORSDOF 12
