REMARK  11 active torsions:
REMARK  status: ('A' for Active; 'I' for Inactive)
REMARK    1  A    between atoms: C1_1  and  O22_16 
REMARK    2  A    between atoms: C2_2  and  O27_18 
REMARK    3  A    between atoms: C4_4  and  N9_7 
REMARK    4  A    between atoms: C6_6  and  O17_14 
REMARK    5  A    between atoms: N9_7  and  C10_8 
REMARK    6  A    between atoms: C12_10  and  C32_20 
REMARK    7  A    between atoms: O17_14  and  C18_15 
REMARK    8  A    between atoms: O22_16  and  C23_17 
REMARK    9  A    between atoms: O27_18  and  C28_19 
REMARK   10  A    between atoms: C37_25  and  N41_26 
REMARK   11  A    between atoms: N41_26  and  C42_27 
ROOT
ATOM      1  C10 994 d   1       6.454  17.735  43.541  0.00  0.00     0.730 A 
ATOM      2  N11 994 d   1       6.955  18.617  44.424  0.00  0.00    -0.042 NA
ATOM      3  C12 994 d   1       6.211  19.052  45.506  0.00  0.00     0.183 A 
ATOM      4  N13 994 d   1       4.945  18.516  45.590  0.00  0.00    -0.220 NA
ATOM      5  C14 994 d   1       4.525  17.645  44.664  0.00  0.00     0.107 A 
ATOM      6  N15 994 d   1       5.235  17.212  43.615  0.00  0.00    -0.056 NA
ATOM      7  H4  994 d   1       3.519  17.255  44.774  0.00  0.00     0.147 H 
ENDROOT
BRANCH   1   8
ATOM      8  N9  994 d   1       7.200  17.298  42.469  0.00  0.00    -0.188 N 
ATOM      9  H3  994 d   1       6.717  16.644  41.837  0.00  0.00     0.184 HD
BRANCH   8  10
ATOM     10  C4  994 d   1       8.512  17.609  42.112  0.00  0.00     0.054 A 
ATOM     11  C3  994 d   1       9.225  18.798  42.499  0.00  0.00    -0.022 A 
ATOM     12  C2  994 d   1      10.565  19.031  42.078  0.00  0.00     0.106 A 
ATOM     13  H1  994 d   1       8.731  19.532  43.125  0.00  0.00     0.091 H 
ATOM     14  C1  994 d   1      11.207  18.055  41.251  0.00  0.00     0.135 A 
ATOM     15  C6  994 d   1      10.507  16.858  40.854  0.00  0.00     0.106 A 
ATOM     16  C5  994 d   1       9.175  16.660  41.292  0.00  0.00    -0.022 A 
ATOM     17  H2  994 d   1       8.649  15.761  40.993  0.00  0.00     0.091 H 
BRANCH  12  18
ATOM     18  O27 994 d   1      11.280  20.204  42.463  0.00  0.00    -0.353 OA
BRANCH  18  19
ATOM     19  C28 994 d   1      10.486  21.392  42.622  0.00  0.00     0.010 C 
ATOM     20  H11 994 d   1      11.135  22.230  42.918  0.00  0.00     0.066 H 
ATOM     21  H12 994 d   1       9.726  21.224  43.400  0.00  0.00     0.066 H 
ATOM     22  H13 994 d   1       9.989  21.631  41.670  0.00  0.00     0.066 H 
ENDBRANCH  18  19
ENDBRANCH  12  18
BRANCH  14  23
ATOM     23  O22 994 d   1      12.514  18.269  40.841  0.00  0.00    -0.351 OA
BRANCH  23  24
ATOM     24  C23 994 d   1      13.433  17.726  41.794  0.00  0.00     0.011 C 
ATOM     25  H8  994 d   1      14.463  17.905  41.453  0.00  0.00     0.067 H 
ATOM     26  H9  994 d   1      13.262  16.644  41.893  0.00  0.00     0.067 H 
ATOM     27  H10 994 d   1      13.280  18.212  42.769  0.00  0.00     0.067 H 
ENDBRANCH  23  24
ENDBRANCH  14  23
BRANCH  15  28
ATOM     28  O17 994 d   1      11.076  15.853  40.047  0.00  0.00    -0.353 OA
BRANCH  28  29
ATOM     29  C18 994 d   1      11.039  16.148  38.661  0.00  0.00     0.010 C 
ATOM     30  H5  994 d   1      11.498  15.322  38.098  0.00  0.00     0.066 H 
ATOM     31  H6  994 d   1      11.596  17.077  38.469  0.00  0.00     0.066 H 
ATOM     32  H7  994 d   1       9.994  16.273  38.341  0.00  0.00     0.066 H 
ENDBRANCH  28  29
ENDBRANCH  15  28
ENDBRANCH   8  10
ENDBRANCH   1   8
BRANCH   3  33
ATOM     33  C32 994 d   1       6.804  20.049  46.495  0.00  0.00     0.058 A 
ATOM     34  C33 994 d   1       8.121  20.508  46.268  0.00  0.00    -0.064 A 
ATOM     35  C34 994 d   1       8.754  21.434  47.126  0.00  0.00    -0.065 A 
ATOM     36  H14 994 d   1       8.664  20.137  45.406  0.00  0.00     0.085 H 
ATOM     37  C35 994 d   1       8.041  21.906  48.237  0.00  0.00     0.004 A 
ATOM     38  H15 994 d   1       9.765  21.771  46.931  0.00  0.00     0.085 H 
ATOM     39  N36 994 d   1       6.781  21.488  48.491  0.00  0.00    -0.242 NA
ATOM     40  H16 994 d   1       8.509  22.620  48.905  0.00  0.00     0.114 H 
ATOM     41  C37 994 d   1       6.149  20.577  47.658  0.00  0.00     0.141 A 
BRANCH  41  42
ATOM     42  N41 994 d   1       4.873  20.193  47.981  0.00  0.00    -0.340 N 
ATOM     43  H17 994 d   1       4.288  19.803  47.228  0.00  0.00     0.167 HD
BRANCH  42  44
ATOM     44  C42 994 d   1       4.318  20.288  49.227  0.00  0.00     0.033 A 
ATOM     45  C43 994 d   1       3.519  21.400  49.612  0.00  0.00    -0.057 A 
ATOM     46  C44 994 d   1       2.963  21.466  50.916  0.00  0.00    -0.081 A 
ATOM     47  H18 994 d   1       3.334  22.201  48.906  0.00  0.00     0.086 H 
ATOM     48  C45 994 d   1       3.209  20.415  51.838  0.00  0.00    -0.083 A 
ATOM     49  H19 994 d   1       2.354  22.314  51.206  0.00  0.00     0.083 H 
ATOM     50  C46 994 d   1       4.007  19.305  51.456  0.00  0.00    -0.081 A 
ATOM     51  H20 994 d   1       2.787  20.460  52.835  0.00  0.00     0.083 H 
ATOM     52  C47 994 d   1       4.559  19.243  50.157  0.00  0.00    -0.057 A 
ATOM     53  H21 994 d   1       4.193  18.504  52.162  0.00  0.00     0.083 H 
ATOM     54  H22 994 d   1       5.169  18.394  49.869  0.00  0.00     0.086 H 
ENDBRANCH  42  44
ENDBRANCH  41  42
ENDBRANCH   3  33
TORSDOF 11
