REMARK  7 active torsions:
REMARK  status: ('A' for Active; 'I' for Inactive)
REMARK    1  A    between atoms: C12_3  and  N2_22 
REMARK    2  A    between atoms: O2_24  and  C15_6 
REMARK    3  A    between atoms: C7_20  and  C18_10 
REMARK    4  A    between atoms: C24_21  and  C19_13 
REMARK    5  A    between atoms: C23_18  and  N1_19 
REMARK    6  A    between atoms: N1_19  and  C7_20 
REMARK       I    between atoms: N2_22  and  C24_21 
REMARK    7  A    between atoms: C5_29  and  O2_24 
ROOT
ATOM      1  C24 608 d   1      37.569  34.671  12.526  0.00  0.00     0.260 C 
ATOM      2  N2  608 d   1      36.923  35.807  12.222  0.00  0.00    -0.323 N 
ATOM      3  O1  608 d   1      38.795  34.645  12.552  0.00  0.00    -0.267 OA
ATOM      4  H15 608 d   1      35.929  35.827  12.328  0.00  0.00     0.169 HD
ENDROOT
BRANCH   1   5
ATOM      5  C19 608 d   1      36.697  33.507  12.793  0.00  0.00     0.077 A 
ATOM      6  C20 608 d   1      35.309  33.501  12.384  0.00  0.00    -0.063 A 
ATOM      7  C21 608 d   1      34.475  32.362  12.577  0.00  0.00    -0.065 A 
ATOM      8  H9  608 d   1      34.892  34.387  11.918  0.00  0.00     0.085 H 
ATOM      9  C22 608 d   1      35.056  31.207  13.199  0.00  0.00     0.004 A 
ATOM     10  H10 608 d   1      33.437  32.368  12.265  0.00  0.00     0.085 H 
ATOM     11  N3  608 d   1      36.369  31.206  13.595  0.00  0.00    -0.243 NA
ATOM     12  H11 608 d   1      34.449  30.323  13.358  0.00  0.00     0.114 H 
ATOM     13  C23 608 d   1      37.191  32.322  13.408  0.00  0.00     0.139 A 
BRANCH  13  14
ATOM     14  N1  608 d   1      38.494  32.298  13.810  0.00  0.00    -0.370 N 
ATOM     15  H12 608 d   1      39.086  33.128  13.660  0.00  0.00     0.161 HD
BRANCH  14  16
ATOM     16  C7  608 d   1      39.062  31.119  14.447  0.00  0.00     0.018 C 
ATOM     17  H13 608 d   1      39.943  31.440  15.022  0.00  0.00     0.071 H 
ATOM     18  H14 608 d   1      38.305  30.711  15.133  0.00  0.00     0.071 H 
BRANCH  16  19
ATOM     19  C18 608 d   1      39.502  29.988  13.508  0.00  0.00    -0.038 A 
ATOM     20  C17 608 d   1      39.491  30.194  12.066  0.00  0.00    -0.058 A 
ATOM     21  C16 608 d   1      39.955  29.086  11.291  0.00  0.00     0.002 A 
ATOM     22  H6  608 d   1      39.155  31.120  11.614  0.00  0.00     0.086 H 
ATOM     23  N4  608 d   1      40.364  27.940  11.998  0.00  0.00    -0.273 NA
ATOM     24  H5  608 d   1      39.990  29.127  10.208  0.00  0.00     0.114 H 
ATOM     25  C9  608 d   1      40.381  27.715  13.364  0.00  0.00     0.002 A 
ATOM     26  C8  608 d   1      39.931  28.773  14.193  0.00  0.00    -0.058 A 
ATOM     27  H8  608 d   1      40.722  26.774  13.780  0.00  0.00     0.114 H 
ATOM     28  H7  608 d   1      39.907  28.685  15.273  0.00  0.00     0.086 H 
ENDBRANCH  16  19
ENDBRANCH  14  16
ENDBRANCH  13  14
ENDBRANCH   1   5
BRANCH   2  29
ATOM     29  C12 608 d   1      37.540  36.926  11.781  0.00  0.00     0.035 A 
ATOM     30  C11 608 d   1      38.452  36.862  10.648  0.00  0.00    -0.054 A 
ATOM     31  C10 608 d   1      39.083  38.074  10.221  0.00  0.00    -0.048 A 
ATOM     32  H2  608 d   1      38.648  35.923  10.142  0.00  0.00     0.087 H 
ATOM     33  C15 608 d   1      38.770  39.299  10.953  0.00  0.00     0.076 A 
ATOM     34  H1  608 d   1      39.770  38.083   9.383  0.00  0.00     0.087 H 
ATOM     35  C14 608 d   1      37.849  39.356  12.098  0.00  0.00    -0.048 A 
ATOM     36  C13 608 d   1      37.216  38.135  12.522  0.00  0.00    -0.054 A 
ATOM     37  H4  608 d   1      37.652  40.292  12.609  0.00  0.00     0.087 H 
ATOM     38  H3  608 d   1      36.527  38.117  13.358  0.00  0.00     0.087 H 
BRANCH  33  39
ATOM     39  O2  608 d   1      39.462  40.425  10.423  0.00  0.00    -0.311 OA
BRANCH  39  40
ATOM     40  C5  608 d   1      39.068  41.740  10.553  0.00  0.00     0.076 A 
ATOM     41  C4  608 d   1      38.281  42.312   9.480  0.00  0.00    -0.050 A 
ATOM     42  C3  608 d   1      37.898  43.704   9.599  0.00  0.00    -0.080 A 
ATOM     43  H19 608 d   1      37.989  41.720   8.620  0.00  0.00     0.087 H 
ATOM     44  C2  608 d   1      38.318  44.446  10.782  0.00  0.00    -0.083 A 
ATOM     45  H18 608 d   1      37.311  44.184   8.824  0.00  0.00     0.083 H 
ATOM     46  C1  608 d   1      39.106  43.875  11.867  0.00  0.00    -0.080 A 
ATOM     47  H17 608 d   1      38.026  45.487  10.859  0.00  0.00     0.083 H 
ATOM     48  C6  608 d   1      39.485  42.488  11.740  0.00  0.00    -0.050 A 
ATOM     49  H16 608 d   1      39.394  44.465  12.730  0.00  0.00     0.083 H 
ATOM     50  H20 608 d   1      40.071  42.006  12.514  0.00  0.00     0.087 H 
ENDBRANCH  39  40
ENDBRANCH  33  39
ENDBRANCH   2  29
TORSDOF 7
