REMARK  5 active torsions:
REMARK  status: ('A' for Active; 'I' for Inactive)
REMARK    1  A    between atoms: C01_1  and  C02_2 
REMARK    2  A    between atoms: C02_2  and  N03_3 
REMARK       I    between atoms: N03_3  and  C04_4 
REMARK       I    between atoms: C04_4  and  N06_6 
REMARK    3  A    between atoms: C09_9  and  N12_12 
REMARK    4  A    between atoms: N12_12  and  C13_13 
REMARK    5  A    between atoms: C15_15  and  C20_20 
ROOT
ATOM      1  N03 J07 d   1      26.994   4.828  28.128  0.00  0.00    -0.343 N 
ATOM      2  C04 J07 d   1      26.119   5.887  28.005  0.00  0.00     0.318 C 
ATOM      3  O05 J07 d   1      25.917   6.440  26.922  0.00  0.00    -0.247 OA
ATOM      4  N06 J07 d   1      25.479   6.296  29.212  0.00  0.00    -0.334 N 
ATOM      5  C07 J07 d   1      24.538   7.440  29.135  0.00  0.00     0.001 C 
ATOM      6  C08 J07 d   1      23.178   7.106  29.756  0.00  0.00    -0.031 C 
ATOM      7  C09 J07 d   1      23.374   6.625  31.217  0.00  0.00     0.029 C 
ATOM      8  C10 J07 d   1      24.295   5.372  31.223  0.00  0.00    -0.031 C 
ATOM      9  C11 J07 d   1      25.653   5.699  30.586  0.00  0.00     0.001 C 
ATOM     10  H6  J07 d   1      26.646   3.911  28.325  0.00  0.00     0.164 HD
ATOM     11  H7  J07 d   1      24.390   7.708  28.078  0.00  0.00     0.064 H 
ATOM     12  H8  J07 d   1      24.974   8.295  29.672  0.00  0.00     0.064 H 
ATOM     13  H9  J07 d   1      22.695   6.310  29.171  0.00  0.00     0.038 H 
ATOM     14  H10 J07 d   1      22.543   8.004  29.749  0.00  0.00     0.038 H 
ATOM     15  H11 J07 d   1      23.853   7.425  31.801  0.00  0.00     0.073 H 
ATOM     16  H12 J07 d   1      23.812   4.565  30.652  0.00  0.00     0.038 H 
ATOM     17  H13 J07 d   1      24.452   5.043  32.261  0.00  0.00     0.038 H 
ATOM     18  H14 J07 d   1      26.186   6.418  31.225  0.00  0.00     0.064 H 
ATOM     19  H15 J07 d   1      26.243   4.774  30.504  0.00  0.00     0.064 H 
ENDROOT
BRANCH   7  20
ATOM     20  N12 J07 d   1      22.052   6.312  31.821  0.00  0.00    -0.218 N 
ATOM     21  H16 J07 d   1      21.783   5.320  31.889  0.00  0.00     0.178 HD
BRANCH  20  22
ATOM     22  C13 J07 d   1      21.147   7.260  32.303  0.00  0.00     0.723 A 
ATOM     23  N14 J07 d   1      21.463   8.571  32.122  0.00  0.00    -0.061 NA
ATOM     24  C15 J07 d   1      20.594   9.552  32.589  0.00  0.00     0.111 A 
ATOM     25  C16 J07 d   1      19.360   9.225  33.257  0.00  0.00     0.082 A 
ATOM     26  C17 J07 d   1      19.142   7.851  33.380  0.00  0.00     0.044 A 
ATOM     27 CL1  J07 d   1      18.174  10.303  33.895  0.00  0.00    -0.080 Cl
ATOM     28  N18 J07 d   1      19.995   6.868  32.920  0.00  0.00    -0.074 NA
ATOM     29  H17 J07 d   1      18.232   7.532  33.875  0.00  0.00     0.118 H 
BRANCH  24  30
ATOM     30  C20 J07 d   1      21.096  10.911  32.293  0.00  0.00     0.023 A 
ATOM     31  C21 J07 d   1      22.373  11.295  31.786  0.00  0.00     0.004 A 
ATOM     32  C22 J07 d   1      23.566  10.587  31.409  0.00  0.00    -0.070 A 
ATOM     33  C26 J07 d   1      22.362  12.712  31.665  0.00  0.00     0.043 A 
ATOM     34  C23 J07 d   1      24.681  11.319  30.925  0.00  0.00    -0.082 A 
ATOM     35  H18 J07 d   1      23.613   9.507  31.493  0.00  0.00     0.084 H 
ATOM     36  C24 J07 d   1      24.631  12.728  30.814  0.00  0.00    -0.081 A 
ATOM     37  H19 J07 d   1      25.583  10.791  30.637  0.00  0.00     0.083 H 
ATOM     38  C25 J07 d   1      23.472  13.451  31.180  0.00  0.00    -0.056 A 
ATOM     39  H20 J07 d   1      25.497  13.264  30.442  0.00  0.00     0.083 H 
ATOM     40  H21 J07 d   1      23.433  14.531  31.093  0.00  0.00     0.086 H 
ATOM     41  N27 J07 d   1      21.134  13.147  32.080  0.00  0.00    -0.364 N 
ATOM     42  C28 J07 d   1      20.374  12.087  32.455  0.00  0.00    -0.009 A 
ATOM     43  H22 J07 d   1      20.831  14.131  32.104  0.00  0.00     0.165 HD
ATOM     44  H23 J07 d   1      19.352  12.149  32.827  0.00  0.00     0.112 H 
ENDBRANCH  24  30
ENDBRANCH  20  22
ENDBRANCH   7  20
BRANCH   1  45
ATOM     45  C02 J07 d   1      28.427   5.048  27.970  0.00  0.00    -0.006 C 
ATOM     46  H4  J07 d   1      28.784   4.481  27.098  0.00  0.00     0.063 H 
ATOM     47  H5  J07 d   1      28.611   6.121  27.810  0.00  0.00     0.063 H 
BRANCH  45  48
ATOM     48  C01 J07 d   1      29.185   4.593  29.202  0.00  0.00    -0.061 C 
ATOM     49  H1  J07 d   1      30.261   4.770  29.057  0.00  0.00     0.029 H 
ATOM     50  H2  J07 d   1      29.009   3.520  29.365  0.00  0.00     0.029 H 
ATOM     51  H3  J07 d   1      28.835   5.160  30.078  0.00  0.00     0.029 H 
ENDBRANCH  45  48
ENDBRANCH   1  45
TORSDOF 5
