REMARK WARNING: 32 MAX_TORS EXCEEDED!!!
REMARK  33 active torsions:
REMARK  status: ('A' for Active; 'I' for Inactive)
REMARK    1  A    between atoms: N1_1  and  C1_2 
REMARK       I    between atoms: C11_15  and  N1_1 
REMARK    2  A    between atoms: C1_2  and  C2_4 
REMARK    3  A    between atoms: C1_2  and  C3_5 
REMARK    4  A    between atoms: N2_3  and  C10_14 
REMARK       I    between atoms: C19_25  and  N2_3 
REMARK    5  A    between atoms: C2_4  and  O1_8 
REMARK    6  A    between atoms: C2_4  and  C52_58 
REMARK    7  A    between atoms: C3_5  and  C4_6 
REMARK    8  A    between atoms: C10_14  and  C11_15 
REMARK    9  A    between atoms: C10_14  and  C12_16 
REMARK   10  A    between atoms: C12_16  and  CG2_60 
REMARK   11  A    between atoms: C12_16  and  CG1_61 
REMARK   12  A    between atoms: N4_19  and  C18_24 
REMARK       I    between atoms: C31_62  and  N4_19 
REMARK   13  A    between atoms: C18_24  and  C19_25 
REMARK   14  A    between atoms: C18_24  and  C20_26 
REMARK   15  A    between atoms: C81_28  and  O59_29 
REMARK       I    between atoms: N54_37  and  C81_28 
REMARK   16  A    between atoms: O59_29  and  CA5_30 
REMARK   17  A    between atoms: CA5_30  and  C50_31 
REMARK   18  A    between atoms: C68_38  and  N54_37 
REMARK   19  A    between atoms: C68_38  and  C70_39 
REMARK   20  A    between atoms: C69_40  and  C68_38 
REMARK       I    between atoms: N52_42  and  C69_40 
REMARK   21  A    between atoms: C60_43  and  N52_42 
REMARK   22  A    between atoms: C60_43  and  C62_44 
REMARK   23  A    between atoms: C61_47  and  C60_43 
REMARK   24  A    between atoms: C62_44  and  CG6_45 
REMARK   25  A    between atoms: C62_44  and  CG5_46 
REMARK       I    between atoms: N51_49  and  C61_47 
REMARK   26  A    between atoms: C51_50  and  N51_49 
REMARK   27  A    between atoms: C51_50  and  C53_51 
REMARK   28  A    between atoms: C52_58  and  C51_50 
REMARK   29  A    between atoms: C53_51  and  C54_52 
REMARK   30  A    between atoms: C52_58  and  O51_59 
REMARK   31  A    between atoms: O9_64  and  C31_62 
REMARK   32  A    between atoms: CA_65  and  O9_64 
REMARK   33  A    between atoms: CA_65  and  C_66 
ROOT
ATOM      1  C2  3TL d   1       9.752 -16.035  -0.285  0.00  0.00     0.082 C 
ATOM      2  H4  3TL d   1       9.895 -15.908  -1.368  0.00  0.00     0.090 H 
ENDROOT
BRANCH   1   3
ATOM      3  C1  3TL d   1      10.166 -14.707   0.381  0.00  0.00     0.043 C 
ATOM      4  H2  3TL d   1       9.460 -13.930   0.053  0.00  0.00     0.077 H 
BRANCH   3   5
ATOM      5  N1  3TL d   1      10.083 -14.797   1.835  0.00  0.00    -0.352 N 
ATOM      6  C11 3TL d   1       9.353 -13.966   2.598  0.00  0.00     0.241 C 
ATOM      7  O2  3TL d   1       8.646 -13.066   2.144  0.00  0.00    -0.271 OA
ATOM      8  H1  3TL d   1      10.601 -15.521   2.291  0.00  0.00     0.163 HD
BRANCH   6   9
ATOM      9  C10 3TL d   1       9.437 -14.197   4.092  0.00  0.00     0.092 C 
ATOM     10  H13 3TL d   1      10.050 -15.093   4.268  0.00  0.00     0.088 H 
BRANCH   9  11
ATOM     11  N2  3TL d   1      10.088 -13.074   4.765  0.00  0.00    -0.346 N 
ATOM     12  C19 3TL d   1      11.226 -13.209   5.461  0.00  0.00     0.240 C 
ATOM     13  O4  3TL d   1      11.830 -14.266   5.593  0.00  0.00    -0.271 OA
ATOM     14  H3  3TL d   1       9.668 -12.169   4.704  0.00  0.00     0.163 HD
BRANCH  12  15
ATOM     15  C18 3TL d   1      11.772 -11.978   6.108  0.00  0.00     0.088 C 
ATOM     16  H21 3TL d   1      10.974 -11.222   6.146  0.00  0.00     0.087 H 
BRANCH  15  17
ATOM     17  N4  3TL d   1      12.224 -12.215   7.487  0.00  0.00    -0.324 N 
ATOM     18  C31 3TL d   1      11.558 -11.615   8.478  0.00  0.00     0.361 C 
ATOM     19  O8  3TL d   1      10.445 -11.133   8.294  0.00  0.00    -0.238 OA
ATOM     20  H17 3TL d   1      13.007 -12.808   7.678  0.00  0.00     0.165 HD
BRANCH  18  21
ATOM     21  O9  3TL d   1      12.133 -11.500   9.814  0.00  0.00    -0.299 OA
BRANCH  21  22
ATOM     22  CA  3TL d   1      12.073 -10.239  10.518  0.00  0.00     0.054 C 
ATOM     23  H63 3TL d   1      12.709 -10.312  11.412  0.00  0.00     0.082 H 
ATOM     24  H64 3TL d   1      11.031 -10.063  10.823  0.00  0.00     0.082 H 
BRANCH  22  25
ATOM     25  C   3TL d   1      12.541  -9.041   9.692  0.00  0.00    -0.034 A 
ATOM     26  C13 3TL d   1      11.797  -7.861   9.687  0.00  0.00    -0.075 A 
ATOM     27  C14 3TL d   1      12.196  -6.750   8.928  0.00  0.00    -0.082 A 
ATOM     28  H15 3TL d   1      10.892  -7.801  10.281  0.00  0.00     0.084 H 
ATOM     29  C15 3TL d   1      13.365  -6.785   8.161  0.00  0.00    -0.083 A 
ATOM     30  H16 3TL d   1      11.589  -5.852   8.936  0.00  0.00     0.083 H 
ATOM     31  C16 3TL d   1      14.121  -7.967   8.162  0.00  0.00    -0.082 A 
ATOM     32  H18 3TL d   1      13.678  -5.923   7.582  0.00  0.00     0.083 H 
ATOM     33  C17 3TL d   1      13.715  -9.085   8.920  0.00  0.00    -0.075 A 
ATOM     34  H19 3TL d   1      15.029  -8.022   7.572  0.00  0.00     0.083 H 
ATOM     35  H20 3TL d   1      14.315  -9.988   8.907  0.00  0.00     0.084 H 
ENDBRANCH  22  25
ENDBRANCH  21  22
ENDBRANCH  18  21
ENDBRANCH  15  17
BRANCH  15  36
ATOM     36  C20 3TL d   1      12.900 -11.453   5.218  0.00  0.00    -0.049 C 
ATOM     37  H22 3TL d   1      12.518 -11.291   4.199  0.00  0.00     0.030 H 
ATOM     38  H23 3TL d   1      13.717 -12.188   5.190  0.00  0.00     0.030 H 
ATOM     39  H24 3TL d   1      13.276 -10.502   5.625  0.00  0.00     0.030 H 
ENDBRANCH  15  36
ENDBRANCH  12  15
ENDBRANCH   9  11
BRANCH   9  40
ATOM     40  C12 3TL d   1       8.034 -14.467   4.641  0.00  0.00    -0.033 C 
ATOM     41  H14 3TL d   1       7.384 -13.661   4.271  0.00  0.00     0.042 H 
BRANCH  40  42
ATOM     42  CG2 3TL d   1       7.946 -14.457   6.154  0.00  0.00    -0.071 C 
ATOM     43  H57 3TL d   1       6.909 -14.658   6.462  0.00  0.00     0.028 H 
ATOM     44  H58 3TL d   1       8.257 -13.472   6.533  0.00  0.00     0.028 H 
ATOM     45  H59 3TL d   1       8.608 -15.233   6.565  0.00  0.00     0.028 H 
ENDBRANCH  40  42
BRANCH  40  46
ATOM     46  CG1 3TL d   1       7.490 -15.785   4.116  0.00  0.00    -0.071 C 
ATOM     47  H60 3TL d   1       7.552 -15.796   3.018  0.00  0.00     0.028 H 
ATOM     48  H61 3TL d   1       6.440 -15.898   4.425  0.00  0.00     0.028 H 
ATOM     49  H62 3TL d   1       8.084 -16.616   4.525  0.00  0.00     0.028 H 
ENDBRANCH  40  46
ENDBRANCH   9  40
ENDBRANCH   6   9
ENDBRANCH   3   5
BRANCH   3  50
ATOM     50  C3  3TL d   1      11.568 -14.290  -0.077  0.00  0.00    -0.020 C 
ATOM     51  H5  3TL d   1      11.654 -14.466  -1.159  0.00  0.00     0.043 H 
ATOM     52  H6  3TL d   1      12.311 -14.903   0.454  0.00  0.00     0.043 H 
BRANCH  50  53
ATOM     53  C4  3TL d   1      11.851 -12.827   0.204  0.00  0.00    -0.056 A 
ATOM     54  C5  3TL d   1      12.620 -12.484   1.319  0.00  0.00    -0.077 A 
ATOM     55  C6  3TL d   1      12.893 -11.139   1.601  0.00  0.00    -0.082 A 
ATOM     56  H7  3TL d   1      13.007 -13.261   1.968  0.00  0.00     0.084 H 
ATOM     57  C7  3TL d   1      12.392 -10.139   0.767  0.00  0.00    -0.083 A 
ATOM     58  H9  3TL d   1      13.492 -10.876   2.465  0.00  0.00     0.083 H 
ATOM     59  C8  3TL d   1      11.628 -10.478  -0.349  0.00  0.00    -0.082 A 
ATOM     60  H10 3TL d   1      12.597  -9.098   0.987  0.00  0.00     0.083 H 
ATOM     61  C9  3TL d   1      11.362 -11.813  -0.632  0.00  0.00    -0.077 A 
ATOM     62  H11 3TL d   1      11.241  -9.700  -0.997  0.00  0.00     0.083 H 
ATOM     63  H12 3TL d   1      10.773 -12.072  -1.504  0.00  0.00     0.084 H 
ENDBRANCH  50  53
ENDBRANCH   3  50
ENDBRANCH   1   3
BRANCH   1  64
ATOM     64  O1  3TL d   1      10.613 -17.082   0.165  0.00  0.00    -0.391 OA
ATOM     65  H8  3TL d   1      11.510 -16.876  -0.070  0.00  0.00     0.210 HD
ENDBRANCH   1  64
BRANCH   1  66
ATOM     66  C52 3TL d   1       8.284 -16.479  -0.067  0.00  0.00     0.082 C 
ATOM     67  H55 3TL d   1       8.105 -16.466   1.018  0.00  0.00     0.090 H 
BRANCH  66  68
ATOM     68  C51 3TL d   1       7.237 -15.578  -0.730  0.00  0.00     0.043 C 
ATOM     69  H47 3TL d   1       7.605 -14.546  -0.635  0.00  0.00     0.077 H 
BRANCH  68  70
ATOM     70  N51 3TL d   1       7.046 -15.794  -2.158  0.00  0.00    -0.352 N 
ATOM     71  C61 3TL d   1       7.639 -14.978  -3.044  0.00  0.00     0.241 C 
ATOM     72  O52 3TL d   1       8.002 -13.842  -2.743  0.00  0.00    -0.271 OA
ATOM     73  H46 3TL d   1       6.474 -16.549  -2.478  0.00  0.00     0.163 HD
BRANCH  71  74
ATOM     74  C60 3TL d   1       7.802 -15.523  -4.443  0.00  0.00     0.092 C 
ATOM     75  H38 3TL d   1       8.315 -16.495  -4.398  0.00  0.00     0.088 H 
BRANCH  74  76
ATOM     76  N52 3TL d   1       6.457 -15.692  -4.960  0.00  0.00    -0.346 N 
ATOM     77  C69 3TL d   1       5.932 -16.848  -5.363  0.00  0.00     0.240 C 
ATOM     78  O54 3TL d   1       6.542 -17.905  -5.465  0.00  0.00    -0.271 OA
ATOM     79  H37 3TL d   1       5.879 -14.878  -5.018  0.00  0.00     0.163 HD
BRANCH  77  80
ATOM     80  C68 3TL d   1       4.485 -16.753  -5.732  0.00  0.00     0.088 C 
ATOM     81  H33 3TL d   1       4.107 -15.782  -5.380  0.00  0.00     0.087 H 
BRANCH  80  82
ATOM     82  N54 3TL d   1       4.350 -16.808  -7.167  0.00  0.00    -0.324 N 
ATOM     83  C81 3TL d   1       3.835 -15.755  -7.781  0.00  0.00     0.361 C 
ATOM     84  O58 3TL d   1       3.726 -14.659  -7.229  0.00  0.00    -0.238 OA
ATOM     85  H32 3TL d   1       4.636 -17.616  -7.681  0.00  0.00     0.165 HD
BRANCH  83  86
ATOM     86  O59 3TL d   1       3.383 -15.965  -9.146  0.00  0.00    -0.299 OA
BRANCH  86  87
ATOM     87  CA5 3TL d   1       3.201 -14.875 -10.062  0.00  0.00     0.054 C 
ATOM     88  H25 3TL d   1       3.631 -15.148 -11.037  0.00  0.00     0.082 H 
ATOM     89  H26 3TL d   1       3.716 -13.985  -9.671  0.00  0.00     0.082 H 
BRANCH  87  90
ATOM     90  C50 3TL d   1       1.728 -14.560 -10.238  0.00  0.00    -0.034 A 
ATOM     91  C63 3TL d   1       1.344 -13.333 -10.771  0.00  0.00    -0.075 A 
ATOM     92  C64 3TL d   1      -0.004 -13.018 -10.938  0.00  0.00    -0.082 A 
ATOM     93  H27 3TL d   1       2.102 -12.614 -11.060  0.00  0.00     0.084 H 
ATOM     94  C65 3TL d   1      -0.986 -13.941 -10.569  0.00  0.00    -0.083 A 
ATOM     95  H28 3TL d   1      -0.290 -12.058 -11.354  0.00  0.00     0.083 H 
ATOM     96  C66 3TL d   1      -0.597 -15.166 -10.039  0.00  0.00    -0.082 A 
ATOM     97  H29 3TL d   1      -2.037 -13.705 -10.694  0.00  0.00     0.083 H 
ATOM     98  C67 3TL d   1       0.755 -15.479  -9.874  0.00  0.00    -0.075 A 
ATOM     99  H30 3TL d   1      -1.352 -15.888  -9.750  0.00  0.00     0.083 H 
ATOM    100  H31 3TL d   1       1.043 -16.439  -9.462  0.00  0.00     0.084 H 
ENDBRANCH  87  90
ENDBRANCH  86  87
ENDBRANCH  83  86
ENDBRANCH  80  82
BRANCH  80 101
ATOM    101  C70 3TL d   1       3.639 -17.846  -5.096  0.00  0.00    -0.049 C 
ATOM    102  H34 3TL d   1       3.744 -17.801  -4.002  0.00  0.00     0.030 H 
ATOM    103  H35 3TL d   1       3.977 -18.828  -5.457  0.00  0.00     0.030 H 
ATOM    104  H36 3TL d   1       2.584 -17.699  -5.369  0.00  0.00     0.030 H 
ENDBRANCH  80 101
ENDBRANCH  77  80
ENDBRANCH  74  76
BRANCH  74 105
ATOM    105  C62 3TL d   1       8.601 -14.588  -5.373  0.00  0.00    -0.033 C 
ATOM    106  H39 3TL d   1       8.219 -13.572  -5.194  0.00  0.00     0.042 H 
BRANCH 105 107
ATOM    107  CG6 3TL d   1       8.402 -14.907  -6.850  0.00  0.00    -0.071 C 
ATOM    108  H40 3TL d   1       8.995 -14.209  -7.459  0.00  0.00     0.028 H 
ATOM    109  H41 3TL d   1       7.337 -14.805  -7.107  0.00  0.00     0.028 H 
ATOM    110  H42 3TL d   1       8.730 -15.938  -7.050  0.00  0.00     0.028 H 
ENDBRANCH 105 107
BRANCH 105 111
ATOM    111  CG5 3TL d   1      10.094 -14.565  -5.115  0.00  0.00    -0.071 C 
ATOM    112  H43 3TL d   1      10.279 -14.337  -4.055  0.00  0.00     0.028 H 
ATOM    113  H44 3TL d   1      10.563 -13.793  -5.743  0.00  0.00     0.028 H 
ATOM    114  H45 3TL d   1      10.524 -15.548  -5.359  0.00  0.00     0.028 H 
ENDBRANCH 105 111
ENDBRANCH  74 105
ENDBRANCH  71  74
ENDBRANCH  68  70
BRANCH  68 115
ATOM    115  C53 3TL d   1       5.954 -15.667   0.080  0.00  0.00    -0.020 C 
ATOM    116  H48 3TL d   1       5.695 -14.647   0.400  0.00  0.00     0.043 H 
ATOM    117  H49 3TL d   1       6.165 -16.286   0.965  0.00  0.00     0.043 H 
BRANCH 115 118
ATOM    118  C54 3TL d   1       4.742 -16.248  -0.597  0.00  0.00    -0.056 A 
ATOM    119  C55 3TL d   1       3.952 -15.454  -1.446  0.00  0.00    -0.077 A 
ATOM    120  C56 3TL d   1       2.804 -15.992  -2.037  0.00  0.00    -0.082 A 
ATOM    121  H50 3TL d   1       4.232 -14.425  -1.643  0.00  0.00     0.084 H 
ATOM    122  C57 3TL d   1       2.443 -17.317  -1.770  0.00  0.00    -0.083 A 
ATOM    123  H51 3TL d   1       2.197 -15.385  -2.699  0.00  0.00     0.083 H 
ATOM    124  C58 3TL d   1       3.220 -18.105  -0.920  0.00  0.00    -0.082 A 
ATOM    125  H52 3TL d   1       1.553 -17.735  -2.227  0.00  0.00     0.083 H 
ATOM    126  C59 3TL d   1       4.366 -17.567  -0.323  0.00  0.00    -0.077 A 
ATOM    127  H53 3TL d   1       2.937 -19.132  -0.722  0.00  0.00     0.083 H 
ATOM    128  H54 3TL d   1       4.962 -18.172   0.351  0.00  0.00     0.084 H 
ENDBRANCH 115 118
ENDBRANCH  68 115
ENDBRANCH  66  68
BRANCH  66 129
ATOM    129  O51 3TL d   1       8.043 -17.793  -0.548  0.00  0.00    -0.391 OA
ATOM    130  H56 3TL d   1       8.672 -18.391  -0.162  0.00  0.00     0.210 HD
ENDBRANCH  66 129
ENDBRANCH   1  66
TORSDOF 33
