REMARK  2 active torsions:
REMARK  status: ('A' for Active; 'I' for Inactive)
REMARK    1  A    between atoms: C12_14  and  C13_15 
REMARK    2  A    between atoms: C2_16  and  C4_17 
ROOT
ATOM      1  C11 F10 d   1      81.992 261.223 107.986  0.00  0.00    -0.042 A 
ATOM      2  C21 F10 d   1      83.847 261.541 106.551  0.00  0.00    -0.054 A 
ATOM      3  C22 F10 d   1      82.971 261.901 105.562  0.00  0.00     0.004 A 
ATOM      4  C12 F10 d   1      83.358 261.189 107.788  0.00  0.00    -0.006 A 
ATOM      5  C2  F10 d   1      81.182 261.595 106.929  0.00  0.00     0.070 A 
ATOM      6  N23 F10 d   1      81.650 261.932 105.722  0.00  0.00    -0.260 NA
ATOM      7  H3  F10 d   1      81.564 260.964 108.948  0.00  0.00     0.088 H 
ATOM      8  H10 F10 d   1      84.914 261.533 106.361  0.00  0.00     0.087 H 
ATOM      9  H11 F10 d   1      83.376 262.176 104.595  0.00  0.00     0.114 H 
ENDROOT
BRANCH   4  10
ATOM     10  C13 F10 d   1      84.335 260.805 108.788  0.00  0.00     0.043 A 
ATOM     11  C14 F10 d   1      85.705 260.945 108.695  0.00  0.00    -0.039 A 
ATOM     12  C15 F10 d   1      86.293 260.498 109.898  0.00  0.00     0.056 A 
ATOM     13  H5  F10 d   1      86.244 261.337 107.834  0.00  0.00     0.088 H 
ATOM     14  C16 F10 d   1      87.668 260.479 110.300  0.00  0.00     0.253 C 
ATOM     15  C19 F10 d   1      85.264 260.090 110.706  0.00  0.00     0.027 A 
ATOM     16  N1  F10 d   1      87.762 260.157 111.641  0.00  0.00    -0.356 N 
ATOM     17  O3  F10 d   1      88.597 260.745 109.539  0.00  0.00    -0.268 OA
ATOM     18  C17 F10 d   1      86.655 260.238 112.580  0.00  0.00     0.000 C 
ATOM     19  H1  F10 d   1      88.648 259.849 111.987  0.00  0.00     0.162 HD
ATOM     20  C18 F10 d   1      85.399 259.569 112.061  0.00  0.00    -0.011 C 
ATOM     21  H6  F10 d   1      86.435 261.298 112.774  0.00  0.00     0.064 H 
ATOM     22  H7  F10 d   1      86.953 259.748 113.519  0.00  0.00     0.064 H 
ATOM     23  H8  F10 d   1      84.528 259.841 112.674  0.00  0.00     0.044 H 
ATOM     24  H9  F10 d   1      85.513 258.475 112.051  0.00  0.00     0.044 H 
ATOM     25  N20 F10 d   1      84.089 260.264 110.026  0.00  0.00    -0.358 N 
ATOM     26  H14 F10 d   1      83.156 260.024 110.390  0.00  0.00     0.166 HD
ENDBRANCH   4  10
BRANCH   5  27
ATOM     27  C4  F10 d   1      79.736 261.653 106.973  0.00  0.00     0.031 A 
ATOM     28  C10 F10 d   1      79.080 262.605 106.223  0.00  0.00    -0.068 A 
ATOM     29  C9  F10 d   1      77.706 262.678 106.198  0.00  0.00    -0.082 A 
ATOM     30  H2  F10 d   1      79.659 263.312 105.640  0.00  0.00     0.085 H 
ATOM     31  C8  F10 d   1      76.948 261.791 106.930  0.00  0.00    -0.080 A 
ATOM     32  H4  F10 d   1      77.218 263.438 105.599  0.00  0.00     0.083 H 
ATOM     33  C7  F10 d   1      77.579 260.836 107.691  0.00  0.00    -0.045 A 
ATOM     34  H13 F10 d   1      75.866 261.846 106.906  0.00  0.00     0.083 H 
ATOM     35  C5  F10 d   1      78.954 260.777 107.696  0.00  0.00     0.129 A 
ATOM     36  H12 F10 d   1      76.999 260.136 108.282  0.00  0.00     0.088 H 
ATOM     37  F6  F10 d   1      79.522 259.828 108.441  0.00  0.00    -0.205 F 
ENDBRANCH   5  27
TORSDOF 2
