REMARK  19 active torsions:
REMARK  status: ('A' for Active; 'I' for Inactive)
REMARK    1  A    between atoms: C2_11  and  N2_1 
REMARK    2  A    between atoms: N7_5  and  C7_6 
REMARK    3  A    between atoms: C1A_14  and  N9_8 
REMARK    4  A    between atoms: C3A_16  and  O3A_13 
REMARK    5  A    between atoms: C2A_15  and  O2A_20 
REMARK    6  A    between atoms: C5A_18  and  C4A_17 
REMARK    7  A    between atoms: O15_25  and  C5A_18 
REMARK    8  A    between atoms: P1_21  and  O13_24 
REMARK    9  A    between atoms: P1_21  and  O15_25 
REMARK   10  A    between atoms: O13_24  and  P2_26 
REMARK   11  A    between atoms: P2_26  and  O23_29 
REMARK   12  A    between atoms: O23_29  and  P3_30 
REMARK   13  A    between atoms: P3_30  and  O33_33 
REMARK   14  A    between atoms: O33_33  and  C5B_34 
REMARK   15  A    between atoms: C5B_34  and  C4B_35 
REMARK   16  A    between atoms: C3B_37  and  O3B_38 
REMARK   17  A    between atoms: C2B_39  and  O2B_40 
REMARK   18  A    between atoms: C1B_41  and  N9C_42 
REMARK   19  A    between atoms: C6C_46  and  N6C_47 
ROOT
ATOM      1  P1  GTA d   1      15.654  50.313  -2.950  0.00  0.00     0.417 P 
ATOM      2  O11 GTA d   1      14.485  49.982  -2.054  0.00  0.00    -0.624 OA
ATOM      3  O12 GTA d   1      16.075  51.756  -3.147  0.00  0.00    -0.624 OA
ENDROOT
BRANCH   1   4
ATOM      4  O13 GTA d   1      16.962  49.501  -2.508  0.00  0.00    -0.180 OA
BRANCH   4   5
ATOM      5  P2  GTA d   1      16.999  48.385  -1.337  0.00  0.00     0.427 P 
ATOM      6  O22 GTA d   1      17.228  47.009  -1.950  0.00  0.00    -0.624 OA
ATOM      7  O21 GTA d   1      15.840  48.691  -0.417  0.00  0.00    -0.624 OA
BRANCH   5   8
ATOM      8  O23 GTA d   1      18.396  48.748  -0.594  0.00  0.00    -0.180 OA
BRANCH   8   9
ATOM      9  P3  GTA d   1      19.680  49.454  -1.310  0.00  0.00     0.417 P 
ATOM     10  O32 GTA d   1      20.863  49.221  -0.388  0.00  0.00    -0.624 OA
ATOM     11  O31 GTA d   1      19.340  50.894  -1.736  0.00  0.00    -0.624 OA
BRANCH   9  12
ATOM     12  O33 GTA d   1      19.962  48.543  -2.610  0.00  0.00    -0.287 OA
BRANCH  12  13
ATOM     13  C5B GTA d   1      19.931  49.173  -3.873  0.00  0.00     0.058 C 
ATOM     14  H17 GTA d   1      20.902  49.643  -4.089  0.00  0.00     0.079 H 
ATOM     15  H18 GTA d   1      19.140  49.937  -3.900  0.00  0.00     0.079 H 
BRANCH  13  16
ATOM     16  C4B GTA d   1      19.643  48.088  -4.872  0.00  0.00     0.089 C 
ATOM     17  O4B GTA d   1      19.207  48.707  -6.086  0.00  0.00    -0.353 OA
ATOM     18  C1B GTA d   1      20.061  48.292  -7.141  0.00  0.00     0.139 C 
ATOM     19  C2B GTA d   1      21.382  47.906  -6.486  0.00  0.00     0.105 C 
ATOM     20  H24 GTA d   1      19.631  47.435  -7.680  0.00  0.00     0.122 H 
ATOM     21  C3B GTA d   1      20.934  47.339  -5.154  0.00  0.00     0.091 C 
ATOM     22  H22 GTA d   1      22.011  48.795  -6.331  0.00  0.00     0.093 H 
ATOM     23  H20 GTA d   1      21.685  47.527  -4.372  0.00  0.00     0.091 H 
ATOM     24  H19 GTA d   1      18.874  47.402  -4.488  0.00  0.00     0.090 H 
BRANCH  18  25
ATOM     25  N9C GTA d   1      20.260  49.416  -8.061  0.00  0.00    -0.294 N 
ATOM     26  C8C GTA d   1      21.057  50.482  -7.852  0.00  0.00     0.071 A 
ATOM     27  N7C GTA d   1      20.989  51.288  -8.915  0.00  0.00    -0.236 NA
ATOM     28  H25 GTA d   1      21.659  50.658  -6.962  0.00  0.00     0.144 H 
ATOM     29  C5C GTA d   1      20.153  50.703  -9.769  0.00  0.00     0.149 A 
ATOM     30  C6C GTA d   1      19.754  51.154 -11.015  0.00  0.00     0.155 A 
ATOM     31  C4C GTA d   1      19.684  49.521  -9.250  0.00  0.00     0.167 A 
ATOM     32  N1C GTA d   1      18.895  50.404 -11.730  0.00  0.00    -0.222 NA
ATOM     33  C2C GTA d   1      18.436  49.243 -11.213  0.00  0.00     0.091 A 
ATOM     34  N3C GTA d   1      18.809  48.785  -9.980  0.00  0.00    -0.222 NA
ATOM     35  H28 GTA d   1      17.744  48.650 -11.800  0.00  0.00     0.146 H 
BRANCH  30  36
ATOM     36  N6C GTA d   1      20.201  52.236 -11.440  0.00  0.00    -0.382 N 
ATOM     37  H26 GTA d   1      19.913  52.584 -12.366  0.00  0.00     0.157 HD
ATOM     38  H27 GTA d   1      20.859  52.783 -10.866  0.00  0.00     0.157 HD
ENDBRANCH  30  36
ENDBRANCH  18  25
BRANCH  19  39
ATOM     39  O2B GTA d   1      22.121  46.955  -7.281  0.00  0.00    -0.388 OA
ATOM     40  H23 GTA d   1      21.574  46.198  -7.457  0.00  0.00     0.210 HD
ENDBRANCH  19  39
BRANCH  21  41
ATOM     41  O3B GTA d   1      20.672  45.929  -5.245  0.00  0.00    -0.390 OA
ATOM     42  H21 GTA d   1      21.484  45.468  -5.421  0.00  0.00     0.210 HD
ENDBRANCH  21  41
ENDBRANCH  13  16
ENDBRANCH  12  13
ENDBRANCH   9  12
ENDBRANCH   8   9
ENDBRANCH   5   8
ENDBRANCH   4   5
ENDBRANCH   1   4
BRANCH   1  43
ATOM     43  O15 GTA d   1      15.423  49.535  -4.343  0.00  0.00    -0.287 OA
BRANCH  43  44
ATOM     44  C5A GTA d   1      14.459  48.494  -4.507  0.00  0.00     0.058 C 
ATOM     45  H14 GTA d   1      14.842  47.549  -4.095  0.00  0.00     0.079 H 
ATOM     46  H15 GTA d   1      13.518  48.760  -4.003  0.00  0.00     0.079 H 
BRANCH  44  47
ATOM     47  C4A GTA d   1      14.240  48.368  -6.001  0.00  0.00     0.089 C 
ATOM     48  C3A GTA d   1      15.348  47.548  -6.619  0.00  0.00     0.091 C 
ATOM     49  C2A GTA d   1      15.694  48.260  -7.891  0.00  0.00     0.105 C 
ATOM     50  H12 GTA d   1      16.211  47.450  -5.944  0.00  0.00     0.091 H 
ATOM     51  C1A GTA d   1      15.219  49.684  -7.706  0.00  0.00     0.139 C 
ATOM     52  H11 GTA d   1      16.768  48.202  -8.120  0.00  0.00     0.093 H 
ATOM     53  O4A GTA d   1      14.277  49.663  -6.631  0.00  0.00    -0.353 OA
ATOM     54  H10 GTA d   1      14.676  49.970  -8.619  0.00  0.00     0.122 H 
ATOM     55  H13 GTA d   1      13.268  47.889  -6.187  0.00  0.00     0.090 H 
BRANCH  48  56
ATOM     56  O3A GTA d   1      14.830  46.279  -6.996  0.00  0.00    -0.390 OA
ATOM     57  H9  GTA d   1      14.059  46.401  -7.538  0.00  0.00     0.210 HD
ENDBRANCH  48  56
BRANCH  49  58
ATOM     58  O2A GTA d   1      14.888  47.700  -8.941  0.00  0.00    -0.388 OA
ATOM     59  H16 GTA d   1      15.090  48.136  -9.761  0.00  0.00     0.210 HD
ENDBRANCH  49  58
BRANCH  51  60
ATOM     60  N9  GTA d   1      16.313  50.704  -7.538  0.00  0.00    -0.296 N 
ATOM     61  C8  GTA d   1      17.127  50.987  -6.489  0.00  0.00     0.049 A 
ATOM     62  N7  GTA d   1      17.950  52.031  -6.766  0.00  0.00    -0.340 N 
ATOM     63  H6  GTA d   1      17.121  50.445  -5.544  0.00  0.00     0.141 H 
ATOM     64  C5  GTA d   1      17.646  52.400  -8.042  0.00  0.00     0.149 A 
ATOM     65  C6  GTA d   1      18.118  53.393  -8.927  0.00  0.00     0.290 A 
ATOM     66  C4  GTA d   1      16.630  51.566  -8.496  0.00  0.00     0.159 A 
ATOM     67  O6  GTA d   1      19.026  54.184  -8.555  0.00  0.00    -0.265 OA
ATOM     68  N1  GTA d   1      17.586  53.504 -10.181  0.00  0.00    -0.154 N 
ATOM     69  C2  GTA d   1      16.594  52.664 -10.574  0.00  0.00     0.680 A 
ATOM     70  H8  GTA d   1      17.927  54.203 -10.809  0.00  0.00     0.187 HD
ATOM     71  N3  GTA d   1      16.131  51.721  -9.735  0.00  0.00    -0.174 N 
ATOM     72  H7  GTA d   1      15.373  51.100 -10.050  0.00  0.00     0.186 HD
BRANCH  62  73
ATOM     73  C7  GTA d   1      18.815  52.583  -5.728  0.00  0.00    -0.013 C 
ATOM     74  H3  GTA d   1      18.759  51.951  -4.830  0.00  0.00     0.057 H 
ATOM     75  H4  GTA d   1      18.485  53.603  -5.480  0.00  0.00     0.057 H 
ATOM     76  H5  GTA d   1      19.853  52.612  -6.092  0.00  0.00     0.057 H 
ENDBRANCH  62  73
BRANCH  69  77
ATOM     77  N2  GTA d   1      16.031  52.742 -11.809  0.00  0.00    -0.234 N 
ATOM     78  H1  GTA d   1      15.280  52.089 -12.075  0.00  0.00     0.174 HD
ATOM     79  H2  GTA d   1      16.355  53.454 -12.479  0.00  0.00     0.174 HD
ENDBRANCH  69  77
ENDBRANCH  51  60
ENDBRANCH  44  47
ENDBRANCH  43  44
ENDBRANCH   1  43
TORSDOF 19
