REMARK  10 active torsions:
REMARK  status: ('A' for Active; 'I' for Inactive)
REMARK    1  A    between atoms: N6_6  and  C20_7 
REMARK    2  A    between atoms: C23_10  and  C25_11 
REMARK    3  A    between atoms: C19_16  and  N4_17 
REMARK       I    between atoms: N4_17  and  C17_18 
REMARK    4  A    between atoms: C17_18  and  C12_20 
REMARK    5  A    between atoms: C15_24  and  C16_25 
REMARK    6  A    between atoms: C10_26  and  O1_27 
REMARK    7  A    between atoms: O1_27  and  C9_28 
REMARK    8  A    between atoms: C5_33  and  C2_34 
REMARK    9  A    between atoms: C1_39  and  N5_40 
REMARK   10  A    between atoms: N5_40  and  C18_41 
ROOT
ATOM      1  C12 MR9 d   1      23.168   3.073  87.577  0.00  0.00     0.035 A 
ATOM      2  C11 MR9 d   1      22.843   2.728  86.263  0.00  0.00    -0.034 A 
ATOM      3  C13 MR9 d   1      23.613   2.075  88.449  0.00  0.00    -0.067 A 
ATOM      4  C14 MR9 d   1      23.775   0.766  87.997  0.00  0.00    -0.074 A 
ATOM      5  C15 MR9 d   1      23.472   0.434  86.682  0.00  0.00    -0.028 A 
ATOM      6  C10 MR9 d   1      23.019   1.423  85.811  0.00  0.00     0.084 A 
ATOM      7  H13 MR9 d   1      22.451   3.482  85.590  0.00  0.00     0.089 H 
ATOM      8  H14 MR9 d   1      23.833   2.320  89.482  0.00  0.00     0.085 H 
ATOM      9  H15 MR9 d   1      24.139   0.003  88.675  0.00  0.00     0.084 H 
ENDROOT
BRANCH   1  10
ATOM     10  C17 MR9 d   1      22.934   4.524  88.038  0.00  0.00     0.256 C 
ATOM     11  N4  MR9 d   1      23.144   4.754  89.343  0.00  0.00    -0.321 N 
ATOM     12  H12 MR9 d   1      23.490   3.980  89.874  0.00  0.00     0.169 HD
ATOM     13  O2  MR9 d   1      22.525   5.364  87.238  0.00  0.00    -0.267 OA
BRANCH  11  14
ATOM     14  C19 MR9 d   1      22.947   5.898  90.027  0.00  0.00     0.057 A 
ATOM     15  C20 MR9 d   1      23.676   6.131  91.201  0.00  0.00     0.037 A 
ATOM     16  C21 MR9 d   1      23.440   7.291  91.954  0.00  0.00    -0.059 A 
ATOM     17  C22 MR9 d   1      22.469   8.187  91.541  0.00  0.00    -0.066 A 
ATOM     18  H9  MR9 d   1      24.014   7.484  92.853  0.00  0.00     0.086 H 
ATOM     19  C23 MR9 d   1      21.720   7.942  90.396  0.00  0.00     0.050 A 
ATOM     20  H10 MR9 d   1      22.291   9.088  92.116  0.00  0.00     0.084 H 
ATOM     21  C24 MR9 d   1      21.959   6.805  89.639  0.00  0.00    -0.041 A 
ATOM     22  H11 MR9 d   1      21.377   6.620  88.743  0.00  0.00     0.088 H 
BRANCH  15  23
ATOM     23  N6  MR9 d   1      24.617   5.240  91.556  0.00  0.00    -0.278 NA
ATOM     24  C26 MR9 d   1      25.953   5.703  91.125  0.00  0.00     0.004 C 
ATOM     25  C27 MR9 d   1      26.899   4.500  91.183  0.00  0.00     0.031 C 
ATOM     26  H1  MR9 d   1      25.902   6.091  90.097  0.00  0.00     0.059 H 
ATOM     27  H2  MR9 d   1      26.311   6.495  91.799  0.00  0.00     0.059 H 
ATOM     28  O3  MR9 d   1      26.974   3.977  92.529  0.00  0.00    -0.389 OA
ATOM     29  H3  MR9 d   1      27.903   4.813  90.860  0.00  0.00     0.076 H 
ATOM     30  H4  MR9 d   1      26.526   3.714  90.510  0.00  0.00     0.076 H 
ATOM     31  C28 MR9 d   1      25.650   3.769  93.156  0.00  0.00     0.031 C 
ATOM     32  C29 MR9 d   1      24.662   4.936  92.998  0.00  0.00     0.004 C 
ATOM     33  H5  MR9 d   1      25.805   3.598  94.231  0.00  0.00     0.076 H 
ATOM     34  H6  MR9 d   1      25.196   2.875  92.704  0.00  0.00     0.076 H 
ATOM     35  H7  MR9 d   1      25.013   5.813  93.562  0.00  0.00     0.059 H 
ATOM     36  H8  MR9 d   1      23.665   4.643  93.358  0.00  0.00     0.059 H 
ENDBRANCH  15  23
BRANCH  19  37
ATOM     37  C25 MR9 d   1      20.675   8.970  89.952  0.00  0.00     0.417 C 
ATOM     38  F2  MR9 d   1      21.337  10.002  89.482  0.00  0.00    -0.166 F 
ATOM     39  F3  MR9 d   1      19.961   9.386  90.972  0.00  0.00    -0.166 F 
ATOM     40  F1  MR9 d   1      19.873   8.537  88.983  0.00  0.00    -0.166 F 
ENDBRANCH  19  37
ENDBRANCH  11  14
ENDBRANCH   1  10
BRANCH   6  41
ATOM     41  O1  MR9 d   1      22.701   1.128  84.514  0.00  0.00    -0.291 OA
BRANCH  41  42
ATOM     42  C9  MR9 d   1      23.645   1.129  83.541  0.00  0.00     0.182 A 
ATOM     43  N3  MR9 d   1      24.954   1.183  83.844  0.00  0.00    -0.236 NA
ATOM     44  C8  MR9 d   1      25.909   1.182  82.909  0.00  0.00     0.005 A 
ATOM     45  C7  MR9 d   1      25.561   1.126  81.559  0.00  0.00    -0.065 A 
ATOM     46  H19 MR9 d   1      26.953   1.225  83.199  0.00  0.00     0.114 H 
ATOM     47  C6  MR9 d   1      24.210   1.064  81.215  0.00  0.00    -0.065 A 
ATOM     48  H20 MR9 d   1      26.326   1.131  80.791  0.00  0.00     0.085 H 
ATOM     49  C5  MR9 d   1      23.230   1.075  82.213  0.00  0.00     0.047 A 
ATOM     50  H21 MR9 d   1      23.919   1.007  80.172  0.00  0.00     0.085 H 
BRANCH  49  51
ATOM     51  C2  MR9 d   1      21.874   0.987  81.852  0.00  0.00     0.091 A 
ATOM     52  N1  MR9 d   1      21.551   0.872  80.553  0.00  0.00    -0.062 NA
ATOM     53  C1  MR9 d   1      20.278   0.748  80.160  0.00  0.00     0.722 A 
ATOM     54  N2  MR9 d   1      19.288   0.738  81.062  0.00  0.00    -0.075 NA
ATOM     55  C4  MR9 d   1      19.525   0.847  82.354  0.00  0.00     0.023 A 
ATOM     56  C3  MR9 d   1      20.837   0.967  82.796  0.00  0.00    -0.036 A 
ATOM     57  H23 MR9 d   1      18.706   0.843  83.064  0.00  0.00     0.115 H 
ATOM     58  H22 MR9 d   1      21.056   1.044  83.855  0.00  0.00     0.089 H 
BRANCH  53  59
ATOM     59  N5  MR9 d   1      20.001   0.655  78.862  0.00  0.00    -0.227 N 
ATOM     60  H24 MR9 d   1      19.033   0.497  78.549  0.00  0.00     0.177 HD
BRANCH  59  61
ATOM     61  C18 MR9 d   1      21.088   0.780  77.875  0.00  0.00    -0.005 C 
ATOM     62  H25 MR9 d   1      20.675   0.678  76.860  0.00  0.00     0.057 H 
ATOM     63  H26 MR9 d   1      21.834  -0.010  78.049  0.00  0.00     0.057 H 
ATOM     64  H27 MR9 d   1      21.566   1.765  77.979  0.00  0.00     0.057 H 
ENDBRANCH  59  61
ENDBRANCH  53  59
ENDBRANCH  49  51
ENDBRANCH  41  42
ENDBRANCH   6  41
BRANCH   5  65
ATOM     65  C16 MR9 d   1      23.656  -1.019  86.193  0.00  0.00    -0.049 C 
ATOM     66  H16 MR9 d   1      24.018  -1.642  87.024  0.00  0.00     0.033 H 
ATOM     67  H17 MR9 d   1      24.388  -1.040  85.373  0.00  0.00     0.033 H 
ATOM     68  H18 MR9 d   1      22.692  -1.410  85.834  0.00  0.00     0.033 H 
ENDBRANCH   5  65
TORSDOF 10
