REMARK  20 active torsions:
REMARK  status: ('A' for Active; 'I' for Inactive)
REMARK    1  A    between atoms: N1_18  and  C4_4 
REMARK    2  A    between atoms: C8_9  and  C13_14 
REMARK    3  A    between atoms: C8_9  and  C17_22 
REMARK    4  A    between atoms: N3_38  and  C8_9 
REMARK    5  A    between atoms: C9_10  and  C14_17 
REMARK    6  A    between atoms: C9_10  and  C18_23 
REMARK    7  A    between atoms: N4_27  and  C9_10 
REMARK    8  A    between atoms: C10_11  and  C15_19 
REMARK    9  A    between atoms: C11_12  and  C20_25 
REMARK   10  A    between atoms: C11_12  and  C26_35 
REMARK   11  A    between atoms: N6_41  and  C11_12 
REMARK       I    between atoms: C13_14  and  N4_27 
REMARK   12  A    between atoms: C26_35  and  O2_15 
REMARK       I    between atoms: C14_17  and  N5_40 
REMARK       I    between atoms: C32_42  and  N1_18 
REMARK       I    between atoms: C15_19  and  N6_41 
REMARK   13  A    between atoms: C18_23  and  C21_26 
REMARK   14  A    between atoms: C18_23  and  C22_31 
REMARK   15  A    between atoms: C18_23  and  C23_32 
REMARK   16  A    between atoms: C20_25  and  C24_33 
REMARK   17  A    between atoms: C24_33  and  C33_43 
REMARK   18  A    between atoms: C26_35  and  C32_42 
REMARK       I    between atoms: C41_45  and  N3_38 
REMARK   19  A    between atoms: C36_49  and  C41_45 
REMARK   20  A    between atoms: C35_51  and  N7_52 
ROOT
ATOM      1  C1  GG4 d   1      84.404  76.135  48.926  0.00  0.00    -0.032 C 
ATOM      2  C2  GG4 d   1      83.674  76.034  50.301  0.00  0.00     0.019 C 
ATOM      3  C10 GG4 d   1      84.507  73.637  49.303  0.00  0.00     0.092 C 
ATOM      4  C14 GG4 d   1      83.123  73.511  51.586  0.00  0.00     0.244 C 
ATOM      5  C19 GG4 d   1      85.192  74.853  48.662  0.00  0.00    -0.033 C 
ATOM      6  O7  GG4 d   1      83.228  72.282  51.747  0.00  0.00    -0.271 OA
ATOM      7  C25 GG4 d   1      85.016  77.535  48.684  0.00  0.00    -0.060 C 
ATOM      8  C27 GG4 d   1      84.612  76.414  51.464  0.00  0.00    -0.045 C 
ATOM      9  N5  GG4 d   1      83.670  74.381  50.391  0.00  0.00    -0.332 N 
ATOM     10  C29 GG4 d   1      85.712  77.472  51.144  0.00  0.00    -0.063 C 
ATOM     11  C30 GG4 d   1      85.336  78.372  49.948  0.00  0.00    -0.065 C 
ATOM     12  H1  GG4 d   1      83.601  76.092  48.175  0.00  0.00     0.043 H 
ATOM     13  H2  GG4 d   1      82.696  76.536  50.340  0.00  0.00     0.073 H 
ATOM     14  H13 GG4 d   1      83.857  73.112  48.588  0.00  0.00     0.087 H 
ATOM     15  H22 GG4 d   1      86.202  74.960  49.084  0.00  0.00     0.037 H 
ATOM     16  H23 GG4 d   1      85.263  74.693  47.576  0.00  0.00     0.037 H 
ATOM     17  H39 GG4 d   1      84.305  78.110  48.072  0.00  0.00     0.033 H 
ATOM     18  H40 GG4 d   1      85.954  77.399  48.126  0.00  0.00     0.033 H 
ATOM     19  H42 GG4 d   1      85.117  75.497  51.801  0.00  0.00     0.036 H 
ATOM     20  H43 GG4 d   1      83.991  76.812  52.280  0.00  0.00     0.036 H 
ATOM     21  H50 GG4 d   1      86.649  76.946  50.909  0.00  0.00     0.033 H 
ATOM     22  H51 GG4 d   1      85.860  78.107  52.030  0.00  0.00     0.033 H 
ATOM     23  H52 GG4 d   1      84.451  78.969  50.215  0.00  0.00     0.033 H 
ATOM     24  H53 GG4 d   1      86.179  79.044  49.728  0.00  0.00     0.033 H 
ENDROOT
BRANCH   4  25
ATOM     25  C9  GG4 d   1      82.381  74.390  52.599  0.00  0.00     0.096 C 
ATOM     26  H12 GG4 d   1      82.921  75.332  52.425  0.00  0.00     0.088 H 
BRANCH  25  27
ATOM     27  C18 GG4 d   1      82.700  74.276  54.177  0.00  0.00    -0.022 C 
BRANCH  27  28
ATOM     28  C21 GG4 d   1      82.424  75.635  54.930  0.00  0.00    -0.067 C 
ATOM     29  H26 GG4 d   1      82.653  75.515  55.999  0.00  0.00     0.028 H 
ATOM     30  H27 GG4 d   1      81.366  75.912  54.811  0.00  0.00     0.028 H 
ATOM     31  H28 GG4 d   1      83.060  76.425  54.505  0.00  0.00     0.028 H 
ENDBRANCH  27  28
BRANCH  27  32
ATOM     32  C22 GG4 d   1      84.258  73.993  54.344  0.00  0.00    -0.067 C 
ATOM     33  H31 GG4 d   1      84.516  73.052  53.837  0.00  0.00     0.028 H 
ATOM     34  H32 GG4 d   1      84.504  73.913  55.413  0.00  0.00     0.028 H 
ATOM     35  H33 GG4 d   1      84.831  74.819  53.897  0.00  0.00     0.028 H 
ENDBRANCH  27  32
BRANCH  27  36
ATOM     36  C23 GG4 d   1      81.771  73.106  54.821  0.00  0.00    -0.067 C 
ATOM     37  H34 GG4 d   1      80.710  73.358  54.675  0.00  0.00     0.028 H 
ATOM     38  H35 GG4 d   1      81.982  73.021  55.897  0.00  0.00     0.028 H 
ATOM     39  H36 GG4 d   1      81.992  72.148  54.327  0.00  0.00     0.028 H 
ENDBRANCH  27  36
ENDBRANCH  25  27
BRANCH  25  40
ATOM     40  N4  GG4 d   1      81.050  74.810  52.105  0.00  0.00    -0.345 N 
ATOM     41  C13 GG4 d   1      80.398  75.934  52.500  0.00  0.00     0.241 C 
ATOM     42  O6  GG4 d   1      80.921  77.013  52.822  0.00  0.00    -0.271 OA
ATOM     43  H29 GG4 d   1      80.599  74.224  51.432  0.00  0.00     0.163 HD
BRANCH  41  44
ATOM     44  C8  GG4 d   1      78.880  75.739  52.517  0.00  0.00     0.093 C 
ATOM     45  H11 GG4 d   1      78.726  74.651  52.575  0.00  0.00     0.088 H 
BRANCH  44  46
ATOM     46  C17 GG4 d   1      78.245  76.171  51.177  0.00  0.00    -0.026 C 
ATOM     47  C5  GG4 d   1      76.755  75.776  51.155  0.00  0.00    -0.059 C 
ATOM     48  C3  GG4 d   1      76.118  75.671  49.757  0.00  0.00    -0.065 C 
ATOM     49  H6  GG4 d   1      76.657  74.797  51.647  0.00  0.00     0.033 H 
ATOM     50  H7  GG4 d   1      76.196  76.531  51.727  0.00  0.00     0.033 H 
ATOM     51  C16 GG4 d   1      77.063  75.014  48.723  0.00  0.00    -0.065 C 
ATOM     52  H3  GG4 d   1      75.863  76.683  49.409  0.00  0.00     0.033 H 
ATOM     53  H4  GG4 d   1      75.202  75.067  49.831  0.00  0.00     0.033 H 
ATOM     54  C12 GG4 d   1      78.445  75.715  48.631  0.00  0.00    -0.065 C 
ATOM     55  H19 GG4 d   1      76.583  75.055  47.734  0.00  0.00     0.033 H 
ATOM     56  H20 GG4 d   1      77.221  73.964  49.011  0.00  0.00     0.033 H 
ATOM     57  C6  GG4 d   1      79.146  75.766  49.996  0.00  0.00    -0.059 C 
ATOM     58  H15 GG4 d   1      79.080  75.160  47.924  0.00  0.00     0.033 H 
ATOM     59  H16 GG4 d   1      78.300  76.742  48.266  0.00  0.00     0.033 H 
ATOM     60  H8  GG4 d   1      79.969  76.493  49.930  0.00  0.00     0.033 H 
ATOM     61  H9  GG4 d   1      79.555  74.767  50.207  0.00  0.00     0.033 H 
ATOM     62  H21 GG4 d   1      78.247  77.271  51.167  0.00  0.00     0.043 H 
ENDBRANCH  44  46
BRANCH  44  63
ATOM     63  N3  GG4 d   1      78.216  76.274  53.712  0.00  0.00    -0.342 N 
ATOM     64  C41 GG4 d   1      78.477  75.733  54.974  0.00  0.00     0.269 C 
ATOM     65  O12 GG4 d   1      78.766  74.542  55.195  0.00  0.00    -0.266 OA
ATOM     66  H45 GG4 d   1      77.571  77.033  53.622  0.00  0.00     0.163 HD
BRANCH  64  67
ATOM     67  C36 GG4 d   1      78.380  76.672  56.020  0.00  0.00     0.103 A 
ATOM     68  N2  GG4 d   1      77.976  76.397  57.361  0.00  0.00    -0.359 N 
ATOM     69  C31 GG4 d   1      78.005  77.638  58.040  0.00  0.00     0.009 A 
ATOM     70  H30 GG4 d   1      77.716  75.481  57.755  0.00  0.00     0.165 HD
ATOM     71  C35 GG4 d   1      78.438  78.680  57.088  0.00  0.00     0.120 A 
ATOM     72  H54 GG4 d   1      77.751  77.797  59.087  0.00  0.00     0.115 H 
ATOM     73  C34 GG4 d   1      78.692  78.079  55.783  0.00  0.00    -0.018 A 
ATOM     74  H55 GG4 d   1      79.029  78.558  54.865  0.00  0.00     0.091 H 
BRANCH  71  75
ATOM     75  N7  GG4 d   1      78.528  80.181  57.332  0.00  0.00    -0.114 N 
ATOM     76  O1  GG4 d   1      78.513  80.522  58.613  0.00  0.00    -0.532 OA
ATOM     77  O3  GG4 d   1      78.594  81.000  56.302  0.00  0.00    -0.532 OA
ENDBRANCH  71  75
ENDBRANCH  64  67
ENDBRANCH  44  63
ENDBRANCH  41  44
ENDBRANCH  25  40
ENDBRANCH   4  25
BRANCH   3  78
ATOM     78  C15 GG4 d   1      85.533  72.626  49.879  0.00  0.00     0.241 C 
ATOM     79  O8  GG4 d   1      86.626  73.013  50.361  0.00  0.00    -0.271 OA
ATOM     80  N6  GG4 d   1      85.109  71.271  49.807  0.00  0.00    -0.352 N 
ATOM     81  H46 GG4 d   1      84.144  71.114  49.596  0.00  0.00     0.163 HD
BRANCH  80  82
ATOM     82  C11 GG4 d   1      85.963  70.046  50.016  0.00  0.00     0.045 C 
ATOM     83  H14 GG4 d   1      86.671  70.307  50.816  0.00  0.00     0.077 H 
BRANCH  82  84
ATOM     84  C20 GG4 d   1      85.151  68.849  50.537  0.00  0.00    -0.044 C 
ATOM     85  H24 GG4 d   1      85.850  68.130  50.988  0.00  0.00     0.036 H 
ATOM     86  H25 GG4 d   1      84.644  68.380  49.681  0.00  0.00     0.036 H 
BRANCH  84  87
ATOM     87  C24 GG4 d   1      84.100  69.203  51.575  0.00  0.00    -0.067 C 
ATOM     88  H37 GG4 d   1      83.274  68.477  51.540  0.00  0.00     0.032 H 
ATOM     89  H38 GG4 d   1      83.708  70.214  51.388  0.00  0.00     0.032 H 
BRANCH  87  90
ATOM     90  C33 GG4 d   1      84.782  69.151  52.926  0.00  0.00    -0.076 C 
ATOM     91  H47 GG4 d   1      84.056  69.402  53.713  0.00  0.00     0.027 H 
ATOM     92  H48 GG4 d   1      85.610  69.875  52.947  0.00  0.00     0.027 H 
ATOM     93  H49 GG4 d   1      85.176  68.139  53.099  0.00  0.00     0.027 H 
ENDBRANCH  87  90
ENDBRANCH  84  87
ENDBRANCH  82  84
BRANCH  82  94
ATOM     94  C26 GG4 d   1      86.865  69.657  48.737  0.00  0.00     0.131 C 
ATOM     95  H41 GG4 d   1      86.251  69.199  47.948  0.00  0.00     0.101 H 
BRANCH  94  96
ATOM     96  O2  GG4 d   1      87.616  70.871  48.221  0.00  0.00    -0.384 OA
ATOM     97  H17 GG4 d   1      86.994  71.542  47.966  0.00  0.00     0.210 HD
ENDBRANCH  94  96
BRANCH  94  98
ATOM     98  C32 GG4 d   1      87.918  68.756  49.213  0.00  0.00     0.249 C 
ATOM     99  N1  GG4 d   1      89.183  69.210  49.052  0.00  0.00    -0.348 N 
ATOM    100  H18 GG4 d   1      89.364  69.916  48.367  0.00  0.00     0.163 HD
ATOM    101  O10 GG4 d   1      87.607  67.681  49.715  0.00  0.00    -0.271 OA
BRANCH  99 102
ATOM    102  C4  GG4 d   1      90.306  68.687  49.865  0.00  0.00     0.045 A 
ATOM    103  C7  GG4 d   1      91.253  69.790  50.501  0.00  0.00    -0.079 A 
ATOM    104  C28 GG4 d   1      90.453  69.404  51.279  0.00  0.00    -0.079 A 
ATOM    105  H10 GG4 d   1      92.092  70.463  50.331  0.00  0.00     0.080 H 
ATOM    106  H44 GG4 d   1      90.069  69.485  52.295  0.00  0.00     0.080 H 
ATOM    107  H5  GG4 d   1      90.594  67.654  49.620  0.00  0.00     0.085 H 
ENDBRANCH  99 102
ENDBRANCH  94  98
ENDBRANCH  82  94
ENDBRANCH  80  82
ENDBRANCH   3  78
TORSDOF 20
