REMARK  18 active torsions:
REMARK  status: ('A' for Active; 'I' for Inactive)
REMARK    1  A    between atoms: C7_7  and  C2_2 
REMARK    2  A    between atoms: N1_8  and  C7_7 
REMARK    3  A    between atoms: C7_7  and  C18_25 
REMARK       I    between atoms: C8_9  and  N1_8 
REMARK    4  A    between atoms: C9_10  and  C8_9 
REMARK    5  A    between atoms: C17_20  and  C11_12 
REMARK    6  A    between atoms: C13_14  and  N2_16 
REMARK    7  A    between atoms: N2_16  and  S1_17 
REMARK    8  A    between atoms: N2_16  and  C16_19 
REMARK    9  A    between atoms: S1_17  and  C15_18 
REMARK       I    between atoms: N3_26  and  C17_20 
REMARK   10  A    between atoms: C19_27  and  N3_26 
REMARK   11  A    between atoms: C19_27  and  C20_28 
REMARK   12  A    between atoms: C27_35  and  C19_27 
REMARK   13  A    between atoms: C20_28  and  C21_29 
REMARK   14  A    between atoms: C27_35  and  O5_36 
REMARK   15  A    between atoms: C29_40  and  C27_35 
REMARK   16  A    between atoms: C28_38  and  C32_45 
REMARK   17  A    between atoms: C28_38  and  C33_46 
REMARK   18  A    between atoms: N5_42  and  C31_44 
ROOT
ATOM      1  C17 MY9 d   1      30.135  39.954   0.760  0.00  0.00     0.252 C 
ATOM      2  O4  MY9 d   1      29.903  39.294  -0.256  0.00  0.00    -0.268 OA
ATOM      3  N3  MY9 d   1      30.716  39.410   1.872  0.00  0.00    -0.349 N 
ATOM      4  H19 MY9 d   1      30.660  39.895   2.745  0.00  0.00     0.163 HD
ENDROOT
BRANCH   1   5
ATOM      5  C11 MY9 d   1      29.800  41.375   0.838  0.00  0.00     0.035 A 
ATOM      6  C10 MY9 d   1      30.774  42.332   1.232  0.00  0.00    -0.052 A 
ATOM      7  C9  MY9 d   1      30.445  43.727   1.341  0.00  0.00     0.035 A 
ATOM      8  H7  MY9 d   1      31.783  42.004   1.454  0.00  0.00     0.086 H 
ATOM      9  C14 MY9 d   1      29.116  44.144   0.934  0.00  0.00    -0.041 A 
ATOM     10  C13 MY9 d   1      28.105  43.200   0.485  0.00  0.00     0.046 A 
ATOM     11  H9  MY9 d   1      28.867  45.199   0.966  0.00  0.00     0.088 H 
ATOM     12  C12 MY9 d   1      28.472  41.807   0.471  0.00  0.00    -0.041 A 
ATOM     13  H8  MY9 d   1      27.735  41.067   0.179  0.00  0.00     0.088 H 
BRANCH   7  14
ATOM     14  C8  MY9 d   1      31.422  44.677   1.921  0.00  0.00     0.252 C 
ATOM     15  N1  MY9 d   1      32.207  44.191   2.944  0.00  0.00    -0.349 N 
ATOM     16  H6  MY9 d   1      32.135  43.212   3.137  0.00  0.00     0.163 HD
ATOM     17  O1  MY9 d   1      31.547  45.841   1.533  0.00  0.00    -0.268 OA
BRANCH  15  18
ATOM     18  C7  MY9 d   1      33.131  44.954   3.774  0.00  0.00     0.034 C 
ATOM     19  H5  MY9 d   1      33.349  45.896   3.249  0.00  0.00     0.079 H 
BRANCH  18  20
ATOM     20  C2  MY9 d   1      32.606  45.304   5.117  0.00  0.00    -0.036 A 
ATOM     21  C1  MY9 d   1      32.185  44.274   6.081  0.00  0.00    -0.072 A 
ATOM     22  C6  MY9 d   1      31.773  44.705   7.384  0.00  0.00    -0.045 A 
ATOM     23  H1  MY9 d   1      32.187  43.224   5.814  0.00  0.00     0.084 H 
ATOM     24  C5  MY9 d   1      31.764  46.137   7.622  0.00  0.00     0.116 A 
ATOM     25  H4  MY9 d   1      31.483  43.998   8.153  0.00  0.00     0.088 H 
ATOM     26  C4  MY9 d   1      32.119  47.166   6.677  0.00  0.00    -0.045 A 
ATOM     27  F1  MY9 d   1      31.392  46.536   8.846  0.00  0.00    -0.206 F 
ATOM     28  C3  MY9 d   1      32.573  46.734   5.377  0.00  0.00    -0.072 A 
ATOM     29  H3  MY9 d   1      32.048  48.217   6.931  0.00  0.00     0.088 H 
ATOM     30  H2  MY9 d   1      32.878  47.450   4.622  0.00  0.00     0.084 H 
ENDBRANCH  18  20
BRANCH  18  31
ATOM     31  C18 MY9 d   1      34.442  44.163   3.924  0.00  0.00    -0.053 C 
ATOM     32  H16 MY9 d   1      35.145  44.733   4.550  0.00  0.00     0.030 H 
ATOM     33  H17 MY9 d   1      34.886  43.998   2.931  0.00  0.00     0.030 H 
ATOM     34  H18 MY9 d   1      34.233  43.193   4.398  0.00  0.00     0.030 H 
ENDBRANCH  18  31
ENDBRANCH  15  18
ENDBRANCH   7  14
BRANCH  10  35
ATOM     35  N2  MY9 d   1      26.804  43.556   0.079  0.00  0.00    -0.281 N 
BRANCH  35  36
ATOM     36  S1  MY9 d   1      25.942  44.783   0.785  0.00  0.00     0.228 S 
ATOM     37  O2  MY9 d   1      26.454  44.928   2.118  0.00  0.00    -0.206 OA
ATOM     38  O3  MY9 d   1      24.539  44.487   0.679  0.00  0.00    -0.206 OA
BRANCH  36  39
ATOM     39  C15 MY9 d   1      26.271  46.356   0.007  0.00  0.00     0.033 C 
ATOM     40  H10 MY9 d   1      25.681  47.141   0.503  0.00  0.00     0.051 H 
ATOM     41  H11 MY9 d   1      25.992  46.305  -1.056  0.00  0.00     0.051 H 
ATOM     42  H12 MY9 d   1      27.342  46.591   0.094  0.00  0.00     0.051 H 
ENDBRANCH  36  39
ENDBRANCH  35  36
BRANCH  35  43
ATOM     43  C16 MY9 d   1      26.244  43.003  -1.197  0.00  0.00    -0.004 C 
ATOM     44  H13 MY9 d   1      26.899  42.200  -1.567  0.00  0.00     0.058 H 
ATOM     45  H14 MY9 d   1      26.185  43.804  -1.949  0.00  0.00     0.058 H 
ATOM     46  H15 MY9 d   1      25.238  42.599  -1.011  0.00  0.00     0.058 H 
ENDBRANCH  35  43
ENDBRANCH  10  35
ENDBRANCH   1   5
BRANCH   3  47
ATOM     47  C19 MY9 d   1      31.429  38.110   1.802  0.00  0.00     0.043 C 
ATOM     48  H20 MY9 d   1      31.399  37.724   0.772  0.00  0.00     0.077 H 
BRANCH  47  49
ATOM     49  C20 MY9 d   1      32.882  38.347   2.221  0.00  0.00    -0.020 C 
ATOM     50  H21 MY9 d   1      33.429  37.403   2.079  0.00  0.00     0.043 H 
ATOM     51  H22 MY9 d   1      32.883  38.614   3.288  0.00  0.00     0.043 H 
BRANCH  49  52
ATOM     52  C21 MY9 d   1      33.645  39.447   1.464  0.00  0.00    -0.056 A 
ATOM     53  C22 MY9 d   1      33.532  39.679   0.009  0.00  0.00    -0.077 A 
ATOM     54  C23 MY9 d   1      34.312  40.745  -0.579  0.00  0.00    -0.082 A 
ATOM     55  H23 MY9 d   1      32.880  39.065  -0.602  0.00  0.00     0.084 H 
ATOM     56  C24 MY9 d   1      35.167  41.555   0.278  0.00  0.00    -0.083 A 
ATOM     57  H24 MY9 d   1      34.261  40.939  -1.644  0.00  0.00     0.083 H 
ATOM     58  C25 MY9 d   1      35.314  41.319   1.708  0.00  0.00    -0.082 A 
ATOM     59  H25 MY9 d   1      35.720  42.373  -0.170  0.00  0.00     0.083 H 
ATOM     60  C26 MY9 d   1      34.517  40.256   2.303  0.00  0.00    -0.077 A 
ATOM     61  H26 MY9 d   1      35.993  41.914   2.308  0.00  0.00     0.083 H 
ATOM     62  H27 MY9 d   1      34.573  40.067   3.369  0.00  0.00     0.084 H 
ENDBRANCH  49  52
ENDBRANCH  47  49
BRANCH  47  63
ATOM     63  C27 MY9 d   1      30.754  37.083   2.755  0.00  0.00     0.091 C 
ATOM     64  H28 MY9 d   1      30.730  37.514   3.767  0.00  0.00     0.090 H 
BRANCH  63  65
ATOM     65  O5  MY9 d   1      31.426  35.930   2.807  0.00  0.00    -0.391 OA
ATOM     66  H29 MY9 d   1      32.307  36.092   3.122  0.00  0.00     0.210 HD
ENDBRANCH  63  65
BRANCH  63  67
ATOM     67  C29 MY9 d   1      29.284  36.820   2.284  0.00  0.00     0.207 C 
ATOM     68  N4  MY9 d   1      28.607  35.862   3.167  0.00  0.00    -0.034 N 
ATOM     69  C28 MY9 d   1      27.561  35.340   2.287  0.00  0.00     0.195 C 
ATOM     70  H30 MY9 d   1      29.234  35.132   3.467  0.00  0.00     0.281 HD
ATOM     71  H31 MY9 d   1      28.214  36.320   3.974  0.00  0.00     0.281 HD
ATOM     72  N5  MY9 d   1      28.210  35.296   0.962  0.00  0.00    -0.322 N 
ATOM     73  C30 MY9 d   1      29.260  36.119   0.928  0.00  0.00     0.255 C 
ATOM     74  O6  MY9 d   1      29.993  36.228  -0.051  0.00  0.00    -0.271 OA
ATOM     75  H32 MY9 d   1      28.737  37.773   2.244  0.00  0.00     0.104 H 
BRANCH  69  76
ATOM     76  C32 MY9 d   1      26.334  36.284   2.247  0.00  0.00    -0.029 C 
ATOM     77  H36 MY9 d   1      25.569  35.863   1.578  0.00  0.00     0.033 H 
ATOM     78  H37 MY9 d   1      26.643  37.272   1.874  0.00  0.00     0.033 H 
ATOM     79  H38 MY9 d   1      25.918  36.388   3.260  0.00  0.00     0.033 H 
ENDBRANCH  69  76
BRANCH  69  80
ATOM     80  C33 MY9 d   1      27.154  33.962   2.791  0.00  0.00    -0.029 C 
ATOM     81  H39 MY9 d   1      26.367  33.552   2.141  0.00  0.00     0.033 H 
ATOM     82  H40 MY9 d   1      26.774  34.045   3.820  0.00  0.00     0.033 H 
ATOM     83  H41 MY9 d   1      28.027  33.293   2.776  0.00  0.00     0.033 H 
ENDBRANCH  69  80
BRANCH  72  84
ATOM     84  C31 MY9 d   1      27.738  34.409  -0.102  0.00  0.00    -0.014 C 
ATOM     85  H33 MY9 d   1      28.366  34.542  -0.996  0.00  0.00     0.056 H 
ATOM     86  H34 MY9 d   1      26.694  34.654  -0.347  0.00  0.00     0.056 H 
ATOM     87  H35 MY9 d   1      27.800  33.364   0.237  0.00  0.00     0.056 H 
ENDBRANCH  72  84
ENDBRANCH  63  67
ENDBRANCH  47  63
ENDBRANCH   3  47
TORSDOF 18
