REMARK  1 active torsions:
REMARK  status: ('A' for Active; 'I' for Inactive)
REMARK    1  A    between atoms: C6_5  and  N6_6 
ROOT
ATOM      1  N9  ADE d   1     -23.221  11.974  -8.643  0.00  0.00    -0.333 N 
ATOM      2  C8  ADE d   1     -23.943  12.366  -7.540  0.00  0.00     0.066 A 
ATOM      3  N7  ADE d   1     -24.242  11.397  -6.727  0.00  0.00    -0.236 NA
ATOM      4  C5  ADE d   1     -23.688  10.297  -7.300  0.00  0.00     0.149 A 
ATOM      5  C6  ADE d   1     -23.669   8.949  -6.925  0.00  0.00     0.155 A 
ATOM      6  N1  ADE d   1     -23.006   8.106  -7.770  0.00  0.00    -0.222 NA
ATOM      7  C2  ADE d   1     -22.438   8.584  -8.891  0.00  0.00     0.091 A 
ATOM      8  N3  ADE d   1     -22.392   9.815  -9.355  0.00  0.00    -0.222 NA
ATOM      9  C4  ADE d   1     -23.061  10.625  -8.493  0.00  0.00     0.162 A 
ATOM     10  H1  ADE d   1     -24.239  13.399  -7.363  0.00  0.00     0.143 H 
ATOM     11  H2  ADE d   1     -22.877  12.566  -9.412  0.00  0.00     0.168 HD
ATOM     12  H5  ADE d   1     -21.942   7.842  -9.507  0.00  0.00     0.146 H 
ENDROOT
BRANCH   5  13
ATOM     13  N6  ADE d   1     -24.252   8.530  -5.794  0.00  0.00    -0.382 N 
ATOM     14  H3  ADE d   1     -24.225   7.532  -5.540  0.00  0.00     0.157 HD
ATOM     15  H4  ADE d   1     -24.728   9.206  -5.179  0.00  0.00     0.157 HD
ENDBRANCH   5  13
TORSDOF 1
