REMARK  1 active torsions:
REMARK  status: ('A' for Active; 'I' for Inactive)
REMARK    1  A    between atoms: C15_13  and  C14_1 
ROOT
ATOM      1  C17 BVA d   1      26.423   5.071  40.390  0.00  0.00    -0.069 A 
ATOM      2  C19 BVA d   1      25.824   5.645  42.627  0.00  0.00    -0.083 A 
ATOM      3  C21 BVA d   1      26.266   3.368  42.055  0.00  0.00    -0.069 A 
ATOM      4  C20 BVA d   1      25.914   4.329  42.990  0.00  0.00    -0.082 A 
ATOM      5  C18 BVA d   1      26.068   6.027  41.334  0.00  0.00    -0.082 A 
ATOM      6  C15 BVA d   1      26.511   3.737  40.751  0.00  0.00     0.020 A 
ATOM      7  H1  BVA d   1      26.631   5.370  39.369  0.00  0.00     0.085 H 
ATOM      8  H2  BVA d   1      25.558   6.391  43.367  0.00  0.00     0.083 H 
ATOM      9  H3  BVA d   1      26.348   2.328  42.350  0.00  0.00     0.085 H 
ATOM     10  H4  BVA d   1      25.709   4.036  44.014  0.00  0.00     0.083 H 
ATOM     11  H5  BVA d   1      25.985   7.069  41.049  0.00  0.00     0.083 H 
ENDROOT
BRANCH   6  12
ATOM     12  C14 BVA d   1      26.829   2.742  39.704  0.00  0.00     0.211 A 
ATOM     13  O10 BVA d   1      26.994   3.067  38.485  0.00  0.00    -0.169 OA
ATOM     14  V16 BVA d   1      27.224   1.422  37.402  0.00  0.00     0.000 V 
ATOM     15  O8  BVA d   1      27.178   0.537  39.074  0.00  0.00    -0.086 OA
ATOM     16  O9  BVA d   1      25.678   0.697  36.789  0.00  0.00     0.000 OA
ATOM     17  O11 BVA d   1      28.222  -0.024  36.714  0.00  0.00     0.000 OA
ATOM     18  O12 BVA d   1      28.914   2.163  37.898  0.00  0.00     0.000 OA
ATOM     19  N13 BVA d   1      26.931   1.483  40.010  0.00  0.00    -0.208 N 
ATOM     20  H6  BVA d   1      26.824   1.205  40.965  0.00  0.00     0.199 HD
ENDBRANCH   6  12
TORSDOF 1
