REMARK  4 active torsions:
REMARK  status: ('A' for Active; 'I' for Inactive)
REMARK    1  A    between atoms: C3_3  and  C9_7 
REMARK    2  A    between atoms: C12_10  and  N21_13 
REMARK    3  A    between atoms: C14_12  and  N38_24 
REMARK    4  A    between atoms: C33_19  and  C39_25 
ROOT
ATOM      1  C9  417 d   1      38.519  51.118  36.618  0.00  0.00     0.002 C 
ATOM      2  C10 417 d   1      39.453  50.373  37.606  0.00  0.00    -0.054 C 
ATOM      3  C11 417 d   1      40.755  51.173  37.819  0.00  0.00    -0.037 C 
ATOM      4  C12 417 d   1      41.520  51.431  36.479  0.00  0.00     0.106 C 
ATOM      5  C13 417 d   1      40.580  52.147  35.469  0.00  0.00    -0.011 C 
ATOM      6  C14 417 d   1      39.264  51.362  35.258  0.00  0.00     0.109 C 
ATOM      7  H3  417 d   1      38.279  52.098  37.056  0.00  0.00     0.050 H 
ATOM      8  H4  417 d   1      39.699  49.382  37.196  0.00  0.00     0.034 H 
ATOM      9  H5  417 d   1      38.939  50.253  38.571  0.00  0.00     0.034 H 
ATOM     10  H6  417 d   1      41.411  50.607  38.497  0.00  0.00     0.036 H 
ATOM     11  H7  417 d   1      40.504  52.142  38.275  0.00  0.00     0.036 H 
ATOM     12  H8  417 d   1      41.800  50.453  36.060  0.00  0.00     0.084 H 
ATOM     13  H9  417 d   1      41.099  52.240  34.503  0.00  0.00     0.039 H 
ATOM     14  H10 417 d   1      40.340  53.149  35.854  0.00  0.00     0.039 H 
ATOM     15  H11 417 d   1      39.517  50.382  34.827  0.00  0.00     0.085 H 
ENDROOT
BRANCH   4  16
ATOM     16  N21 417 d   1      42.779  52.230  36.655  0.00  0.00    -0.059 N 
ATOM     17  C22 417 d   1      43.924  51.403  37.144  0.00  0.00     0.099 C 
ATOM     18  C23 417 d   1      45.280  52.169  37.108  0.00  0.00     0.025 C 
ATOM     19  H13 417 d   1      44.008  50.509  36.509  0.00  0.00     0.078 H 
ATOM     20  H14 417 d   1      43.720  51.098  38.181  0.00  0.00     0.078 H 
ATOM     21  N24 417 d   1      45.126  53.595  37.507  0.00  0.00    -0.310 N 
ATOM     22  H15 417 d   1      45.684  52.128  36.086  0.00  0.00     0.067 H 
ATOM     23  H16 417 d   1      45.982  51.681  37.800  0.00  0.00     0.067 H 
ATOM     24  C25 417 d   1      43.947  54.213  37.704  0.00  0.00     0.156 A 
ATOM     25  C33 417 d   1      46.035  54.557  37.768  0.00  0.00     0.237 A 
ATOM     26  C26 417 d   1      42.628  53.465  37.526  0.00  0.00     0.140 C 
ATOM     27  N35 417 d   1      44.136  55.483  38.055  0.00  0.00    -0.133 NA
ATOM     28  H17 417 d   1      42.260  53.157  38.516  0.00  0.00     0.088 H 
ATOM     29  H18 417 d   1      41.898  54.142  37.057  0.00  0.00     0.088 H 
ATOM     30  N34 417 d   1      45.368  55.689  38.091  0.00  0.00    -0.125 NA
ATOM     31  H12 417 d   1      43.028  52.558  35.735  0.00  0.00     0.280 HD
BRANCH  25  32
ATOM     32  C39 417 d   1      47.557  54.419  37.708  0.00  0.00     0.453 C 
ATOM     33  F40 417 d   1      48.117  55.587  38.025  0.00  0.00    -0.163 F 
ATOM     34  F41 417 d   1      47.882  54.048  36.474  0.00  0.00    -0.163 F 
ATOM     35  F42 417 d   1      47.907  53.485  38.585  0.00  0.00    -0.163 F 
ENDBRANCH  25  32
ENDBRANCH   4  16
BRANCH   6  36
ATOM     36  N38 417 d   1      38.391  52.067  34.315  0.00  0.00    -0.074 N 
ATOM     37  H19 417 d   1      37.539  51.543  34.189  0.00  0.00     0.274 HD
ATOM     38  H20 417 d   1      38.861  52.162  33.428  0.00  0.00     0.274 HD
ATOM     39  H21 417 d   1      38.172  52.981  34.679  0.00  0.00     0.274 HD
ENDBRANCH   6  36
BRANCH   1  40
ATOM     40  C3  417 d   1      37.210  50.382  36.393  0.00  0.00    -0.010 A 
ATOM     41  C2  417 d   1      35.977  51.068  36.580  0.00  0.00     0.126 A 
ATOM     42  C1  417 d   1      34.731  50.471  36.391  0.00  0.00    -0.005 A 
ATOM     43  F37 417 d   1      35.978  52.345  36.957  0.00  0.00    -0.205 F 
ATOM     44  C6  417 d   1      34.695  49.128  35.996  0.00  0.00     0.157 A 
ATOM     45  H1  417 d   1      33.816  51.031  36.545  0.00  0.00     0.093 H 
ATOM     46  C5  417 d   1      35.890  48.397  35.795  0.00  0.00     0.155 A 
ATOM     47  F43 417 d   1      33.510  48.556  35.819  0.00  0.00    -0.203 F 
ATOM     48  C4  417 d   1      37.153  49.010  35.987  0.00  0.00    -0.033 A 
ATOM     49  F36 417 d   1      35.844  47.112  35.419  0.00  0.00    -0.203 F 
ATOM     50  H2  417 d   1      38.066  48.447  35.828  0.00  0.00     0.089 H 
ENDBRANCH   1  40
TORSDOF 4
