REMARK  6 active torsions:
REMARK  status: ('A' for Active; 'I' for Inactive)
REMARK    1  A    between atoms: C10_5  and  C9_4 
REMARK    2  A    between atoms: C9_4  and  N8_18 
REMARK    3  A    between atoms: N11_19  and  C10_5 
REMARK    4  A    between atoms: C14_7  and  C12_6 
REMARK       I    between atoms: C12_6  and  N11_19 
REMARK    5  A    between atoms: C6_16  and  C4_14 
REMARK       I    between atoms: N8_18  and  C6_16 
REMARK    6  A    between atoms: C17_21  and  N20_23 
ROOT
ATOM      1  C12 ME1 d   1       6.498  43.233  61.210  0.00  0.00     0.251 C 
ATOM      2  N11 ME1 d   1       6.334  42.963  62.529  0.00  0.00    -0.355 N 
ATOM      3  O13 ME1 d   1       6.302  44.355  60.746  0.00  0.00    -0.268 OA
ATOM      4  H14 ME1 d   1       6.689  42.117  62.927  0.00  0.00     0.162 HD
ENDROOT
BRANCH   1   5
ATOM      5  C14 ME1 d   1       6.929  42.107  60.362  0.00  0.00     0.032 A 
ATOM      6  C15 ME1 d   1       7.702  42.442  59.165  0.00  0.00    -0.066 A 
ATOM      7  C16 ME1 d   1       8.198  41.365  58.321  0.00  0.00    -0.056 A 
ATOM      8  H7  ME1 d   1       7.902  43.477  58.911  0.00  0.00     0.085 H 
ATOM      9  C17 ME1 d   1       7.924  39.959  58.674  0.00  0.00     0.042 A 
ATOM     10  H8  ME1 d   1       8.771  41.597  57.430  0.00  0.00     0.087 H 
ATOM     11  C18 ME1 d   1       7.114  39.629  59.868  0.00  0.00    -0.056 A 
ATOM     12  C19 ME1 d   1       6.613  40.714  60.711  0.00  0.00    -0.066 A 
ATOM     13  H15 ME1 d   1       6.895  38.596  60.114  0.00  0.00     0.087 H 
ATOM     14  H9  ME1 d   1       6.013  40.493  61.587  0.00  0.00     0.085 H 
BRANCH   9  15
ATOM     15  N20 ME1 d   1       8.370  38.977  57.773  0.00  0.00    -0.290 N 
ATOM     16  C21 ME1 d   1       9.595  38.338  58.010  0.00  0.00    -0.011 A 
ATOM     17  C22 ME1 d   1      10.104  37.497  56.964  0.00  0.00    -0.067 A 
ATOM     18  H10 ME1 d   1      10.136  38.474  58.945  0.00  0.00     0.112 H 
ATOM     19  C23 ME1 d   1       9.433  37.313  55.707  0.00  0.00    -0.076 A 
ATOM     20  H11 ME1 d   1      11.044  36.973  57.131  0.00  0.00     0.085 H 
ATOM     21  C24 ME1 d   1       8.161  37.937  55.465  0.00  0.00    -0.017 A 
ATOM     22  H16 ME1 d   1       9.890  36.698  54.934  0.00  0.00     0.083 H 
ATOM     23  C25 ME1 d   1       7.593  38.785  56.554  0.00  0.00     0.252 A 
ATOM     24  H12 ME1 d   1       7.632  37.797  54.523  0.00  0.00     0.092 H 
ATOM     25  O26 ME1 d   1       6.481  39.298  56.406  0.00  0.00    -0.268 OA
ENDBRANCH   9  15
ENDBRANCH   1   5
BRANCH   2  26
ATOM     26  C10 ME1 d   1       5.621  43.945  63.358  0.00  0.00     0.010 C 
ATOM     27  H5  ME1 d   1       4.841  44.396  62.726  0.00  0.00     0.066 H 
ATOM     28  H6  ME1 d   1       5.149  43.390  64.182  0.00  0.00     0.066 H 
BRANCH  26  29
ATOM     29  C9  ME1 d   1       6.410  45.093  63.984  0.00  0.00     0.010 C 
ATOM     30  H3  ME1 d   1       5.719  45.695  64.592  0.00  0.00     0.066 H 
ATOM     31  H4  ME1 d   1       6.820  45.713  63.173  0.00  0.00     0.066 H 
BRANCH  29  32
ATOM     32  N8  ME1 d   1       7.527  44.659  64.845  0.00  0.00    -0.355 N 
ATOM     33  C6  ME1 d   1       8.710  44.944  64.258  0.00  0.00     0.258 C 
ATOM     34  O7  ME1 d   1       8.728  45.495  63.145  0.00  0.00    -0.267 OA
ATOM     35  H13 ME1 d   1       7.423  44.217  65.736  0.00  0.00     0.162 HD
BRANCH  33  36
ATOM     36  C4  ME1 d   1       9.954  44.639  64.858  0.00  0.00     0.074 A 
ATOM     37  C3  ME1 d   1      10.984  45.158  64.101  0.00  0.00    -0.059 A 
ATOM     38  C2  ME1 d   1      12.203  44.836  64.573  0.00  0.00    -0.054 A 
ATOM     39  H2  ME1 d   1      10.827  45.767  63.212  0.00  0.00     0.086 H 
ATOM     40  C1  ME1 d   1      12.188  44.086  65.692  0.00  0.00     0.075 A 
ATOM     41  H1  ME1 d   1      13.125  45.156  64.090  0.00  0.00     0.086 H 
ATOM     42  S5  ME1 d   1      10.552  43.748  66.220  0.00  0.00    -0.072 SA
ATOM     43 CL27 ME1 d   1      13.850  43.675  66.163  0.00  0.00    -0.076 Cl
ENDBRANCH  33  36
ENDBRANCH  29  32
ENDBRANCH  26  29
ENDBRANCH   2  26
TORSDOF 6
