REMARK  5 active torsions:
REMARK  status: ('A' for Active; 'I' for Inactive)
REMARK    1  A    between atoms: N20_29  and  C1_1 
REMARK    2  A    between atoms: C8_4  and  C10_5 
REMARK       I    between atoms: N7_24  and  C8_4 
REMARK       I    between atoms: C21_12  and  N20_29 
REMARK    3  A    between atoms: C23_31  and  C21_12 
REMARK    4  A    between atoms: C26_33  and  N29_15 
REMARK    5  A    between atoms: C6_23  and  N7_24 
ROOT
ATOM      1  C1  ME4 d   1       5.004  44.307  61.204  0.00  0.00     0.032 C 
ATOM      2  C2  ME4 d   1       3.561  44.401  60.655  0.00  0.00    -0.044 C 
ATOM      3  C3  ME4 d   1       2.688  43.334  61.324  0.00  0.00    -0.063 C 
ATOM      4  C4  ME4 d   1       2.689  43.478  62.846  0.00  0.00    -0.063 C 
ATOM      5  C5  ME4 d   1       4.106  43.414  63.415  0.00  0.00    -0.044 C 
ATOM      6  C6  ME4 d   1       4.992  44.497  62.744  0.00  0.00     0.032 C 
ATOM      7  H1  ME4 d   1       5.621  45.105  60.766  0.00  0.00     0.075 H 
ATOM      8  H2  ME4 d   1       3.571  44.237  59.567  0.00  0.00     0.036 H 
ATOM      9  H3  ME4 d   1       3.151  45.398  60.871  0.00  0.00     0.036 H 
ATOM     10  H4  ME4 d   1       3.075  42.339  61.059  0.00  0.00     0.033 H 
ATOM     11  H5  ME4 d   1       1.656  43.435  60.957  0.00  0.00     0.033 H 
ATOM     12  H15 ME4 d   1       2.092  42.664  63.282  0.00  0.00     0.033 H 
ATOM     13  H16 ME4 d   1       2.240  44.446  63.114  0.00  0.00     0.033 H 
ATOM     14  H17 ME4 d   1       4.534  42.420  63.219  0.00  0.00     0.036 H 
ATOM     15  H18 ME4 d   1       4.072  43.591  64.500  0.00  0.00     0.036 H 
ATOM     16  H19 ME4 d   1       4.561  45.487  62.953  0.00  0.00     0.075 H 
ENDROOT
BRANCH   1  17
ATOM     17  N20 ME4 d   1       5.528  43.002  60.757  0.00  0.00    -0.350 N 
ATOM     18  C21 ME4 d   1       6.845  42.841  60.485  0.00  0.00     0.252 C 
ATOM     19  O22 ME4 d   1       7.704  43.626  60.881  0.00  0.00    -0.268 OA
ATOM     20  H23 ME4 d   1       4.904  42.228  60.654  0.00  0.00     0.163 HD
BRANCH  18  21
ATOM     21  C23 ME4 d   1       7.246  41.684  59.679  0.00  0.00     0.032 A 
ATOM     22  C24 ME4 d   1       7.058  40.319  60.175  0.00  0.00    -0.066 A 
ATOM     23  C25 ME4 d   1       7.543  39.199  59.371  0.00  0.00    -0.056 A 
ATOM     24  H9  ME4 d   1       6.566  40.142  61.125  0.00  0.00     0.085 H 
ATOM     25  C26 ME4 d   1       8.210  39.476  58.071  0.00  0.00     0.042 A 
ATOM     26  H24 ME4 d   1       7.418  38.180  59.718  0.00  0.00     0.087 H 
ATOM     27  C27 ME4 d   1       8.394  40.868  57.603  0.00  0.00    -0.056 A 
ATOM     28  C28 ME4 d   1       7.909  41.978  58.408  0.00  0.00    -0.066 A 
ATOM     29  H10 ME4 d   1       8.891  41.060  56.659  0.00  0.00     0.087 H 
ATOM     30  H25 ME4 d   1       8.036  43.001  58.074  0.00  0.00     0.085 H 
BRANCH  25  31
ATOM     31  N29 ME4 d   1       8.606  38.437  57.186  0.00  0.00    -0.290 N 
ATOM     32  C30 ME4 d   1       9.766  37.717  57.469  0.00  0.00    -0.011 A 
ATOM     33  C31 ME4 d   1      10.254  36.849  56.423  0.00  0.00    -0.067 A 
ATOM     34  H11 ME4 d   1      10.276  37.804  58.427  0.00  0.00     0.112 H 
ATOM     35  C32 ME4 d   1       9.582  36.667  55.157  0.00  0.00    -0.076 A 
ATOM     36  H12 ME4 d   1      11.179  36.302  56.598  0.00  0.00     0.085 H 
ATOM     37  C33 ME4 d   1       8.375  37.375  54.864  0.00  0.00    -0.017 A 
ATOM     38  H13 ME4 d   1       9.999  35.984  54.419  0.00  0.00     0.083 H 
ATOM     39  C34 ME4 d   1       7.889  38.330  55.912  0.00  0.00     0.252 A 
ATOM     40  H14 ME4 d   1       7.837  37.228  53.929  0.00  0.00     0.092 H 
ATOM     41  O35 ME4 d   1       6.911  39.036  55.650  0.00  0.00    -0.268 OA
ENDBRANCH  25  31
ENDBRANCH  18  21
ENDBRANCH   1  17
BRANCH   6  42
ATOM     42  N7  ME4 d   1       6.313  44.441  63.359  0.00  0.00    -0.350 N 
ATOM     43  C8  ME4 d   1       7.299  45.336  63.116  0.00  0.00     0.252 C 
ATOM     44  O9  ME4 d   1       7.139  46.331  62.402  0.00  0.00    -0.268 OA
ATOM     45  H20 ME4 d   1       6.502  43.696  63.999  0.00  0.00     0.163 HD
BRANCH  43  46
ATOM     46  C10 ME4 d   1       8.578  44.990  63.774  0.00  0.00     0.034 A 
ATOM     47  C11 ME4 d   1       8.555  44.320  65.086  0.00  0.00    -0.041 A 
ATOM     48  C12 ME4 d   1       9.816  43.946  65.713  0.00  0.00     0.045 A 
ATOM     49  H6  ME4 d   1       7.613  44.108  65.578  0.00  0.00     0.088 H 
ATOM     50  C13 ME4 d   1      11.095  44.248  65.012  0.00  0.00     0.014 A 
ATOM     51  N16 ME4 d   1      10.121  43.334  66.897  0.00  0.00    -0.363 N 
ATOM     52  C14 ME4 d   1      12.164  43.757  65.880  0.00  0.00     0.061 A 
ATOM     53  C18 ME4 d   1      11.110  44.909  63.716  0.00  0.00    -0.068 A 
ATOM     54  C15 ME4 d   1      11.477  43.226  66.984  0.00  0.00    -0.001 A 
ATOM     55 CL17 ME4 d   1      13.911  43.701  65.704  0.00  0.00    -0.082 Cl
ATOM     56  H7  ME4 d   1      11.982  42.769  67.833  0.00  0.00     0.114 H 
ATOM     57  C19 ME4 d   1       9.849  45.289  63.083  0.00  0.00    -0.067 A 
ATOM     58  H22 ME4 d   1      12.052  45.119  63.222  0.00  0.00     0.085 H 
ATOM     59  H8  ME4 d   1       9.846  45.784  62.119  0.00  0.00     0.085 H 
ATOM     60  H21 ME4 d   1       9.443  43.010  67.602  0.00  0.00     0.165 HD
ENDBRANCH  43  46
ENDBRANCH   6  42
TORSDOF 5
