REMARK  2 active torsions:
REMARK  status: ('A' for Active; 'I' for Inactive)
REMARK    1  A    between atoms: CAJ_13  and  CAL_14 
REMARK       I    between atoms: CAL_14  and  NAO_16 
REMARK    2  A    between atoms: NAO_16  and  NAP_17 
ROOT
ATOM      1  CAK YE7 d   1      -1.435   0.762  10.375  0.00  0.00     0.019 A 
ATOM      2  NAM YE7 d   1      -2.744   0.573  10.231  0.00  0.00    -0.314 N 
ATOM      3  CAH YE7 d   1      -3.849   0.939  11.009  0.00  0.00    -0.013 A 
ATOM      4  CAI YE7 d   1      -5.130   0.601  10.588  0.00  0.00    -0.057 A 
ATOM      5  CAE YE7 d   1      -5.315  -0.098   9.399  0.00  0.00    -0.021 A 
ATOM      6  CAF YE7 d   1      -6.599  -0.428   8.982  0.00  0.00    -0.072 A 
ATOM      7  CAA YE7 d   1      -6.792  -1.124   7.794  0.00  0.00    -0.082 A 
ATOM      8  CAB YE7 d   1      -5.696  -1.491   7.019  0.00  0.00    -0.082 A 
ATOM      9  CAC YE7 d   1      -4.411  -1.162   7.434  0.00  0.00    -0.069 A 
ATOM     10  CAD YE7 d   1      -4.219  -0.465   8.623  0.00  0.00     0.021 A 
ATOM     11  CAG YE7 d   1      -2.935  -0.131   9.036  0.00  0.00     0.145 A 
ATOM     12  NAN YE7 d   1      -1.734  -0.340   8.505  0.00  0.00    -0.223 NA
ATOM     13  CAJ YE7 d   1      -0.839   0.208   9.324  0.00  0.00     0.144 A 
ATOM     14  H1  YE7 d   1      -0.943   1.275  11.200  0.00  0.00     0.116 H 
ATOM     15  H2  YE7 d   1      -3.706   1.486  11.940  0.00  0.00     0.112 H 
ATOM     16  H3  YE7 d   1      -5.992   0.884  11.191  0.00  0.00     0.086 H 
ATOM     17  H4  YE7 d   1      -7.453  -0.142   9.585  0.00  0.00     0.084 H 
ATOM     18  H5  YE7 d   1      -7.795  -1.380   7.472  0.00  0.00     0.083 H 
ATOM     19  H6  YE7 d   1      -5.844  -2.033   6.092  0.00  0.00     0.083 H 
ATOM     20  H7  YE7 d   1      -3.557  -1.449   6.831  0.00  0.00     0.085 H 
ENDROOT
BRANCH  13  21
ATOM     21  CAL YE7 d   1       0.668   0.197   9.070  0.00  0.00     0.295 C 
ATOM     22  OAQ YE7 d   1       1.099   0.033   7.931  0.00  0.00    -0.264 OA
ATOM     23  NAO YE7 d   1       1.440   0.333  10.145  0.00  0.00    -0.185 N 
ATOM     24  H8  YE7 d   1       1.406  -0.369  10.856  0.00  0.00     0.196 HD
BRANCH  23  25
ATOM     25  NAP YE7 d   1       2.274   1.396  10.310  0.00  0.00     0.003 N 
ATOM     26  H9  YE7 d   1       2.765   1.305  11.186  0.00  0.00     0.303 HD
ATOM     27  H10 YE7 d   1       1.736   2.248  10.313  0.00  0.00     0.303 HD
ATOM     28  H11 YE7 d   1       2.939   1.422   9.553  0.00  0.00     0.303 HD
ENDBRANCH  23  25
ENDBRANCH  13  21
TORSDOF 2
