REMARK  2 active torsions:
REMARK  status: ('A' for Active; 'I' for Inactive)
REMARK    1  A    between atoms: CAF_7  and  CAD_8 
REMARK    2  A    between atoms: CAA_12  and  CAE_13 
REMARK       I    between atoms: CAE_13  and  NAL_15 
ROOT
ATOM      1  CAD YE6 d   1      -3.329  -0.208   8.820  0.00  0.00     0.088 A 
ATOM      2  OAN YE6 d   1      -2.131  -0.423   8.201  0.00  0.00    -0.304 OA
ATOM      3  CAC YE6 d   1      -3.106   0.383   9.995  0.00  0.00    -0.046 A 
ATOM      4  CAB YE6 d   1      -1.796   0.555  10.150  0.00  0.00    -0.042 A 
ATOM      5  CAA YE6 d   1      -1.196   0.069   9.064  0.00  0.00     0.147 A 
ATOM      6  H5  YE6 d   1      -3.872   0.677  10.711  0.00  0.00     0.087 H 
ATOM      7  H6  YE6 d   1      -1.304   1.010  11.008  0.00  0.00     0.088 H 
ENDROOT
BRANCH   1   8
ATOM      8  CAF YE6 d   1      -4.518  -0.579   8.202  0.00  0.00     0.019 A 
ATOM      9  CAG YE6 d   1      -5.753  -0.030   8.538  0.00  0.00     0.047 A 
ATOM     10 CLAP YE6 d   1      -5.906   1.249   9.694  0.00  0.00    -0.083 Cl
ATOM     11  CAH YE6 d   1      -6.903  -0.475   7.893  0.00  0.00    -0.061 A 
ATOM     12  CAI YE6 d   1      -6.831  -1.458   6.913  0.00  0.00    -0.081 A 
ATOM     13  H1  YE6 d   1      -7.865  -0.051   8.158  0.00  0.00     0.086 H 
ATOM     14  CAJ YE6 d   1      -5.597  -2.003   6.573  0.00  0.00    -0.082 A 
ATOM     15  H2  YE6 d   1      -7.732  -1.798   6.416  0.00  0.00     0.083 H 
ATOM     16  CAK YE6 d   1      -4.448  -1.563   7.218  0.00  0.00    -0.069 A 
ATOM     17  H3  YE6 d   1      -5.532  -2.768   5.808  0.00  0.00     0.083 H 
ATOM     18  H4  YE6 d   1      -3.487  -1.990   6.953  0.00  0.00     0.085 H 
ENDBRANCH   1   8
BRANCH   5  19
ATOM     19  CAE YE6 d   1       0.308   0.066   8.788  0.00  0.00     0.318 C 
ATOM     20  OAO YE6 d   1       0.734   0.007   7.637  0.00  0.00    -0.262 OA
ATOM     21  NAL YE6 d   1       1.089   0.121   9.864  0.00  0.00    -0.112 NA
ATOM     22  NAM YE6 d   1       2.312   0.126   9.716  0.00  0.00    -0.200 NA
ATOM     23  H7  YE6 d   1       2.917   0.167  10.521  0.00  0.00     0.212 HD
ENDBRANCH   5  19
TORSDOF 2
