REMARK  2 active torsions:
REMARK  status: ('A' for Active; 'I' for Inactive)
REMARK    1  A    between atoms: CAF_7  and  CAD_8 
REMARK    2  A    between atoms: CAA_12  and  CAE_13 
REMARK       I    between atoms: CAE_13  and  NAL_15 
ROOT
ATOM      1  CAD YE6 d   1      -4.852  -1.281   7.849  0.00  0.00     0.088 A 
ATOM      2  OAN YE6 d   1      -3.712  -0.667   8.282  0.00  0.00    -0.304 OA
ATOM      3  CAC YE6 d   1      -5.857  -0.908   8.638  0.00  0.00    -0.046 A 
ATOM      4  CAB YE6 d   1      -5.397  -0.073   9.567  0.00  0.00    -0.042 A 
ATOM      5  CAA YE6 d   1      -4.092   0.079   9.358  0.00  0.00     0.147 A 
ATOM      6  H5  YE6 d   1      -6.891  -1.234   8.539  0.00  0.00     0.087 H 
ATOM      7  H6  YE6 d   1      -5.982   0.400  10.354  0.00  0.00     0.088 H 
ENDROOT
BRANCH   1   8
ATOM      8  CAF YE6 d   1      -4.824  -2.136   6.751  0.00  0.00     0.019 A 
ATOM      9  CAG YE6 d   1      -5.930  -2.860   6.307  0.00  0.00     0.047 A 
ATOM     10 CLAP YE6 d   1      -7.467  -2.775   7.094  0.00  0.00    -0.083 Cl
ATOM     11  CAH YE6 d   1      -5.809  -3.684   5.192  0.00  0.00    -0.061 A 
ATOM     12  CAI YE6 d   1      -4.598  -3.791   4.518  0.00  0.00    -0.081 A 
ATOM     13  H1  YE6 d   1      -6.668  -4.248   4.846  0.00  0.00     0.086 H 
ATOM     14  CAJ YE6 d   1      -3.495  -3.069   4.960  0.00  0.00    -0.082 A 
ATOM     15  H2  YE6 d   1      -4.514  -4.435   3.650  0.00  0.00     0.083 H 
ATOM     16  CAK YE6 d   1      -3.615  -2.246   6.074  0.00  0.00    -0.069 A 
ATOM     17  H3  YE6 d   1      -2.547  -3.147   4.439  0.00  0.00     0.083 H 
ATOM     18  H4  YE6 d   1      -2.755  -1.683   6.419  0.00  0.00     0.085 H 
ENDBRANCH   1   8
BRANCH   5  19
ATOM     19  CAE YE6 d   1      -3.143   0.960  10.176  0.00  0.00     0.318 C 
ATOM     20  OAO YE6 d   1      -1.943   1.006   9.917  0.00  0.00    -0.262 OA
ATOM     21  NAL YE6 d   1      -3.701   1.656  11.163  0.00  0.00    -0.112 NA
ATOM     22  NAM YE6 d   1      -3.027   2.476  11.783  0.00  0.00    -0.200 NA
ATOM     23  H7  YE6 d   1      -3.443   3.007  12.532  0.00  0.00     0.212 HD
ENDBRANCH   5  19
TORSDOF 2
