REMARK  1 active torsions:
REMARK  status: ('A' for Active; 'I' for Inactive)
REMARK    1  A    between atoms: C4_6  and  N4_7 
ROOT
ATOM      1  C1A 4AN d   1      41.424  23.880  19.322  0.00  0.00     0.259 A 
ATOM      2  O1A 4AN d   1      41.065  24.226  18.208  0.00  0.00    -0.267 OA
ATOM      3  C1  4AN d   1      40.428  23.182  20.256  0.00  0.00     0.044 A 
ATOM      4  C2  4AN d   1      39.096  22.930  19.854  0.00  0.00    -0.065 A 
ATOM      5  C3  4AN d   1      38.205  22.288  20.732  0.00  0.00    -0.056 A 
ATOM      6  C4  4AN d   1      38.618  21.888  22.013  0.00  0.00     0.037 A 
ATOM      7  C5  4AN d   1      40.424  21.785  23.712  0.00  0.00    -0.070 A 
ATOM      8  C6  4AN d   1      41.751  22.051  24.093  0.00  0.00    -0.081 A 
ATOM      9  C7  4AN d   1      42.634  22.675  23.210  0.00  0.00    -0.067 A 
ATOM     10  C8  4AN d   1      42.191  23.051  21.935  0.00  0.00     0.044 A 
ATOM     11  C8A 4AN d   1      43.141  23.725  20.956  0.00  0.00     0.259 A 
ATOM     12  O8A 4AN d   1      44.310  23.923  21.286  0.00  0.00    -0.267 OA
ATOM     13  N9  4AN d   1      42.694  24.092  19.738  0.00  0.00    -0.289 N 
ATOM     14  C9  4AN d   1      40.852  22.791  21.550  0.00  0.00     0.008 A 
ATOM     15  C10 4AN d   1      39.954  22.147  22.440  0.00  0.00     0.002 A 
ATOM     16  H1  4AN d   1      38.761  23.232  18.868  0.00  0.00     0.085 H 
ATOM     17  H2  4AN d   1      37.185  22.099  20.416  0.00  0.00     0.087 H 
ATOM     18  H5  4AN d   1      39.755  21.294  24.410  0.00  0.00     0.084 H 
ATOM     19  H6  4AN d   1      42.092  21.769  25.082  0.00  0.00     0.083 H 
ATOM     20  H7  4AN d   1      43.658  22.868  23.509  0.00  0.00     0.085 H 
ATOM     21  H8  4AN d   1      43.331  24.542  19.113  0.00  0.00     0.172 HD
ENDROOT
BRANCH   6  22
ATOM     22  N4  4AN d   1      37.660  21.242  22.847  0.00  0.00    -0.398 N 
ATOM     23  H3  4AN d   1      36.705  21.074  22.500  0.00  0.00     0.156 HD
ATOM     24  H4  4AN d   1      37.922  20.943  23.797  0.00  0.00     0.156 HD
ENDBRANCH   6  22
TORSDOF 1
