REMARK  4 active torsions:
REMARK  status: ('A' for Active; 'I' for Inactive)
REMARK    1  A    between atoms: C5_2  and  C19_9 
REMARK    2  A    between atoms: C9_6  and  O12_14 
REMARK    3  A    between atoms: C19_9  and  C20_10 
REMARK    4  A    between atoms: C19_9  and  C21_11 
ROOT
ATOM      1  C3  39Z d   1      -8.157  41.329  44.330  0.00  0.00     0.257 A 
ATOM      2  C5  39Z d   1      -7.000  42.115  44.404  0.00  0.00     0.053 A 
ATOM      3  C6  39Z d   1      -8.752  43.287  43.588  0.00  0.00     0.046 A 
ATOM      4  C7  39Z d   1      -7.378  43.383  43.922  0.00  0.00     0.010 A 
ATOM      5  C8  39Z d   1      -6.704  44.613  43.732  0.00  0.00    -0.038 A 
ATOM      6  C9  39Z d   1      -7.391  45.724  43.221  0.00  0.00     0.066 A 
ATOM      7  C10 39Z d   1      -8.754  45.624  42.896  0.00  0.00    -0.049 A 
ATOM      8  C11 39Z d   1      -9.433  44.408  43.079  0.00  0.00    -0.054 A 
ATOM      9  O4  39Z d   1      -8.266  40.156  44.667  0.00  0.00    -0.267 OA
ATOM     10  N1  39Z d   1      -9.172  42.043  43.845  0.00  0.00    -0.322 N 
ATOM     11  H1  39Z d   1      -5.653  44.697  43.982  0.00  0.00     0.089 H 
ATOM     12  H2  39Z d   1      -9.282  46.486  42.504  0.00  0.00     0.087 H 
ATOM     13  H3  39Z d   1     -10.485  44.333  42.827  0.00  0.00     0.087 H 
ATOM     14  H7  39Z d   1     -10.101  41.703  43.697  0.00  0.00     0.169 HD
ENDROOT
BRANCH   2  15
ATOM     15  C19 39Z d   1      -5.687  41.728  44.896  0.00  0.00    -0.019 C 
BRANCH  15  16
ATOM     16  C20 39Z d   1      -4.561  42.782  45.001  0.00  0.00    -0.048 C 
ATOM     17  H4  39Z d   1      -4.935  43.754  44.648  0.00  0.00     0.033 H 
ATOM     18  H5  39Z d   1      -3.708  42.470  44.381  0.00  0.00     0.033 H 
ATOM     19  H6  39Z d   1      -4.239  42.872  46.049  0.00  0.00     0.033 H 
ENDBRANCH  15  16
BRANCH  15  20
ATOM     20  C21 39Z d   1      -5.362  40.409  45.317  0.00  0.00     0.038 A 
ATOM     21  C26 39Z d   1      -4.184  40.024  45.823  0.00  0.00    -0.055 A 
ATOM     22  C25 39Z d   1      -4.248  38.725  46.113  0.00  0.00    -0.066 A 
ATOM     23  H9  39Z d   1      -3.317  40.666  45.973  0.00  0.00     0.087 H 
ATOM     24  C24 39Z d   1      -5.463  38.296  45.790  0.00  0.00    -0.022 A 
ATOM     25  H10 39Z d   1      -3.447  38.123  46.539  0.00  0.00     0.085 H 
ATOM     26  N22 39Z d   1      -6.146  39.329  45.301  0.00  0.00    -0.365 N 
ATOM     27  H11 39Z d   1      -5.835  37.279  45.905  0.00  0.00     0.111 H 
ATOM     28  H12 39Z d   1      -7.119  39.300  44.965  0.00  0.00     0.165 HD
ENDBRANCH  15  20
ENDBRANCH   2  15
BRANCH   6  29
ATOM     29  O12 39Z d   1      -6.731  46.891  43.020  0.00  0.00    -0.361 OA
ATOM     30  H8  39Z d   1      -6.766  47.118  42.098  0.00  0.00     0.217 HD
ENDBRANCH   6  29
TORSDOF 4
