REMARK  4 active torsions:
REMARK  status: ('A' for Active; 'I' for Inactive)
REMARK    1  A    between atoms: C21_5  and  C19_6 
REMARK    2  A    between atoms: C19_6  and  C20_7 
REMARK    3  A    between atoms: C19_6  and  C5_8 
REMARK    4  A    between atoms: C9_17  and  N12_18 
REMARK       I    between atoms: N12_18  and  C14_19 
REMARK       I    between atoms: C14_19  and  N16_21 
ROOT
ATOM      1  C5  517 d   1      -7.025  42.804  44.764  0.00  0.00     0.060 A 
ATOM      2  C7  517 d   1      -7.350  44.088  44.277  0.00  0.00    -0.015 A 
ATOM      3  C8  517 d   1      -6.632  45.293  44.086  0.00  0.00    -0.048 A 
ATOM      4  C3  517 d   1      -8.210  42.057  44.668  0.00  0.00     0.231 A 
ATOM      5  O4  517 d   1      -8.381  40.894  45.033  0.00  0.00    -0.272 OA
ATOM      6  N1  517 d   1      -9.186  42.807  44.162  0.00  0.00    -0.326 N 
ATOM      7  C6  517 d   1      -8.715  44.035  43.911  0.00  0.00     0.042 A 
ATOM      8  C11 517 d   1      -9.340  45.167  43.364  0.00  0.00    -0.054 A 
ATOM      9  C10 517 d   1      -8.618  46.354  43.174  0.00  0.00    -0.055 A 
ATOM     10  C9  517 d   1      -7.254  46.428  43.532  0.00  0.00     0.037 A 
ATOM     11  H9  517 d   1      -7.257  43.099  45.798  0.00  0.00     0.063 H 
ATOM     12  H10 517 d   1      -5.587  45.343  44.371  0.00  0.00     0.087 H 
ATOM     13  H11 517 d   1     -10.123  42.502  43.995  0.00  0.00     0.169 HD
ATOM     14  H12 517 d   1     -10.387  45.123  43.087  0.00  0.00     0.087 H 
ATOM     15  H13 517 d   1      -9.111  47.221  42.749  0.00  0.00     0.087 H 
ENDROOT
BRANCH   1  16
ATOM     16  C19 517 d   1      -5.728  42.358  45.250  0.00  0.00    -0.002 C 
ATOM     17  H5  517 d   1      -5.420  42.150  44.215  0.00  0.00     0.050 H 
BRANCH  16  18
ATOM     18  C21 517 d   1      -5.444  41.011  45.613  0.00  0.00     0.013 A 
ATOM     19  N22 517 d   1      -6.266  39.961  45.557  0.00  0.00    -0.369 N 
ATOM     20  C24 517 d   1      -5.621  38.890  46.016  0.00  0.00    -0.023 A 
ATOM     21  H1  517 d   1      -7.238  39.976  45.216  0.00  0.00     0.165 HD
ATOM     22  C25 517 d   1      -4.396  39.265  46.356  0.00  0.00    -0.066 A 
ATOM     23  H2  517 d   1      -6.028  37.883  46.098  0.00  0.00     0.111 H 
ATOM     24  C26 517 d   1      -4.281  40.566  46.109  0.00  0.00    -0.059 A 
ATOM     25  H3  517 d   1      -3.620  38.620  46.766  0.00  0.00     0.085 H 
ATOM     26  H4  517 d   1      -3.391  41.169  46.281  0.00  0.00     0.086 H 
ENDBRANCH  16  18
BRANCH  16  27
ATOM     27  C20 517 d   1      -4.577  43.372  45.419  0.00  0.00    -0.067 C 
ATOM     28  H6  517 d   1      -3.683  42.852  45.794  0.00  0.00     0.028 H 
ATOM     29  H7  517 d   1      -4.876  44.150  46.136  0.00  0.00     0.028 H 
ATOM     30  H8  517 d   1      -4.351  43.836  44.447  0.00  0.00     0.028 H 
ENDBRANCH  16  27
ENDBRANCH   1  16
BRANCH  10  31
ATOM     31  N12 517 d   1      -6.518  47.559  43.385  0.00  0.00    -0.309 N 
ATOM     32  C14 517 d   1      -6.931  48.737  42.850  0.00  0.00     0.318 C 
ATOM     33  O15 517 d   1      -8.048  48.911  42.349  0.00  0.00    -0.247 OA
ATOM     34  N16 517 d   1      -6.027  49.708  42.830  0.00  0.00    -0.352 N 
ATOM     35  H15 517 d   1      -6.262  50.603  42.450  0.00  0.00     0.160 HD
ATOM     36  H16 517 d   1      -5.110  49.545  43.195  0.00  0.00     0.160 HD
ATOM     37  H14 517 d   1      -5.571  47.521  43.705  0.00  0.00     0.170 HD
ENDBRANCH  10  31
TORSDOF 4
