REMARK  8 active torsions:
REMARK  status: ('A' for Active; 'I' for Inactive)
REMARK    1  A    between atoms: N37_6  and  C36_7 
REMARK    2  A    between atoms: C36_7  and  C35_8 
REMARK    3  A    between atoms: C35_8  and  N33_9 
REMARK       I    between atoms: N33_9  and  C31_10 
REMARK    4  A    between atoms: C31_10  and  C29_12 
REMARK    5  A    between atoms: C25_17  and  C23_18 
REMARK    6  A    between atoms: C19_22  and  C18_23 
REMARK    7  A    between atoms: C18_23  and  C4_24 
REMARK    8  A    between atoms: C8_33  and  N11_34 
REMARK       I    between atoms: N11_34  and  C13_35 
REMARK       I    between atoms: C13_35  and  N14_37 
ROOT
ATOM      1  C29 464 d   1      -1.260  35.819  46.921  0.00  0.00     0.032 A 
ATOM      2  C30 464 d   1      -2.391  36.454  46.350  0.00  0.00    -0.057 A 
ATOM      3  C28 464 d   1      -0.383  36.558  47.732  0.00  0.00    -0.068 A 
ATOM      4  C27 464 d   1      -0.618  37.919  47.973  0.00  0.00    -0.081 A 
ATOM      5  C26 464 d   1      -1.736  38.553  47.406  0.00  0.00    -0.072 A 
ATOM      6  C25 464 d   1      -2.634  37.832  46.593  0.00  0.00    -0.024 A 
ATOM      7  H17 464 d   1      -3.072  35.887  45.726  0.00  0.00     0.086 H 
ATOM      8  H18 464 d   1       0.480  36.073  48.174  0.00  0.00     0.085 H 
ATOM      9  H19 464 d   1       0.065  38.483  48.598  0.00  0.00     0.083 H 
ATOM     10  H20 464 d   1      -1.910  39.606  47.595  0.00  0.00     0.084 H 
ENDROOT
BRANCH   6  11
ATOM     11  C23 464 d   1      -3.790  38.478  46.091  0.00  0.00    -0.008 A 
ATOM     12  C24 464 d   1      -3.902  39.780  45.779  0.00  0.00    -0.045 A 
ATOM     13  C19 464 d   1      -5.151  40.014  45.369  0.00  0.00     0.033 A 
ATOM     14  H21 464 d   1      -3.107  40.521  45.849  0.00  0.00     0.088 H 
ATOM     15  N20 464 d   1      -5.811  38.855  45.415  0.00  0.00    -0.365 N 
ATOM     16  C22 464 d   1      -4.978  37.912  45.855  0.00  0.00    -0.012 A 
ATOM     17  H23 464 d   1      -6.797  38.713  45.154  0.00  0.00     0.165 HD
ATOM     18  H22 464 d   1      -5.223  36.861  45.998  0.00  0.00     0.112 H 
BRANCH  13  19
ATOM     19  C18 464 d   1      -5.522  41.320  44.986  0.00  0.00    -0.041 C 
ATOM     20  H24 464 d   1      -4.756  42.093  45.032  0.00  0.00     0.088 H 
BRANCH  19  21
ATOM     21  C4  464 d   1      -6.817  41.708  44.545  0.00  0.00     0.047 A 
ATOM     22  C6  464 d   1      -7.158  42.991  44.141  0.00  0.00     0.009 A 
ATOM     23  C7  464 d   1      -6.421  44.184  43.978  0.00  0.00    -0.044 A 
ATOM     24  C5  464 d   1      -8.521  42.941  43.769  0.00  0.00     0.046 A 
ATOM     25  C8  464 d   1      -7.029  45.332  43.431  0.00  0.00     0.037 A 
ATOM     26  H25 464 d   1      -5.379  44.217  44.276  0.00  0.00     0.088 H 
ATOM     27  C9  464 d   1      -8.399  45.278  43.075  0.00  0.00    -0.055 A 
ATOM     28  C10 464 d   1      -9.140  44.089  43.247  0.00  0.00    -0.054 A 
ATOM     29  H28 464 d   1      -8.883  46.158  42.667  0.00  0.00     0.087 H 
ATOM     30  H27 464 d   1     -10.189  44.062  42.976  0.00  0.00     0.087 H 
ATOM     31  N1  464 d   1      -8.968  41.681  43.945  0.00  0.00    -0.322 N 
ATOM     32  C2  464 d   1      -7.963  40.925  44.406  0.00  0.00     0.257 A 
ATOM     33  H26 464 d   1      -9.898  41.363  43.761  0.00  0.00     0.169 HD
ATOM     34  O3  464 d   1      -8.064  39.722  44.665  0.00  0.00    -0.267 OA
BRANCH  25  35
ATOM     35  N11 464 d   1      -6.253  46.436  43.234  0.00  0.00    -0.309 N 
ATOM     36  C13 464 d   1      -6.634  47.623  42.692  0.00  0.00     0.318 C 
ATOM     37  O17 464 d   1      -7.761  47.837  42.228  0.00  0.00    -0.247 OA
ATOM     38  N14 464 d   1      -5.687  48.553  42.620  0.00  0.00    -0.352 N 
ATOM     39  H30 464 d   1      -5.896  49.451  42.232  0.00  0.00     0.160 HD
ATOM     40  H31 464 d   1      -4.765  48.355  42.953  0.00  0.00     0.160 HD
ATOM     41  H29 464 d   1      -5.298  46.364  43.520  0.00  0.00     0.170 HD
ENDBRANCH  25  35
ENDBRANCH  19  21
ENDBRANCH  13  19
ENDBRANCH   6  11
BRANCH   1  42
ATOM     42  C31 464 d   1      -0.978  34.316  46.683  0.00  0.00     0.251 C 
ATOM     43  N33 464 d   1      -1.592  33.769  45.629  0.00  0.00    -0.355 N 
ATOM     44  H16 464 d   1      -2.178  34.347  45.062  0.00  0.00     0.162 HD
ATOM     45  O32 464 d   1      -0.219  33.693  47.430  0.00  0.00    -0.268 OA
BRANCH  43  46
ATOM     46  C35 464 d   1      -1.439  32.345  45.269  0.00  0.00     0.018 C 
ATOM     47  H14 464 d   1      -0.652  31.900  45.895  0.00  0.00     0.066 H 
ATOM     48  H15 464 d   1      -2.391  31.825  45.451  0.00  0.00     0.066 H 
BRANCH  46  49
ATOM     49  C36 464 d   1      -1.052  32.180  43.781  0.00  0.00     0.098 C 
ATOM     50  H12 464 d   1      -1.415  31.201  43.436  0.00  0.00     0.078 H 
ATOM     51  H13 464 d   1      -1.544  32.977  43.205  0.00  0.00     0.078 H 
BRANCH  49  52
ATOM     52  N37 464 d   1       0.419  32.254  43.525  0.00  0.00    -0.070 N 
ATOM     53  C38 464 d   1       1.144  31.217  44.312  0.00  0.00     0.084 C 
ATOM     54  C39 464 d   1       2.628  31.205  43.908  0.00  0.00    -0.042 C 
ATOM     55  H1  464 d   1       1.059  31.446  45.385  0.00  0.00     0.076 H 
ATOM     56  H2  464 d   1       0.702  30.230  44.111  0.00  0.00     0.076 H 
ATOM     57  C40 464 d   1       3.245  32.593  44.117  0.00  0.00    -0.062 C 
ATOM     58  H3  464 d   1       2.714  30.925  42.848  0.00  0.00     0.035 H 
ATOM     59  H4  464 d   1       3.167  30.471  44.526  0.00  0.00     0.035 H 
ATOM     60  C41 464 d   1       2.445  33.655  43.351  0.00  0.00    -0.042 C 
ATOM     61  H5  464 d   1       4.282  32.587  43.751  0.00  0.00     0.033 H 
ATOM     62  H6  464 d   1       3.236  32.836  45.190  0.00  0.00     0.033 H 
ATOM     63  C42 464 d   1       0.962  33.615  43.769  0.00  0.00     0.084 C 
ATOM     64  H7  464 d   1       2.523  33.459  42.272  0.00  0.00     0.035 H 
ATOM     65  H8  464 d   1       2.858  34.650  43.574  0.00  0.00     0.035 H 
ATOM     66  H9  464 d   1       0.394  34.349  43.178  0.00  0.00     0.076 H 
ATOM     67  H10 464 d   1       0.875  33.859  44.838  0.00  0.00     0.076 H 
ATOM     68  H11 464 d   1       0.565  32.048  42.549  0.00  0.00     0.279 HD
ENDBRANCH  49  52
ENDBRANCH  46  49
ENDBRANCH  43  46
ENDBRANCH   1  42
TORSDOF 8
