REMARK WARNING: 32 MAX_TORS EXCEEDED!!!
REMARK  45 active torsions:
REMARK  status: ('A' for Active; 'I' for Inactive)
REMARK    1  A    between atoms: N_1  and  CA_2 
REMARK    2  A    between atoms: CA_2  and  C_3 
REMARK    3  A    between atoms: CA_2  and  CB_5 
REMARK       I    between atoms: C_3  and  N_10 
REMARK    4  A    between atoms: CB_5  and  CG_6 
REMARK    5  A    between atoms: CG_6  and  CD_7 
REMARK    6  A    between atoms: CD_7  and  CE_8 
REMARK    7  A    between atoms: CE_8  and  NZ_9 
REMARK    8  A    between atoms: N_10  and  CA_11 
REMARK    9  A    between atoms: CA_11  and  C_12 
REMARK   10  A    between atoms: CA_11  and  CB_14 
REMARK       I    between atoms: C_12  and  N_21 
REMARK   11  A    between atoms: CB_14  and  CG_15 
REMARK   12  A    between atoms: CG_15  and  CD_16 
REMARK   13  A    between atoms: CD_16  and  NE_17 
REMARK       I    between atoms: NE_17  and  CZ_18 
REMARK       I    between atoms: CZ_18  and  NH1_19 
REMARK       I    between atoms: CZ_18  and  NH2_20 
REMARK   14  A    between atoms: N_21  and  CA_22 
REMARK   15  A    between atoms: CA_22  and  C_23 
REMARK   16  A    between atoms: CA_22  and  CB_25 
REMARK       I    between atoms: C_23  and  N_26 
REMARK   17  A    between atoms: N_26  and  CA_27 
REMARK   18  A    between atoms: CA_27  and  C_28 
REMARK   19  A    between atoms: CA_27  and  CB_30 
REMARK       I    between atoms: C_28  and  N_32 
REMARK   20  A    between atoms: CB_30  and  OG_31 
REMARK   21  A    between atoms: N_32  and  CA_33 
REMARK   22  A    between atoms: CA_33  and  C_34 
REMARK   23  A    between atoms: CA_33  and  CB_36 
REMARK       I    between atoms: C_34  and  N_43 
REMARK   24  A    between atoms: CB_36  and  CG_37 
REMARK   25  A    between atoms: CG_37  and  CD_38 
REMARK   26  A    between atoms: CD_38  and  NE_39 
REMARK       I    between atoms: NE_39  and  CZ_40 
REMARK       I    between atoms: CZ_40  and  NH1_41 
REMARK   27  A    between atoms: N_43  and  CA_44 
REMARK   28  A    between atoms: CA_44  and  C_45 
REMARK   29  A    between atoms: CA_44  and  CB_47 
REMARK       I    between atoms: C_45  and  N_57 
REMARK   30  A    between atoms: CB_47  and  CG_48 
REMARK   31  A    between atoms: N_57  and  CA_58 
REMARK   32  A    between atoms: CA_58  and  C_59 
REMARK   33  A    between atoms: CA_58  and  CB_61 
REMARK       I    between atoms: C_59  and  N_65 
REMARK   34  A    between atoms: CB_61  and  CG_62 
REMARK   35  A    between atoms: N_65  and  CA_66 
REMARK   36  A    between atoms: CA_66  and  C_67 
REMARK   37  A    between atoms: CA_66  and  CB_69 
REMARK       I    between atoms: C_67  and  N_74 
REMARK   38  A    between atoms: CB_69  and  CG_70 
REMARK   39  A    between atoms: CG_70  and  CD_71 
REMARK   40  A    between atoms: N_74  and  CA_75 
REMARK   41  A    between atoms: CA_75  and  C_76 
REMARK   42  A    between atoms: CA_75  and  CB_78 
REMARK       I    between atoms: C_76  and  N_81 
REMARK   43  A    between atoms: CB_78  and  OG1_79 
REMARK   44  A    between atoms: CB_78  and  CG2_80 
REMARK   45  A    between atoms: CA_82  and  C_83 
ROOT
ATOM      1  CA  ARG d   1      16.840 -12.162   3.278  0.00  0.00     0.089 C 
ATOM      2  H40 ARG d   1      16.971 -12.338   4.356  0.00  0.00     0.087 H 
ENDROOT
BRANCH   1   3
ATOM      3  N   ARG d   1      17.553 -13.214   2.578  0.00  0.00    -0.346 N 
ATOM      4  C   SER d   1      17.486 -14.483   2.954  0.00  0.00     0.243 C 
ATOM      5  O   SER d   1      16.907 -14.873   3.983  0.00  0.00    -0.271 OA
ATOM      6  H39 ARG d   1      18.114 -12.973   1.786  0.00  0.00     0.163 HD
BRANCH   4   7
ATOM      7  CA  SER d   1      18.134 -15.462   1.988  0.00  0.00     0.109 C 
ATOM      8  H35 SER d   1      19.099 -15.055   1.650  0.00  0.00     0.090 H 
BRANCH   7   9
ATOM      9  N   SER d   1      18.362 -16.725   2.628  0.00  0.00    -0.344 N 
ATOM     10  C   LYS d   1      19.266 -16.899   3.601  0.00  0.00     0.240 C 
ATOM     11  O   LYS d   1      20.048 -16.027   4.012  0.00  0.00    -0.271 OA
ATOM     12  H34 SER d   1      17.821 -17.513   2.334  0.00  0.00     0.163 HD
BRANCH  10  13
ATOM     13  CA  LYS d   1      19.336 -18.301   4.173  0.00  0.00     0.086 C 
ATOM     14  H30 LYS d   1      18.883 -19.003   3.457  0.00  0.00     0.086 H 
BRANCH  13  15
ATOM     15  N   LYS d   1      20.730 -18.681   4.383  0.00  0.00    -0.346 N 
ATOM     16  C   ARG d   1      21.629 -18.710   3.405  0.00  0.00     0.241 C 
ATOM     17  O   ARG d   1      21.390 -18.389   2.250  0.00  0.00    -0.271 OA
ATOM     18  H29 LYS d   1      21.022 -18.931   5.306  0.00  0.00     0.163 HD
BRANCH  16  19
ATOM     19  CA  ARG d   1      23.011 -19.209   3.791  0.00  0.00     0.089 C 
ATOM     20  H17 ARG d   1      22.944 -19.751   4.746  0.00  0.00     0.087 H 
BRANCH  19  21
ATOM     21  N   ARG d   1      23.542 -20.100   2.769  0.00  0.00    -0.346 N 
ATOM     22  C   LYS d   1      22.807 -21.073   2.241  0.00  0.00     0.248 C 
ATOM     23  O   LYS d   1      21.795 -21.519   2.783  0.00  0.00    -0.271 OA
ATOM     24  H16 ARG d   1      24.484 -19.977   2.457  0.00  0.00     0.163 HD
BRANCH  22  25
ATOM     25  CA  LYS d   1      23.284 -21.627   0.903  0.00  0.00     0.176 C 
ATOM     26  H4  LYS d   1      22.957 -20.940   0.109  0.00  0.00     0.099 H 
BRANCH  25  27
ATOM     27  N   LYS d   1      24.738 -21.717   0.857  0.00  0.00    -0.067 N 
ATOM     28  H1  LYS d   1      25.024 -22.085  -0.037  0.00  0.00     0.275 HD
ATOM     29  H2  LYS d   1      25.060 -22.328   1.591  0.00  0.00     0.275 HD
ATOM     30  H3  LYS d   1      25.136 -20.800   0.985  0.00  0.00     0.275 HD
ENDBRANCH  25  27
BRANCH  25  31
ATOM     31  CB  LYS d   1      22.654 -22.998   0.646  0.00  0.00    -0.030 C 
ATOM     32  H5  LYS d   1      23.325 -23.569  -0.013  0.00  0.00     0.036 H 
ATOM     33  H6  LYS d   1      21.688 -22.846   0.142  0.00  0.00     0.036 H 
BRANCH  31  34
ATOM     34  CG  LYS d   1      22.412 -23.815   1.905  0.00  0.00    -0.061 C 
ATOM     35  H7  LYS d   1      21.391 -23.622   2.267  0.00  0.00     0.033 H 
ATOM     36  H8  LYS d   1      23.137 -23.511   2.674  0.00  0.00     0.033 H 
BRANCH  34  37
ATOM     37  CD  LYS d   1      22.569 -25.302   1.636  0.00  0.00    -0.043 C 
ATOM     38  H9  LYS d   1      23.190 -25.440   0.739  0.00  0.00     0.035 H 
ATOM     39  H10 LYS d   1      21.575 -25.742   1.465  0.00  0.00     0.035 H 
BRANCH  37  40
ATOM     40  CE  LYS d   1      23.229 -26.009   2.809  0.00  0.00     0.080 C 
ATOM     41  H11 LYS d   1      24.291 -25.724   2.845  0.00  0.00     0.075 H 
ATOM     42  H12 LYS d   1      23.146 -27.096   2.662  0.00  0.00     0.075 H 
BRANCH  40  43
ATOM     43  NZ  LYS d   1      22.590 -25.649   4.105  0.00  0.00    -0.079 N 
ATOM     44  H13 LYS d   1      23.054 -26.136   4.855  0.00  0.00     0.274 HD
ATOM     45  H14 LYS d   1      21.617 -25.912   4.085  0.00  0.00     0.274 HD
ATOM     46  H15 LYS d   1      22.666 -24.655   4.252  0.00  0.00     0.274 HD
ENDBRANCH  40  43
ENDBRANCH  37  40
ENDBRANCH  34  37
ENDBRANCH  31  34
ENDBRANCH  25  31
ENDBRANCH  22  25
ENDBRANCH  19  21
BRANCH  19  47
ATOM     47  CB  ARG d   1      23.949 -18.029   3.944  0.00  0.00    -0.036 C 
ATOM     48  H18 ARG d   1      24.091 -17.585   2.948  0.00  0.00     0.036 H 
ATOM     49  H19 ARG d   1      24.910 -18.414   4.315  0.00  0.00     0.036 H 
BRANCH  47  50
ATOM     50  CG  ARG d   1      23.505 -16.921   4.881  0.00  0.00    -0.048 C 
ATOM     51  H20 ARG d   1      24.045 -17.006   5.835  0.00  0.00     0.035 H 
ATOM     52  H21 ARG d   1      22.423 -17.003   5.063  0.00  0.00     0.035 H 
BRANCH  50  53
ATOM     53  CD  ARG d   1      23.812 -15.580   4.241  0.00  0.00     0.009 C 
ATOM     54  H22 ARG d   1      24.048 -14.843   5.023  0.00  0.00     0.064 H 
ATOM     55  H23 ARG d   1      22.940 -15.237   3.665  0.00  0.00     0.064 H 
BRANCH  53  56
ATOM     56  NE  ARG d   1      24.960 -15.733   3.348  0.00  0.00    -0.227 N 
ATOM     57  CZ  ARG d   1      25.200 -14.968   2.292  0.00  0.00     0.665 C 
ATOM     58  NH1 ARG d   1      24.396 -13.958   2.002  0.00  0.00    -0.235 N 
ATOM     59  NH2 ARG d   1      26.263 -15.211   1.532  0.00  0.00    -0.235 N 
ATOM     60  H25 ARG d   1      24.587 -13.367   1.180  0.00  0.00     0.174 HD
ATOM     61  H26 ARG d   1      23.579 -13.763   2.598  0.00  0.00     0.174 HD
ATOM     62  H27 ARG d   1      26.889 -15.997   1.758  0.00  0.00     0.174 HD
ATOM     63  H28 ARG d   1      26.461 -14.613   0.717  0.00  0.00     0.174 HD
ATOM     64  H24 ARG d   1      25.629 -16.488   3.554  0.00  0.00     0.177 HD
ENDBRANCH  53  56
ENDBRANCH  50  53
ENDBRANCH  47  50
ENDBRANCH  19  47
ENDBRANCH  16  19
ENDBRANCH  13  15
BRANCH  13  65
ATOM     65  CB  LYS d   1      18.555 -18.360   5.477  0.00  0.00    -0.049 C 
ATOM     66  H31 LYS d   1      17.510 -18.070   5.292  0.00  0.00     0.030 H 
ATOM     67  H32 LYS d   1      19.004 -17.668   6.205  0.00  0.00     0.030 H 
ATOM     68  H33 LYS d   1      18.586 -19.384   5.877  0.00  0.00     0.030 H 
ENDBRANCH  13  65
ENDBRANCH  10  13
ENDBRANCH   7   9
BRANCH   7  69
ATOM     69  CB  SER d   1      17.199 -15.631   0.776  0.00  0.00     0.044 C 
ATOM     70  H36 SER d   1      17.498 -16.527   0.212  0.00  0.00     0.077 H 
ATOM     71  H37 SER d   1      17.284 -14.746   0.129  0.00  0.00     0.077 H 
BRANCH  69  72
ATOM     72  OG  SER d   1      15.840 -15.774   1.198  0.00  0.00    -0.398 OA
ATOM     73  H38 SER d   1      15.761 -16.540   1.755  0.00  0.00     0.209 HD
ENDBRANCH  69  72
ENDBRANCH   7  69
ENDBRANCH   4   7
ENDBRANCH   1   3
BRANCH   1  74
ATOM     74  C   ARG d   1      15.329 -12.152   2.998  0.00  0.00     0.241 C 
ATOM     75  O   ARG d   1      14.607 -11.429   3.654  0.00  0.00    -0.271 OA
ATOM     76  N   TRP d   1      14.831 -12.921   2.028  0.00  0.00    -0.346 N 
ATOM     77  H52 TRP d   1      15.443 -13.474   1.463  0.00  0.00     0.163 HD
BRANCH  76  78
ATOM     78  CA  TRP d   1      13.388 -12.952   1.794  0.00  0.00     0.093 C 
ATOM     79  H53 TRP d   1      13.085 -11.930   1.522  0.00  0.00     0.088 H 
BRANCH  78  80
ATOM     80  C   TRP d   1      12.595 -13.342   3.038  0.00  0.00     0.241 C 
ATOM     81  O   TRP d   1      12.937 -14.301   3.741  0.00  0.00    -0.271 OA
ATOM     82  N   ASP d   1      11.539 -12.571   3.293  0.00  0.00    -0.345 N 
ATOM     83  H62 ASP d   1      11.362 -11.809   2.670  0.00  0.00     0.163 HD
BRANCH  82  84
ATOM     84  CA  ASP d   1      10.600 -12.757   4.437  0.00  0.00     0.098 C 
ATOM     85  H63 ASP d   1       9.810 -12.002   4.310  0.00  0.00     0.088 H 
BRANCH  84  86
ATOM     86  C   ASP d   1      11.198 -12.536   5.819  0.00  0.00     0.241 C 
ATOM     87  O   ASP d   1      10.609 -12.935   6.824  0.00  0.00    -0.271 OA
ATOM     88  N   GLU d   1      12.366 -11.902   5.858  0.00  0.00    -0.346 N 
ATOM     89  H66 GLU d   1      12.835 -11.696   4.999  0.00  0.00     0.163 HD
BRANCH  88  90
ATOM     90  CA  GLU d   1      12.984 -11.498   7.114  0.00  0.00     0.090 C 
ATOM     91  H67 GLU d   1      12.854 -12.315   7.839  0.00  0.00     0.087 H 
BRANCH  90  92
ATOM     92  C   GLU d   1      12.321 -10.247   7.680  0.00  0.00     0.241 C 
ATOM     93  O   GLU d   1      12.312  -9.193   7.045  0.00  0.00    -0.271 OA
ATOM     94  N   THR d   1      11.766 -10.377   8.880  0.00  0.00    -0.344 N 
ATOM     95  H72 THR d   1      11.756 -11.278   9.313  0.00  0.00     0.163 HD
BRANCH  94  96
ATOM     96  CA  THR d   1      11.171  -9.249   9.585  0.00  0.00     0.114 C 
ATOM     97  H73 THR d   1      10.570  -8.659   8.877  0.00  0.00     0.091 H 
BRANCH  96  98
ATOM     98  C   THR d   1      12.273  -8.362  10.175  0.00  0.00     0.246 C 
ATOM     99  O   THR d   1      13.432  -8.796  10.281  0.00  0.00    -0.271 OA
ATOM    100  N   PRO d   1      11.913  -7.126  10.571  0.00  0.00    -0.336 N 
ATOM    101  CA  PRO d   1      12.805  -6.230  11.294  0.00  0.00     0.098 C 
ATOM    102  CD  PRO d   1      10.590  -6.506  10.343  0.00  0.00    -0.001 C 
ATOM    103  CB  PRO d   1      11.901  -5.034  11.635  0.00  0.00    -0.035 C 
ATOM    104  H79 PRO d   1      13.643  -5.930  10.647  0.00  0.00     0.089 H 
ATOM    105  CG  PRO d   1      10.804  -5.077  10.689  0.00  0.00    -0.048 C 
ATOM    106  H80 PRO d   1      12.459  -4.092  11.530  0.00  0.00     0.036 H 
ATOM    107  H81 PRO d   1      11.522  -5.123  12.664  0.00  0.00     0.036 H 
ATOM    108  H82 PRO d   1      11.060  -4.503   9.786  0.00  0.00     0.035 H 
ATOM    109  H83 PRO d   1       9.895  -4.658  11.144  0.00  0.00     0.035 H 
ATOM    110  H84 PRO d   1       9.828  -6.957  10.995  0.00  0.00     0.064 H 
ATOM    111  H85 PRO d   1      10.283  -6.613   9.292  0.00  0.00     0.064 H 
BRANCH 101 112
ATOM    112  C   PRO d   1      13.356  -6.788  12.595  0.00  0.00     0.196 C 
ATOM    113  O   PRO d   1      12.769  -7.689  13.235  0.00  0.00    -0.646 OA
ATOM    114  OXT PRO d   1      14.375  -6.256  13.053  0.00  0.00    -0.646 OA
ENDBRANCH 101 112
ENDBRANCH  96  98
BRANCH  96 115
ATOM    115  CB  THR d   1      10.261  -9.750  10.728  0.00  0.00     0.060 C 
ATOM    116  H74 THR d   1       9.726  -8.892  11.162  0.00  0.00     0.086 H 
BRANCH 115 117
ATOM    117  OG1 THR d   1      11.069 -10.369  11.735  0.00  0.00    -0.393 OA
ATOM    118  H75 THR d   1      11.690  -9.735  12.075  0.00  0.00     0.210 HD
ENDBRANCH 115 117
BRANCH 115 119
ATOM    119  CG2 THR d   1       9.237 -10.772  10.217  0.00  0.00    -0.050 C 
ATOM    120  H76 THR d   1       8.606 -11.108  11.053  0.00  0.00     0.031 H 
ATOM    121  H77 THR d   1       9.765 -11.635   9.786  0.00  0.00     0.031 H 
ATOM    122  H78 THR d   1       8.606 -10.305   9.446  0.00  0.00     0.031 H 
ENDBRANCH 115 119
ENDBRANCH  96 115
ENDBRANCH  94  96
ENDBRANCH  90  92
BRANCH  90 123
ATOM    123  CB  GLU d   1      14.483 -11.257   6.921  0.00  0.00    -0.029 C 
ATOM    124  H68 GLU d   1      14.691 -10.196   7.122  0.00  0.00     0.037 H 
ATOM    125  H69 GLU d   1      14.739 -11.490   5.877  0.00  0.00     0.037 H 
BRANCH 123 126
ATOM    126  CG  GLU d   1      15.368 -12.096   7.827  0.00  0.00     0.018 C 
ATOM    127  H70 GLU d   1      15.050 -13.147   7.755  0.00  0.00     0.049 H 
ATOM    128  H71 GLU d   1      15.245 -11.746   8.862  0.00  0.00     0.049 H 
BRANCH 126 129
ATOM    129  CD  GLU d   1      16.835 -12.006   7.455  0.00  0.00     0.172 C 
ATOM    130  OE1 GLU d   1      17.327 -10.878   7.241  0.00  0.00    -0.648 OA
ATOM    131  OE2 GLU d   1      17.496 -13.062   7.376  0.00  0.00    -0.648 OA
ENDBRANCH 126 129
ENDBRANCH 123 126
ENDBRANCH  90 123
ENDBRANCH  88  90
ENDBRANCH  84  86
BRANCH  84 132
ATOM    132  CB  ASP d   1       9.933 -14.127   4.403  0.00  0.00     0.043 C 
ATOM    133  H64 ASP d   1       9.179 -14.174   5.202  0.00  0.00     0.052 H 
ATOM    134  H65 ASP d   1      10.698 -14.898   4.574  0.00  0.00     0.052 H 
BRANCH 132 135
ATOM    135  CG  ASP d   1       9.270 -14.392   3.105  0.00  0.00     0.175 C 
ATOM    136  OD1 ASP d   1       9.645 -15.388   2.468  0.00  0.00    -0.648 OA
ATOM    137  OD2 ASP d   1       8.396 -13.596   2.719  0.00  0.00    -0.648 OA
ENDBRANCH 132 135
ENDBRANCH  84 132
ENDBRANCH  82  84
ENDBRANCH  78  80
BRANCH  78 138
ATOM    138  CB  TRP d   1      13.024 -13.870   0.617  0.00  0.00    -0.012 C 
ATOM    139  H54 TRP d   1      11.932 -13.998   0.583  0.00  0.00     0.044 H 
ATOM    140  H55 TRP d   1      13.503 -14.850   0.761  0.00  0.00     0.044 H 
BRANCH 138 141
ATOM    141  CG  TRP d   1      13.487 -13.285  -0.667  0.00  0.00    -0.028 A 
ATOM    142  CD1 TRP d   1      14.562 -13.672  -1.377  0.00  0.00    -0.015 A 
ATOM    143  NE1 TRP d   1      14.730 -12.871  -2.458  0.00  0.00    -0.365 N 
ATOM    144  H56 TRP d   1      15.207 -14.511  -1.120  0.00  0.00     0.112 H 
ATOM    145  CE2 TRP d   1      13.757 -11.912  -2.456  0.00  0.00     0.042 A 
ATOM    146  H57 TRP d   1      15.471 -12.970  -3.166  0.00  0.00     0.165 HD
ATOM    147  CD2 TRP d   1      12.951 -12.146  -1.333  0.00  0.00    -0.002 A 
ATOM    148  CZ2 TRP d   1      13.488 -10.901  -3.370  0.00  0.00    -0.056 A 
ATOM    149  CE3 TRP d   1      11.882 -11.276  -1.073  0.00  0.00    -0.070 A 
ATOM    150  CZ3 TRP d   1      11.645 -10.247  -1.944  0.00  0.00    -0.082 A 
ATOM    151  H58 TRP d   1      11.256 -11.416  -0.199  0.00  0.00     0.084 H 
ATOM    152  CH2 TRP d   1      12.450 -10.065  -3.090  0.00  0.00    -0.081 A 
ATOM    153  H60 TRP d   1      10.827  -9.562  -1.751  0.00  0.00     0.083 H 
ATOM    154  H61 TRP d   1      12.237  -9.241  -3.762  0.00  0.00     0.083 H 
ATOM    155  H59 TRP d   1      14.081 -10.782  -4.270  0.00  0.00     0.086 H 
ENDBRANCH 138 141
ENDBRANCH  78 138
ENDBRANCH  76  78
ENDBRANCH   1  74
BRANCH   1 156
ATOM    156  CB  ARG d   1      17.461 -10.796   2.942  0.00  0.00    -0.036 C 
ATOM    157  H41 ARG d   1      16.728 -10.011   3.179  0.00  0.00     0.036 H 
ATOM    158  H42 ARG d   1      17.690 -10.771   1.867  0.00  0.00     0.036 H 
BRANCH 156 159
ATOM    159  CG  ARG d   1      18.752 -10.510   3.723  0.00  0.00    -0.048 C 
ATOM    160  H43 ARG d   1      19.385 -11.410   3.708  0.00  0.00     0.035 H 
ATOM    161  H44 ARG d   1      18.492 -10.262   4.763  0.00  0.00     0.035 H 
BRANCH 159 162
ATOM    162  CD  ARG d   1      19.523  -9.359   3.123  0.00  0.00     0.009 C 
ATOM    163  H45 ARG d   1      20.281  -9.021   3.844  0.00  0.00     0.064 H 
ATOM    164  H46 ARG d   1      18.827  -8.534   2.908  0.00  0.00     0.064 H 
BRANCH 162 165
ATOM    165  NE  ARG d   1      20.184  -9.754   1.891  0.00  0.00    -0.227 N 
ATOM    166  CZ  ARG d   1      20.978  -8.966   1.181  0.00  0.00     0.665 C 
ATOM    167  NH1 ARG d   1      21.215  -7.718   1.579  0.00  0.00    -0.235 N 
ATOM    168  NH2 ARG d   1      21.554  -9.430   0.078  0.00  0.00    -0.235 N 
ATOM    169  H48 ARG d   1      21.833  -7.109   1.024  0.00  0.00     0.174 HD
ATOM    170  H49 ARG d   1      20.780  -7.361   2.442  0.00  0.00     0.174 HD
ATOM    171  H50 ARG d   1      21.372 -10.395  -0.231  0.00  0.00     0.174 HD
ATOM    172  H51 ARG d   1      22.183  -8.825  -0.468  0.00  0.00     0.174 HD
ATOM    173  H47 ARG d   1      20.025 -10.711   1.546  0.00  0.00     0.177 HD
ENDBRANCH 162 165
ENDBRANCH 159 162
ENDBRANCH 156 159
ENDBRANCH   1 156
TORSDOF 45
