REMARK  28 active torsions:
REMARK  status: ('A' for Active; 'I' for Inactive)
REMARK    1  A    between atoms: N_1  and  CA_2 
REMARK    2  A    between atoms: CA_2  and  C_3 
REMARK    3  A    between atoms: CA_2  and  CB_5 
REMARK       I    between atoms: C_3  and  N_6 
REMARK    4  A    between atoms: N_6  and  CA_7 
REMARK    5  A    between atoms: CA_7  and  C_8 
REMARK    6  A    between atoms: CA_7  and  CB_10 
REMARK       I    between atoms: C_8  and  N_14 
REMARK    7  A    between atoms: CB_10  and  CG1_11 
REMARK    8  A    between atoms: CB_10  and  CG2_12 
REMARK    9  A    between atoms: CG1_11  and  CD1_13 
REMARK   10  A    between atoms: N_14  and  CA_15 
REMARK   11  A    between atoms: CA_15  and  C_16 
REMARK   12  A    between atoms: CA_15  and  CB_18 
REMARK       I    between atoms: C_16  and  N_19 
REMARK   13  A    between atoms: N_19  and  CA_20 
REMARK   14  A    between atoms: CA_20  and  C_21 
REMARK   15  A    between atoms: CA_20  and  CB_23 
REMARK       I    between atoms: C_21  and  N_30 
REMARK   16  A    between atoms: CB_23  and  CG_24 
REMARK   17  A    between atoms: N_30  and  CA_31 
REMARK   18  A    between atoms: CA_31  and  C_32 
REMARK   19  A    between atoms: CA_31  and  CB_34 
REMARK       I    between atoms: C_32  and  N_39 
REMARK   20  A    between atoms: CB_34  and  CG_35 
REMARK   21  A    between atoms: CG_35  and  CD_36 
REMARK   22  A    between atoms: N_39  and  CA_40 
REMARK   23  A    between atoms: CA_40  and  C_41 
REMARK   24  A    between atoms: CA_40  and  CB_43 
REMARK       I    between atoms: C_41  and  N_50 
REMARK   25  A    between atoms: CB_43  and  CG_44 
REMARK   26  A    between atoms: N_50  and  CA_51 
REMARK   27  A    between atoms: CA_51  and  C_52 
REMARK   28  A    between atoms: CA_51  and  CB_54 
ROOT
ATOM      1  CA  PHE d   1      26.161  13.826 -53.871  0.00  0.00     0.093 C 
ATOM      2  H25 PHE d   1      26.585  14.832 -53.735  0.00  0.00     0.088 H 
ENDROOT
BRANCH   1   3
ATOM      3  N   PHE d   1      26.177  13.483 -55.288  0.00  0.00    -0.346 N 
ATOM      4  C   LYS d   1      26.844  14.216 -56.178  0.00  0.00     0.240 C 
ATOM      5  O   LYS d   1      27.293  15.340 -55.924  0.00  0.00    -0.271 OA
ATOM      6  H24 PHE d   1      25.674  12.677 -55.600  0.00  0.00     0.163 HD
BRANCH   4   7
ATOM      7  CA  LYS d   1      27.001  13.597 -57.576  0.00  0.00     0.086 C 
ATOM      8  H20 LYS d   1      26.172  12.890 -57.727  0.00  0.00     0.086 H 
BRANCH   7   9
ATOM      9  N   LYS d   1      26.930  14.606 -58.617  0.00  0.00    -0.346 N 
ATOM     10  C   ILE d   1      25.795  14.882 -59.245  0.00  0.00     0.241 C 
ATOM     11  O   ILE d   1      24.722  14.322 -58.978  0.00  0.00    -0.271 OA
ATOM     12  H19 LYS d   1      27.759  15.106 -58.867  0.00  0.00     0.163 HD
BRANCH  10  13
ATOM     13  CA  ILE d   1      25.884  15.933 -60.354  0.00  0.00     0.092 C 
ATOM     14  H9  ILE d   1      26.936  16.189 -60.548  0.00  0.00     0.088 H 
BRANCH  13  15
ATOM     15  N   ILE d   1      25.316  15.295 -61.544  0.00  0.00    -0.346 N 
ATOM     16  C   GLU d   1      26.084  14.682 -62.447  0.00  0.00     0.248 C 
ATOM     17  O   GLU d   1      27.304  14.891 -62.545  0.00  0.00    -0.271 OA
ATOM     18  H8  ILE d   1      24.326  15.319 -61.684  0.00  0.00     0.163 HD
BRANCH  16  19
ATOM     19  CA  GLU d   1      25.355  13.710 -63.408  0.00  0.00     0.172 C 
ATOM     20  H4  GLU d   1      24.278  13.826 -63.218  0.00  0.00     0.098 H 
BRANCH  19  21
ATOM     21  N   GLU d   1      25.574  14.020 -64.860  0.00  0.00    -0.067 N 
ATOM     22  H1  GLU d   1      25.074  13.352 -65.425  0.00  0.00     0.275 HD
ATOM     23  H2  GLU d   1      26.558  13.967 -65.070  0.00  0.00     0.275 HD
ATOM     24  H3  GLU d   1      25.237  14.949 -65.060  0.00  0.00     0.275 HD
ENDBRANCH  19  21
BRANCH  19  25
ATOM     25  CB  GLU d   1      25.721  12.239 -63.094  0.00  0.00    -0.042 C 
ATOM     26  H5  GLU d   1      25.552  12.039 -62.026  0.00  0.00     0.030 H 
ATOM     27  H6  GLU d   1      26.780  12.065 -63.336  0.00  0.00     0.030 H 
ATOM     28  H7  GLU d   1      25.092  11.568 -63.697  0.00  0.00     0.030 H 
ENDBRANCH  19  25
ENDBRANCH  16  19
ENDBRANCH  13  15
BRANCH  13  29
ATOM     29  CB  ILE d   1      25.133  17.233 -59.913  0.00  0.00    -0.030 C 
ATOM     30  H10 ILE d   1      24.170  16.929 -59.477  0.00  0.00     0.043 H 
BRANCH  29  31
ATOM     31  CG1 ILE d   1      24.827  18.168 -61.101  0.00  0.00    -0.063 C 
ATOM     32  H11 ILE d   1      25.684  18.137 -61.790  0.00  0.00     0.033 H 
ATOM     33  H12 ILE d   1      24.707  19.189 -60.710  0.00  0.00     0.033 H 
BRANCH  31  34
ATOM     34  CD1 ILE d   1      23.553  17.807 -61.902  0.00  0.00    -0.076 C 
ATOM     35  H16 ILE d   1      23.420  18.526 -62.723  0.00  0.00     0.027 H 
ATOM     36  H17 ILE d   1      22.678  17.845 -61.236  0.00  0.00     0.027 H 
ATOM     37  H18 ILE d   1      23.655  16.793 -62.316  0.00  0.00     0.027 H 
ENDBRANCH  31  34
ENDBRANCH  29  31
BRANCH  29  38
ATOM     38  CG2 ILE d   1      25.928  17.960 -58.832  0.00  0.00    -0.071 C 
ATOM     39  H13 ILE d   1      26.131  17.270 -58.000  0.00  0.00     0.028 H 
ATOM     40  H14 ILE d   1      25.346  18.818 -58.464  0.00  0.00     0.028 H 
ATOM     41  H15 ILE d   1      26.880  18.316 -59.254  0.00  0.00     0.028 H 
ENDBRANCH  29  38
ENDBRANCH  13  29
ENDBRANCH  10  13
ENDBRANCH   7   9
BRANCH   7  42
ATOM     42  CB  LYS d   1      28.320  12.823 -57.695  0.00  0.00    -0.049 C 
ATOM     43  H21 LYS d   1      28.370  12.060 -56.905  0.00  0.00     0.030 H 
ATOM     44  H22 LYS d   1      29.165  13.519 -57.586  0.00  0.00     0.030 H 
ATOM     45  H23 LYS d   1      28.371  12.335 -58.680  0.00  0.00     0.030 H 
ENDBRANCH   7  42
ENDBRANCH   4   7
ENDBRANCH   1   3
BRANCH   1  46
ATOM     46  C   PHE d   1      27.028  12.810 -53.136  0.00  0.00     0.241 C 
ATOM     47  O   PHE d   1      26.945  11.619 -53.425  0.00  0.00    -0.271 OA
ATOM     48  N   GLU d   1      27.867  13.284 -52.211  0.00  0.00    -0.346 N 
ATOM     49  H33 GLU d   1      27.922  14.274 -52.079  0.00  0.00     0.163 HD
BRANCH  48  50
ATOM     50  CA  GLU d   1      28.710  12.421 -51.382  0.00  0.00     0.090 C 
ATOM     51  H34 GLU d   1      28.299  11.401 -51.403  0.00  0.00     0.087 H 
BRANCH  50  52
ATOM     52  C   GLU d   1      28.740  12.922 -49.957  0.00  0.00     0.241 C 
ATOM     53  O   GLU d   1      28.772  14.133 -49.741  0.00  0.00    -0.271 OA
ATOM     54  N   PHE d   1      28.740  12.013 -48.978  0.00  0.00    -0.346 N 
ATOM     55  H39 PHE d   1      28.598  11.046 -49.188  0.00  0.00     0.163 HD
BRANCH  54  56
ATOM     56  CA  PHE d   1      28.951  12.448 -47.586  0.00  0.00     0.093 C 
ATOM     57  H40 PHE d   1      28.671  13.512 -47.591  0.00  0.00     0.088 H 
BRANCH  56  58
ATOM     58  C   PHE d   1      30.396  12.422 -47.121  0.00  0.00     0.241 C 
ATOM     59  O   PHE d   1      31.000  11.359 -46.978  0.00  0.00    -0.271 OA
ATOM     60  N   ASP d   1      30.934  13.620 -46.899  0.00  0.00    -0.345 N 
ATOM     61  H48 ASP d   1      30.404  14.434 -47.137  0.00  0.00     0.163 HD
BRANCH  60  62
ATOM     62  CA  ASP d   1      32.261  13.795 -46.325  0.00  0.00     0.093 C 
ATOM     63  H49 ASP d   1      33.004  13.293 -46.963  0.00  0.00     0.089 H 
BRANCH  62  64
ATOM     64  C   ASP d   1      32.251  13.140 -44.948  0.00  0.00     0.196 C 
ATOM     65  O   ASP d   1      31.282  13.288 -44.188  0.00  0.00    -0.646 OA
ATOM     66  OXT ASP d   1      33.187  12.426 -44.589  0.00  0.00    -0.646 OA
ENDBRANCH  62  64
BRANCH  62  67
ATOM     67  CB  ASP d   1      32.626  15.287 -46.223  0.00  0.00    -0.048 C 
ATOM     68  H50 ASP d   1      33.631  15.390 -45.787  0.00  0.00     0.030 H 
ATOM     69  H51 ASP d   1      31.894  15.801 -45.582  0.00  0.00     0.030 H 
ATOM     70  H52 ASP d   1      32.614  15.737 -47.227  0.00  0.00     0.030 H 
ENDBRANCH  62  67
ENDBRANCH  60  62
ENDBRANCH  56  58
BRANCH  56  71
ATOM     71  CB  PHE d   1      28.026  11.797 -46.537  0.00  0.00    -0.014 C 
ATOM     72  H41 PHE d   1      27.244  12.526 -46.278  0.00  0.00     0.043 H 
ATOM     73  H42 PHE d   1      28.631  11.575 -45.645  0.00  0.00     0.043 H 
BRANCH  71  74
ATOM     74  CG  PHE d   1      27.345  10.519 -46.964  0.00  0.00    -0.056 A 
ATOM     75  CD1 PHE d   1      27.864   9.290 -46.604  0.00  0.00    -0.077 A 
ATOM     76  CE1 PHE d   1      27.205   8.119 -46.956  0.00  0.00    -0.082 A 
ATOM     77  H43 PHE d   1      28.791   9.239 -46.044  0.00  0.00     0.084 H 
ATOM     78  CZ  PHE d   1      26.005   8.174 -47.648  0.00  0.00    -0.083 A 
ATOM     79  H45 PHE d   1      27.631   7.159 -46.689  0.00  0.00     0.083 H 
ATOM     80  CE2 PHE d   1      25.466   9.388 -47.984  0.00  0.00    -0.082 A 
ATOM     81  H47 PHE d   1      25.494   7.258 -47.923  0.00  0.00     0.083 H 
ATOM     82  CD2 PHE d   1      26.123  10.555 -47.631  0.00  0.00    -0.077 A 
ATOM     83  H46 PHE d   1      24.528   9.435 -48.525  0.00  0.00     0.083 H 
ATOM     84  H44 PHE d   1      25.679  11.512 -47.878  0.00  0.00     0.084 H 
ENDBRANCH  71  74
ENDBRANCH  56  71
ENDBRANCH  54  56
ENDBRANCH  50  52
BRANCH  50  85
ATOM     85  CB  GLU d   1      30.148  12.396 -51.896  0.00  0.00    -0.029 C 
ATOM     86  H35 GLU d   1      30.823  12.577 -51.046  0.00  0.00     0.037 H 
ATOM     87  H36 GLU d   1      30.265  13.202 -52.635  0.00  0.00     0.037 H 
BRANCH  85  88
ATOM     88  CG  GLU d   1      30.546  11.083 -52.552  0.00  0.00     0.018 C 
ATOM     89  H37 GLU d   1      29.773  10.330 -52.336  0.00  0.00     0.049 H 
ATOM     90  H38 GLU d   1      31.507  10.753 -52.131  0.00  0.00     0.049 H 
BRANCH  88  91
ATOM     91  CD  GLU d   1      30.693  11.219 -54.071  0.00  0.00     0.172 C 
ATOM     92  OE1 GLU d   1      31.636  11.932 -54.507  0.00  0.00    -0.648 OA
ATOM     93  OE2 GLU d   1      29.881  10.608 -54.820  0.00  0.00    -0.648 OA
ENDBRANCH  88  91
ENDBRANCH  85  88
ENDBRANCH  50  85
ENDBRANCH  48  50
ENDBRANCH   1  46
BRANCH   1  94
ATOM     94  CB  PHE d   1      24.729  13.817 -53.323  0.00  0.00    -0.014 C 
ATOM     95  H26 PHE d   1      24.364  12.779 -53.326  0.00  0.00     0.043 H 
ATOM     96  H27 PHE d   1      24.101  14.428 -53.987  0.00  0.00     0.043 H 
BRANCH  94  97
ATOM     97  CG  PHE d   1      24.605  14.359 -51.922  0.00  0.00    -0.056 A 
ATOM     98  CD1 PHE d   1      24.367  15.702 -51.703  0.00  0.00    -0.077 A 
ATOM     99  CE1 PHE d   1      24.255  16.205 -50.411  0.00  0.00    -0.082 A 
ATOM    100  H28 PHE d   1      24.266  16.372 -52.549  0.00  0.00     0.084 H 
ATOM    101  CZ  PHE d   1      24.375  15.364 -49.329  0.00  0.00    -0.083 A 
ATOM    102  H30 PHE d   1      24.073  17.262 -50.256  0.00  0.00     0.083 H 
ATOM    103  CE2 PHE d   1      24.614  14.021 -49.531  0.00  0.00    -0.082 A 
ATOM    104  H32 PHE d   1      24.282  15.755 -48.322  0.00  0.00     0.083 H 
ATOM    105  CD2 PHE d   1      24.728  13.523 -50.821  0.00  0.00    -0.077 A 
ATOM    106  H31 PHE d   1      24.713  13.354 -48.682  0.00  0.00     0.083 H 
ATOM    107  H29 PHE d   1      24.916  12.466 -50.971  0.00  0.00     0.084 H 
ENDBRANCH  94  97
ENDBRANCH   1  94
TORSDOF 28
