REMARK  1 active torsions:
REMARK  status: ('A' for Active; 'I' for Inactive)
REMARK    1  A    between atoms: CA_2  and  C_7 
ROOT
ATOM      1  N   PCA d   1      55.405  92.963   6.026  0.00  0.00    -0.347 N 
ATOM      2  CA  PCA d   1      54.725  93.908   6.943  0.00  0.00     0.096 A 
ATOM      3  CB  PCA d   1      53.639  93.184   7.700  0.00  0.00    -0.029 A 
ATOM      4  CG  PCA d   1      53.723  91.747   7.280  0.00  0.00     0.011 A 
ATOM      5  CD  PCA d   1      54.795  91.698   6.243  0.00  0.00     0.218 A 
ATOM      6  OE  PCA d   1      55.089  90.693   5.604  0.00  0.00    -0.274 OA
ATOM      7  H1  PCA d   1      56.143  93.173   5.385  0.00  0.00     0.163 HD
ATOM      8  H2  PCA d   1      54.271  94.716   6.351  0.00  0.00     0.089 H 
ATOM      9  H3  PCA d   1      52.653  93.599   7.443  0.00  0.00     0.037 H 
ATOM     10  H4  PCA d   1      53.804  93.275   8.784  0.00  0.00     0.037 H 
ATOM     11  H5  PCA d   1      52.764  91.413   6.858  0.00  0.00     0.047 H 
ATOM     12  H6  PCA d   1      53.988  91.111   8.137  0.00  0.00     0.047 H 
ENDROOT
BRANCH   2  13
ATOM     13  C   PCA d   1      55.724  94.511   7.911  0.00  0.00     0.196 C 
ATOM     14  O   PCA d   1      55.482  95.496   8.619  0.00  0.00    -0.646 OA
ATOM     15  OXT PCA d   1      56.824  93.996   7.993  0.00  0.00    -0.646 OA
ENDBRANCH   2  13
TORSDOF 1
