REMARK  7 active torsions:
REMARK  status: ('A' for Active; 'I' for Inactive)
REMARK    1  A    between atoms: C15_2  and  C16_3 
REMARK       I    between atoms: C15_2  and  N14_8 
REMARK    2  A    between atoms: N14_8  and  C13_9 
REMARK    3  A    between atoms: C5_17  and  C4_18 
REMARK       I    between atoms: C4_18  and  N3_20 
REMARK    4  A    between atoms: N3_20  and  C2_21 
REMARK    5  A    between atoms: N3_20  and  C23_23 
REMARK    6  A    between atoms: C2_21  and  C1_22 
REMARK    7  A    between atoms: C23_23  and  C24_24 
ROOT
ATOM      1  C13 K01 d   1      28.139  14.077  13.577  0.00  0.00     0.093 A 
ATOM      2  S12 K01 d   1      27.883  13.459  12.010  0.00  0.00    -0.075 SA
ATOM      3  C7  K01 d   1      26.555  14.553  11.722  0.00  0.00    -0.008 A 
ATOM      4  C6  K01 d   1      26.324  15.340  12.848  0.00  0.00    -0.026 A 
ATOM      5  C11 K01 d   1      25.226  16.369  12.885  0.00  0.00    -0.039 C 
ATOM      6  C10 K01 d   1      24.724  16.664  11.442  0.00  0.00    -0.061 C 
ATOM      7  C9  K01 d   1      25.354  15.996  10.204  0.00  0.00    -0.061 C 
ATOM      8  C8  K01 d   1      25.772  14.516  10.429  0.00  0.00    -0.034 C 
ATOM      9  C5  K01 d   1      27.246  15.098  13.880  0.00  0.00     0.073 A 
ATOM     10  H5  K01 d   1      25.611  17.297  13.333  0.00  0.00     0.040 H 
ATOM     11  H6  K01 d   1      24.390  15.988  13.491  0.00  0.00     0.040 H 
ATOM     12  H7  K01 d   1      24.832  17.749  11.294  0.00  0.00     0.033 H 
ATOM     13  H8  K01 d   1      23.657  16.396  11.427  0.00  0.00     0.033 H 
ATOM     14  H9  K01 d   1      26.249  16.569   9.919  0.00  0.00     0.033 H 
ATOM     15  H10 K01 d   1      24.622  16.028   9.383  0.00  0.00     0.033 H 
ATOM     16  H11 K01 d   1      24.887  13.870  10.525  0.00  0.00     0.040 H 
ATOM     17  H12 K01 d   1      26.400  14.156   9.601  0.00  0.00     0.040 H 
ENDROOT
BRANCH   9  18
ATOM     18  C4  K01 d   1      26.962  15.831  15.157  0.00  0.00     0.257 C 
ATOM     19  O22 K01 d   1      26.049  16.522  15.149  0.00  0.00    -0.267 OA
ATOM     20  N3  K01 d   1      27.624  16.233  16.188  0.00  0.00    -0.349 N 
BRANCH  20  21
ATOM     21  C2  K01 d   1      28.752  15.629  15.890  0.00  0.00    -0.005 C 
ATOM     22  H13 K01 d   1      28.640  14.802  15.173  0.00  0.00     0.063 H 
ATOM     23  H14 K01 d   1      29.317  15.280  16.767  0.00  0.00     0.063 H 
BRANCH  21  24
ATOM     24  C1  K01 d   1      29.376  17.101  15.184  0.00  0.00    -0.061 C 
ATOM     25  H15 K01 d   1      30.393  16.923  14.805  0.00  0.00     0.029 H 
ATOM     26  H16 K01 d   1      29.402  17.892  15.948  0.00  0.00     0.029 H 
ATOM     27  H17 K01 d   1      28.725  17.414  14.354  0.00  0.00     0.029 H 
ENDBRANCH  21  24
ENDBRANCH  20  21
BRANCH  20  28
ATOM     28  C23 K01 d   1      27.706  16.756  17.529  0.00  0.00    -0.005 C 
ATOM     29  H18 K01 d   1      26.701  16.950  17.933  0.00  0.00     0.063 H 
ATOM     30  H19 K01 d   1      28.295  17.685  17.549  0.00  0.00     0.063 H 
BRANCH  28  31
ATOM     31  C24 K01 d   1      28.394  15.674  18.314  0.00  0.00    -0.061 C 
ATOM     32  H20 K01 d   1      28.500  15.992  19.362  0.00  0.00     0.029 H 
ATOM     33  H21 K01 d   1      29.390  15.487  17.885  0.00  0.00     0.029 H 
ATOM     34  H22 K01 d   1      27.796  14.752  18.269  0.00  0.00     0.029 H 
ENDBRANCH  28  31
ENDBRANCH  20  28
ENDBRANCH   9  18
BRANCH   1  35
ATOM     35  N14 K01 d   1      29.082  13.614  14.448  0.00  0.00    -0.316 N 
ATOM     36  C15 K01 d   1      30.348  13.546  14.359  0.00  0.00     0.263 C 
ATOM     37  O21 K01 d   1      30.771  14.146  13.424  0.00  0.00    -0.267 OA
ATOM     38  H4  K01 d   1      28.711  13.267  15.309  0.00  0.00     0.169 HD
BRANCH  36  39
ATOM     39  C16 K01 d   1      31.058  12.871  15.485  0.00  0.00     0.072 A 
ATOM     40  S17 K01 d   1      32.783  12.952  15.357  0.00  0.00    -0.097 SA
ATOM     41  C18 K01 d   1      33.040  12.020  16.784  0.00  0.00    -0.044 A 
ATOM     42  C19 K01 d   1      31.789  11.695  17.315  0.00  0.00    -0.075 A 
ATOM     43  H1  K01 d   1      34.006  11.735  17.198  0.00  0.00     0.095 H 
ATOM     44  C20 K01 d   1      30.651  12.139  16.623  0.00  0.00    -0.060 A 
ATOM     45  H2  K01 d   1      31.700  11.117  18.234  0.00  0.00     0.084 H 
ATOM     46  H3  K01 d   1      29.619  11.950  16.916  0.00  0.00     0.085 H 
ENDBRANCH  36  39
ENDBRANCH   1  35
TORSDOF 7
