REMARK  4 active torsions:
REMARK  status: ('A' for Active; 'I' for Inactive)
REMARK    1  A    between atoms: C3D_8  and  O3D_9 
REMARK    2  A    between atoms: C2D_10  and  O2D_11 
REMARK    3  A    between atoms: C2'_26  and  O2'_27 
REMARK    4  A    between atoms: C3'_28  and  O3'_29 
ROOT
ATOM      1  O1B N1C d   1       5.561   3.510   3.387  0.00  0.00    -0.624 OA
ATOM      2  PB  N1C d   1       4.162   4.101   3.481  0.00  0.00     0.417 P 
ATOM      3  O3A N1C d   1       3.629   3.954   4.990  0.00  0.00    -0.180 OA
ATOM      4  O2B N1C d   1       3.874   5.544   3.058  0.00  0.00    -0.624 OA
ATOM      5  O5D N1C d   1       3.165   3.157   2.632  0.00  0.00    -0.287 OA
ATOM      6  C5D N1C d   1       1.756   3.396   2.690  0.00  0.00     0.058 C 
ATOM      7  C4D N1C d   1       1.192   3.662   1.287  0.00  0.00     0.089 C 
ATOM      8  C3D N1C d   1      -0.307   3.463   1.269  0.00  0.00     0.091 C 
ATOM      9  C2D N1C d   1      -0.540   2.156   0.527  0.00  0.00     0.105 C 
ATOM     10  O4D N1C d   1       1.690   2.743   0.305  0.00  0.00    -0.353 OA
ATOM     11  C1D N1C d   1       0.831   1.612   0.125  0.00  0.00     0.141 C 
ATOM     12  N1  N1C d   1       1.306   0.580   1.065  0.00  0.00    -0.276 N 
ATOM     13  C6  N1C d   1       0.422  -0.351   1.672  0.00  0.00     0.283 A 
ATOM     14  O6  N1C d   1      -0.795  -0.396   1.404  0.00  0.00    -0.265 OA
ATOM     15  C5  N1C d   1       0.995  -1.327   2.628  0.00  0.00     0.172 A 
ATOM     16  N7  N1C d   1       0.454  -2.319   3.369  0.00  0.00    -0.234 NA
ATOM     17  C8  N1C d   1       1.464  -2.881   4.069  0.00  0.00     0.071 A 
ATOM     18  C2  N1C d   1       2.614   0.535   1.390  0.00  0.00     0.073 A 
ATOM     19  N3  N1C d   1       3.127  -0.350   2.263  0.00  0.00    -0.223 NA
ATOM     20  C4  N1C d   1       2.350  -1.274   2.893  0.00  0.00     0.169 A 
ATOM     21  N9  N1C d   1       2.610  -2.251   3.771  0.00  0.00    -0.293 N 
ATOM     22  C1' N1C d   1       3.915  -2.596   4.389  0.00  0.00     0.148 C 
ATOM     23  O4' N1C d   1       4.005  -1.740   5.535  0.00  0.00    -0.322 OA
ATOM     24  C2' N1C d   1       5.137  -2.306   3.526  0.00  0.00     0.126 C 
ATOM     25  C3' N1C d   1       5.700  -1.082   4.161  0.00  0.00     0.107 C 
ATOM     26  C4' N1C d   1       4.996  -0.736   5.221  0.00  0.00     0.105 C 
ATOM     27  C5' N1C d   1       5.175   0.535   6.022  0.00  0.00     0.078 C 
ATOM     28  O5' N1C d   1       4.473   1.611   5.393  0.00  0.00    -0.283 OA
ATOM     29  PA  N1C d   1       4.419   3.066   6.079  0.00  0.00     0.418 P 
ATOM     30  O1A N1C d   1       5.832   3.585   6.240  0.00  0.00    -0.624 OA
ATOM     31  O2A N1C d   1       3.506   3.006   7.278  0.00  0.00    -0.624 OA
ATOM     32  H1  N1C d   1       1.564   4.271   3.328  0.00  0.00     0.079 H 
ATOM     33  H2  N1C d   1       1.258   2.514   3.118  0.00  0.00     0.079 H 
ATOM     34  H3  N1C d   1       1.444   4.692   0.996  0.00  0.00     0.090 H 
ATOM     35  H4  N1C d   1      -0.710   3.396   2.291  0.00  0.00     0.091 H 
ATOM     36  H6  N1C d   1      -1.051   1.433   1.180  0.00  0.00     0.093 H 
ATOM     37  H8  N1C d   1       0.832   1.235  -0.908  0.00  0.00     0.123 H 
ATOM     38  H9  N1C d   1       1.363  -3.713   4.764  0.00  0.00     0.144 H 
ATOM     39  H10 N1C d   1       3.288   1.251   0.922  0.00  0.00     0.144 H 
ATOM     40  H11 N1C d   1       3.919  -3.657   4.678  0.00  0.00     0.124 H 
ATOM     41  H12 N1C d   1       4.888  -2.159   2.465  0.00  0.00     0.100 H 
ATOM     42  H15 N1C d   1       6.245   0.782   6.079  0.00  0.00     0.085 H 
ATOM     43  H16 N1C d   1       4.779   0.385   7.037  0.00  0.00     0.085 H 
ENDROOT
BRANCH   8  44
ATOM     44  O3D N1C d   1      -0.890   4.584   0.591  0.00  0.00    -0.390 OA
ATOM     45  H5  N1C d   1      -0.552   4.627  -0.296  0.00  0.00     0.210 HD
ENDBRANCH   8  44
BRANCH   9  46
ATOM     46  O2D N1C d   1      -1.350   2.416  -0.624  0.00  0.00    -0.388 OA
ATOM     47  H7  N1C d   1      -0.903   3.033  -1.191  0.00  0.00     0.210 HD
ENDBRANCH   9  46
BRANCH  24  48
ATOM     48  O2' N1C d   1       6.065  -3.383   3.711  0.00  0.00    -0.384 OA
ATOM     49  H13 N1C d   1       6.839  -3.227   3.182  0.00  0.00     0.210 HD
ENDBRANCH  24  48
BRANCH  25  50
ATOM     50  O3' N1C d   1       6.795  -0.460   3.732  0.00  0.00    -0.360 OA
ATOM     51  H14 N1C d   1       6.967   0.293   4.285  0.00  0.00     0.217 HD
ENDBRANCH  25  50
TORSDOF 4
