REMARK  4 active torsions:
REMARK  status: ('A' for Active; 'I' for Inactive)
REMARK    1  A    between atoms: C3D_8  and  O3D_9 
REMARK    2  A    between atoms: C2D_10  and  O2D_11 
REMARK    3  A    between atoms: C2'_26  and  O2'_27 
REMARK    4  A    between atoms: C3'_28  and  O3'_29 
ROOT
ATOM      1  O1B N1C d   1       5.576   3.731   3.488  0.00  0.00    -0.624 OA
ATOM      2  PB  N1C d   1       4.150   4.303   3.542  0.00  0.00     0.417 P 
ATOM      3  O3A N1C d   1       3.605   4.203   5.057  0.00  0.00    -0.180 OA
ATOM      4  O2B N1C d   1       3.804   5.669   3.002  0.00  0.00    -0.624 OA
ATOM      5  O5D N1C d   1       3.192   3.322   2.677  0.00  0.00    -0.287 OA
ATOM      6  C5D N1C d   1       1.774   3.516   2.698  0.00  0.00     0.058 C 
ATOM      7  C4D N1C d   1       1.242   3.784   1.290  0.00  0.00     0.089 C 
ATOM      8  C3D N1C d   1      -0.264   3.620   1.264  0.00  0.00     0.091 C 
ATOM      9  C2D N1C d   1      -0.534   2.296   0.538  0.00  0.00     0.105 C 
ATOM     10  O4D N1C d   1       1.716   2.848   0.301  0.00  0.00    -0.353 OA
ATOM     11  C1D N1C d   1       0.841   1.722   0.142  0.00  0.00     0.141 C 
ATOM     12  N1  N1C d   1       1.343   0.690   1.084  0.00  0.00    -0.276 N 
ATOM     13  C6  N1C d   1       0.494  -0.308   1.617  0.00  0.00     0.283 A 
ATOM     14  O6  N1C d   1      -0.710  -0.367   1.288  0.00  0.00    -0.265 OA
ATOM     15  C5  N1C d   1       1.060  -1.298   2.583  0.00  0.00     0.172 A 
ATOM     16  N7  N1C d   1       0.535  -2.343   3.264  0.00  0.00    -0.234 NA
ATOM     17  C8  N1C d   1       1.521  -2.880   4.005  0.00  0.00     0.071 A 
ATOM     18  C2  N1C d   1       2.640   0.687   1.481  0.00  0.00     0.073 A 
ATOM     19  N3  N1C d   1       3.154  -0.205   2.360  0.00  0.00    -0.223 NA
ATOM     20  C4  N1C d   1       2.397  -1.196   2.925  0.00  0.00     0.169 A 
ATOM     21  N9  N1C d   1       2.647  -2.199   3.789  0.00  0.00    -0.293 N 
ATOM     22  C1' N1C d   1       3.919  -2.528   4.473  0.00  0.00     0.148 C 
ATOM     23  O4' N1C d   1       4.005  -1.598   5.565  0.00  0.00    -0.322 OA
ATOM     24  C2' N1C d   1       5.148  -2.321   3.597  0.00  0.00     0.126 C 
ATOM     25  C3' N1C d   1       5.639  -0.999   4.086  0.00  0.00     0.107 C 
ATOM     26  C4' N1C d   1       4.960  -0.598   5.140  0.00  0.00     0.105 C 
ATOM     27  C5' N1C d   1       5.136   0.741   5.822  0.00  0.00     0.078 C 
ATOM     28  O5' N1C d   1       4.212   1.747   5.372  0.00  0.00    -0.283 OA
ATOM     29  PA  N1C d   1       4.313   3.196   6.101  0.00  0.00     0.418 P 
ATOM     30  O1A N1C d   1       5.789   3.562   6.196  0.00  0.00    -0.624 OA
ATOM     31  O2A N1C d   1       3.440   3.163   7.330  0.00  0.00    -0.624 OA
ATOM     32  H1  N1C d   1       1.537   4.375   3.343  0.00  0.00     0.079 H 
ATOM     33  H2  N1C d   1       1.292   2.612   3.100  0.00  0.00     0.079 H 
ATOM     34  H3  N1C d   1       1.523   4.806   0.998  0.00  0.00     0.090 H 
ATOM     35  H4  N1C d   1      -0.675   3.571   2.283  0.00  0.00     0.091 H 
ATOM     36  H6  N1C d   1      -1.034   1.591   1.218  0.00  0.00     0.093 H 
ATOM     37  H8  N1C d   1       0.828   1.334  -0.887  0.00  0.00     0.123 H 
ATOM     38  H9  N1C d   1       1.417  -3.733   4.673  0.00  0.00     0.144 H 
ATOM     39  H10 N1C d   1       3.305   1.445   1.069  0.00  0.00     0.144 H 
ATOM     40  H11 N1C d   1       3.895  -3.567   4.834  0.00  0.00     0.124 H 
ATOM     41  H12 N1C d   1       4.906  -2.304   2.524  0.00  0.00     0.100 H 
ATOM     42  H15 N1C d   1       6.158   1.097   5.628  0.00  0.00     0.085 H 
ATOM     43  H16 N1C d   1       4.996   0.600   6.904  0.00  0.00     0.085 H 
ENDROOT
BRANCH   8  44
ATOM     44  O3D N1C d   1      -0.784   4.776   0.595  0.00  0.00    -0.390 OA
ATOM     45  H5  N1C d   1      -0.430   4.817  -0.286  0.00  0.00     0.210 HD
ENDBRANCH   8  44
BRANCH   9  46
ATOM     46  O2D N1C d   1      -1.402   2.543  -0.581  0.00  0.00    -0.388 OA
ATOM     47  H7  N1C d   1      -2.221   2.911  -0.270  0.00  0.00     0.210 HD
ENDBRANCH   9  46
BRANCH  24  48
ATOM     48  O2' N1C d   1       6.103  -3.359   3.889  0.00  0.00    -0.384 OA
ATOM     49  H13 N1C d   1       6.874  -3.240   3.348  0.00  0.00     0.210 HD
ENDBRANCH  24  48
BRANCH  25  50
ATOM     50  O3' N1C d   1       6.621  -0.301   3.528  0.00  0.00    -0.360 OA
ATOM     51  H14 N1C d   1       6.752   0.504   4.015  0.00  0.00     0.217 HD
ENDBRANCH  25  50
TORSDOF 4
