REMARK  16 active torsions:
REMARK  status: ('A' for Active; 'I' for Inactive)
REMARK    1  A    between atoms: C_1  and  N_2 
REMARK    2  A    between atoms: C1_3  and  C_1 
REMARK    3  A    between atoms: C_1  and  C3_6 
REMARK    4  A    between atoms: C_1  and  C4_7 
REMARK    5  A    between atoms: O_4  and  C1_3 
REMARK    6  A    between atoms: C33_38  and  O_4 
REMARK    7  A    between atoms: C4_7  and  C5_8 
REMARK    8  A    between atoms: C18_21  and  C12_15 
REMARK    9  A    between atoms: C14_17  and  C33_38 
REMARK   10  A    between atoms: C16_19  and  N17_20 
REMARK   11  A    between atoms: N17_20  and  S_24 
REMARK   12  A    between atoms: N17_20  and  C24_28 
REMARK       I    between atoms: N19_22  and  C18_21 
REMARK   13  A    between atoms: C25_29  and  N19_22 
REMARK   14  A    between atoms: S_24  and  C21_25 
REMARK   15  A    between atoms: C26_30  and  C25_29 
REMARK   16  A    between atoms: C25_29  and  C32_36 
ROOT
ATOM      1  C11 712 d   1      28.477  44.206   0.987  0.00  0.00    -0.041 A 
ATOM      2  C12 712 d   1      29.687  43.624   1.408  0.00  0.00     0.034 A 
ATOM      3  C13 712 d   1      29.863  42.231   1.327  0.00  0.00    -0.059 A 
ATOM      4  C14 712 d   1      28.824  41.431   0.838  0.00  0.00    -0.031 A 
ATOM      5  C15 712 d   1      27.639  42.027   0.434  0.00  0.00    -0.048 A 
ATOM      6  C16 712 d   1      27.441  43.397   0.494  0.00  0.00     0.045 A 
ATOM      7  H14 712 d   1      28.345  45.280   1.043  0.00  0.00     0.088 H 
ATOM      8  H15 712 d   1      30.797  41.780   1.641  0.00  0.00     0.086 H 
ATOM      9  H16 712 d   1      26.839  41.399   0.058  0.00  0.00     0.087 H 
ENDROOT
BRANCH   4  10
ATOM     10  C33 712 d   1      28.884  39.935   0.667  0.00  0.00     0.053 C 
ATOM     11  H32 712 d   1      27.876  39.516   0.800  0.00  0.00     0.082 H 
ATOM     12  H33 712 d   1      29.248  39.702  -0.344  0.00  0.00     0.082 H 
BRANCH  10  13
ATOM     13  O   712 d   1      29.770  39.347   1.634  0.00  0.00    -0.315 OA
BRANCH  13  14
ATOM     14  C1  712 d   1      30.037  38.053   1.451  0.00  0.00     0.295 C 
ATOM     15  O2  712 d   1      29.689  37.403   0.475  0.00  0.00    -0.262 OA
BRANCH  14  16
ATOM     16  C   712 d   1      31.049  37.560   2.468  0.00  0.00     0.210 C 
BRANCH  16  17
ATOM     17  N   712 d   1      30.979  38.383   3.715  0.00  0.00    -0.061 N 
ATOM     18  H1  712 d   1      31.656  38.044   4.380  0.00  0.00     0.275 HD
ATOM     19  H2  712 d   1      30.055  38.314   4.112  0.00  0.00     0.275 HD
ATOM     20  H3  712 d   1      31.179  39.346   3.494  0.00  0.00     0.275 HD
ENDBRANCH  16  17
BRANCH  16  21
ATOM     21  C3  712 d   1      30.630  36.151   2.905  0.00  0.00    -0.036 C 
ATOM     22  H4  712 d   1      30.655  35.475   2.037  0.00  0.00     0.031 H 
ATOM     23  H5  712 d   1      29.610  36.183   3.316  0.00  0.00     0.031 H 
ATOM     24  H6  712 d   1      31.325  35.784   3.675  0.00  0.00     0.031 H 
ENDBRANCH  16  21
BRANCH  16  25
ATOM     25  C4  712 d   1      32.458  37.623   1.849  0.00  0.00    -0.001 C 
ATOM     26  H7  712 d   1      32.454  36.964   0.968  0.00  0.00     0.044 H 
ATOM     27  H8  712 d   1      33.159  37.228   2.599  0.00  0.00     0.044 H 
BRANCH  25  28
ATOM     28  C5  712 d   1      32.999  38.967   1.398  0.00  0.00    -0.055 A 
ATOM     29  C6  712 d   1      33.724  39.772   2.277  0.00  0.00    -0.077 A 
ATOM     30  C9  712 d   1      34.220  41.017   1.874  0.00  0.00    -0.082 A 
ATOM     31  H9  712 d   1      33.906  39.428   3.289  0.00  0.00     0.084 H 
ATOM     32  C7  712 d   1      33.992  41.469   0.572  0.00  0.00    -0.083 A 
ATOM     33  H12 712 d   1      34.780  41.630   2.571  0.00  0.00     0.083 H 
ATOM     34  C8  712 d   1      33.262  40.668  -0.313  0.00  0.00    -0.082 A 
ATOM     35  H10 712 d   1      34.377  42.430   0.251  0.00  0.00     0.083 H 
ATOM     36  C10 712 d   1      32.773  39.425   0.098  0.00  0.00    -0.077 A 
ATOM     37  H11 712 d   1      33.075  41.014  -1.323  0.00  0.00     0.083 H 
ATOM     38  H13 712 d   1      32.213  38.811  -0.598  0.00  0.00     0.084 H 
ENDBRANCH  25  28
ENDBRANCH  16  25
ENDBRANCH  14  16
ENDBRANCH  13  14
ENDBRANCH  10  13
ENDBRANCH   4  10
BRANCH   2  39
ATOM     39  C18 712 d   1      30.758  44.539   1.923  0.00  0.00     0.252 C 
ATOM     40  N19 712 d   1      31.477  44.053   2.948  0.00  0.00    -0.349 N 
ATOM     41  H17 712 d   1      31.258  43.137   3.284  0.00  0.00     0.163 HD
ATOM     42  O20 712 d   1      30.944  45.633   1.378  0.00  0.00    -0.268 OA
BRANCH  40  43
ATOM     43  C25 712 d   1      32.553  44.778   3.596  0.00  0.00     0.034 C 
ATOM     44  H24 712 d   1      32.796  45.633   2.948  0.00  0.00     0.079 H 
BRANCH  43  45
ATOM     45  C26 712 d   1      32.111  45.351   4.922  0.00  0.00    -0.036 A 
ATOM     46  C27 712 d   1      31.739  44.496   5.972  0.00  0.00    -0.072 A 
ATOM     47  C30 712 d   1      31.346  45.005   7.211  0.00  0.00    -0.045 A 
ATOM     48  H25 712 d   1      31.757  43.423   5.818  0.00  0.00     0.084 H 
ATOM     49  C28 712 d   1      31.329  46.386   7.380  0.00  0.00     0.116 A 
ATOM     50  H27 712 d   1      31.062  44.342   8.020  0.00  0.00     0.088 H 
ATOM     51  C29 712 d   1      31.681  47.249   6.347  0.00  0.00    -0.045 A 
ATOM     52  F   712 d   1      30.957  46.910   8.559  0.00  0.00    -0.206 F 
ATOM     53  C31 712 d   1      32.079  46.732   5.121  0.00  0.00    -0.072 A 
ATOM     54  H26 712 d   1      31.645  48.322   6.499  0.00  0.00     0.088 H 
ATOM     55  H28 712 d   1      32.365  47.402   4.318  0.00  0.00     0.084 H 
ENDBRANCH  43  45
BRANCH  43  56
ATOM     56  C32 712 d   1      33.836  43.933   3.706  0.00  0.00    -0.053 C 
ATOM     57  H29 712 d   1      34.621  44.522   4.202  0.00  0.00     0.030 H 
ATOM     58  H30 712 d   1      34.174  43.646   2.699  0.00  0.00     0.030 H 
ATOM     59  H31 712 d   1      33.629  43.028   4.295  0.00  0.00     0.030 H 
ENDBRANCH  43  56
ENDBRANCH  40  43
ENDBRANCH   2  39
BRANCH   6  60
ATOM     60  N17 712 d   1      26.237  43.861   0.071  0.00  0.00    -0.281 N 
BRANCH  60  61
ATOM     61  S   712 d   1      25.365  44.953   1.016  0.00  0.00     0.228 S 
ATOM     62  O22 712 d   1      25.987  44.872   2.575  0.00  0.00    -0.206 OA
ATOM     63  O23 712 d   1      23.732  44.662   0.753  0.00  0.00    -0.206 OA
BRANCH  61  64
ATOM     64  C21 712 d   1      25.720  46.495   0.363  0.00  0.00     0.033 C 
ATOM     65  H18 712 d   1      25.182  47.267   0.933  0.00  0.00     0.051 H 
ATOM     66  H19 712 d   1      25.404  46.529  -0.690  0.00  0.00     0.051 H 
ATOM     67  H20 712 d   1      26.802  46.680   0.427  0.00  0.00     0.051 H 
ENDBRANCH  61  64
ENDBRANCH  60  61
BRANCH  60  68
ATOM     68  C24 712 d   1      25.628  43.378  -1.178  0.00  0.00    -0.004 C 
ATOM     69  H21 712 d   1      26.316  42.678  -1.675  0.00  0.00     0.058 H 
ATOM     70  H22 712 d   1      25.429  44.231  -1.843  0.00  0.00     0.058 H 
ATOM     71  H23 712 d   1      24.683  42.863  -0.950  0.00  0.00     0.058 H 
ENDBRANCH  60  68
ENDBRANCH   6  60
TORSDOF 16
