REMARK  6 active torsions:
REMARK  status: ('A' for Active; 'I' for Inactive)
REMARK    1  A    between atoms: C7_9  and  C27_31 
REMARK    2  A    between atoms: C7_9  and  N28_32 
REMARK    3  A    between atoms: C12_14  and  C24_28 
REMARK    4  A    between atoms: N19_22  and  S_23 
REMARK    5  A    between atoms: N19_22  and  C23_27 
REMARK    6  A    between atoms: S_23  and  C20_24 
ROOT
ATOM      1  C   35A d   1      28.648  41.988   0.621  0.00  0.00    -0.028 A 
ATOM      2  C1  35A d   1      29.806  42.919   0.793  0.00  0.00    -0.051 A 
ATOM      3  C2  35A d   1      33.386  41.357  -0.401  0.00  0.00    -0.082 A 
ATOM      4  C3  35A d   1      32.988  39.999   0.083  0.00  0.00    -0.077 A 
ATOM      5  O   35A d   1      29.680  39.881   1.575  0.00  0.00    -0.315 OA
ATOM      6  C4  35A d   1      28.729  40.478   0.653  0.00  0.00     0.053 C 
ATOM      7  C5  35A d   1      32.935  39.737   1.386  0.00  0.00    -0.055 A 
ATOM      8  C6  35A d   1      32.553  38.369   1.891  0.00  0.00    -0.001 C 
ATOM      9  C7  35A d   1      31.114  38.167   2.356  0.00  0.00     0.210 C 
ATOM     10  C8  35A d   1      33.688  42.319   0.466  0.00  0.00    -0.077 A 
ATOM     11  C9  35A d   1      33.623  42.043   1.936  0.00  0.00    -0.058 A 
ATOM     12  C10 35A d   1      33.274  40.831   2.343  0.00  0.00    -0.071 A 
ATOM     13  C11 35A d   1      31.091  45.678   2.290  0.00  0.00    -0.057 C 
ATOM     14  C12 35A d   1      31.807  44.616   3.139  0.00  0.00    -0.057 C 
ATOM     15  C13 35A d   1      33.283  44.468   2.727  0.00  0.00    -0.058 C 
ATOM     16  C14 35A d   1      33.968  43.117   2.962  0.00  0.00    -0.041 C 
ATOM     17  C15 35A d   1      29.605  44.242   0.723  0.00  0.00     0.037 A 
ATOM     18  C16 35A d   1      30.747  45.232   0.878  0.00  0.00    -0.024 C 
ATOM     19  N   35A d   1      28.382  44.792   0.491  0.00  0.00    -0.235 NA
ATOM     20  C17 35A d   1      27.461  42.532   0.393  0.00  0.00    -0.030 A 
ATOM     21  C18 35A d   1      27.363  44.012   0.353  0.00  0.00     0.139 A 
ATOM     22  N19 35A d   1      26.132  44.529   0.092  0.00  0.00    -0.264 N 
ATOM     23  C25 35A d   1      30.183  38.661   1.280  0.00  0.00     0.295 C 
ATOM     24  O26 35A d   1      30.005  38.021   0.257  0.00  0.00    -0.262 OA
ATOM     25  H1  35A d   1      30.800  42.526   0.973  0.00  0.00     0.087 H 
ATOM     26  H2  35A d   1      33.429  41.558  -1.465  0.00  0.00     0.083 H 
ATOM     27  H3  35A d   1      32.741  39.223  -0.633  0.00  0.00     0.084 H 
ATOM     28  H4  35A d   1      28.994  40.140  -0.360  0.00  0.00     0.082 H 
ATOM     29  H5  35A d   1      27.731  40.099   0.917  0.00  0.00     0.082 H 
ATOM     30  H6  35A d   1      33.210  38.136   2.742  0.00  0.00     0.044 H 
ATOM     31  H7  35A d   1      32.740  37.653   1.077  0.00  0.00     0.044 H 
ATOM     32  H8  35A d   1      33.980  43.300   0.110  0.00  0.00     0.084 H 
ATOM     33  H9  35A d   1      33.233  40.627   3.407  0.00  0.00     0.085 H 
ATOM     34  H10 35A d   1      31.744  46.560   2.222  0.00  0.00     0.034 H 
ATOM     35  H11 35A d   1      30.156  45.953   2.800  0.00  0.00     0.034 H 
ATOM     36  H12 35A d   1      31.316  43.650   2.949  0.00  0.00     0.039 H 
ATOM     37  H13 35A d   1      33.855  45.225   3.284  0.00  0.00     0.034 H 
ATOM     38  H14 35A d   1      33.344  44.682   1.650  0.00  0.00     0.034 H 
ATOM     39  H15 35A d   1      35.056  43.276   2.940  0.00  0.00     0.040 H 
ATOM     40  H16 35A d   1      33.671  42.750   3.956  0.00  0.00     0.040 H 
ATOM     41  H17 35A d   1      31.647  44.769   0.448  0.00  0.00     0.042 H 
ATOM     42  H18 35A d   1      30.486  46.131   0.301  0.00  0.00     0.042 H 
ATOM     43  H19 35A d   1      26.585  41.912   0.240  0.00  0.00     0.090 H 
ENDROOT
BRANCH  22  44
ATOM     44  S   35A d   1      25.476  45.695   1.127  0.00  0.00     0.229 S 
ATOM     45  O21 35A d   1      23.816  45.625   0.968  0.00  0.00    -0.206 OA
ATOM     46  O22 35A d   1      26.112  45.514   2.653  0.00  0.00    -0.206 OA
BRANCH  44  47
ATOM     47  C20 35A d   1      25.995  47.223   0.528  0.00  0.00     0.033 C 
ATOM     48  H20 35A d   1      25.594  48.023   1.168  0.00  0.00     0.051 H 
ATOM     49  H21 35A d   1      25.628  47.358  -0.500  0.00  0.00     0.051 H 
ATOM     50  H22 35A d   1      27.094  47.265   0.533  0.00  0.00     0.051 H 
ENDBRANCH  44  47
ENDBRANCH  22  44
BRANCH  22  51
ATOM     51  C23 35A d   1      25.697  44.507  -1.313  0.00  0.00    -0.002 C 
ATOM     52  H23 35A d   1      26.215  43.695  -1.845  0.00  0.00     0.058 H 
ATOM     53  H24 35A d   1      25.940  45.469  -1.787  0.00  0.00     0.058 H 
ATOM     54  H25 35A d   1      24.611  44.340  -1.358  0.00  0.00     0.058 H 
ENDBRANCH  22  51
BRANCH  14  55
ATOM     55  C24 35A d   1      31.649  44.928   4.629  0.00  0.00    -0.073 C 
ATOM     56  H26 35A d   1      30.581  45.024   4.872  0.00  0.00     0.028 H 
ATOM     57  H27 35A d   1      32.164  45.871   4.863  0.00  0.00     0.028 H 
ATOM     58  H28 35A d   1      32.089  44.113   5.223  0.00  0.00     0.028 H 
ENDBRANCH  14  55
BRANCH   9  59
ATOM     59  C27 35A d   1      30.859  36.670   2.603  0.00  0.00    -0.036 C 
ATOM     60  H29 35A d   1      29.821  36.525   2.938  0.00  0.00     0.031 H 
ATOM     61  H30 35A d   1      31.549  36.303   3.377  0.00  0.00     0.031 H 
ATOM     62  H31 35A d   1      31.024  36.111   1.670  0.00  0.00     0.031 H 
ENDBRANCH   9  59
BRANCH   9  63
ATOM     63  N28 35A d   1      30.849  38.879   3.643  0.00  0.00    -0.061 N 
ATOM     64  H32 35A d   1      31.006  39.867   3.519  0.00  0.00     0.275 HD
ATOM     65  H33 35A d   1      31.469  38.527   4.356  0.00  0.00     0.275 HD
ATOM     66  H34 35A d   1      29.893  38.724   3.922  0.00  0.00     0.275 HD
ENDBRANCH   9  63
TORSDOF 6
