REMARK  4 active torsions:
REMARK  status: ('A' for Active; 'I' for Inactive)
REMARK    1  A    between atoms: C3_3  and  O18_20 
REMARK    2  A    between atoms: C6_8  and  O17_19 
REMARK    3  A    between atoms: N10_12  and  C19_21 
REMARK    4  A    between atoms: O17_19  and  C16_18 
ROOT
ATOM      1  C1  GNT d   1       6.314  37.971  -8.002  0.00  0.00    -0.089 C 
ATOM      2  C2  GNT d   1       5.859  39.168  -8.380  0.00  0.00    -0.078 C 
ATOM      3  C3  GNT d   1       4.868  39.364  -9.521  0.00  0.00     0.054 C 
ATOM      4  C4  GNT d   1       4.883  38.194 -10.501  0.00  0.00    -0.012 C 
ATOM      5  C41 GNT d   1       4.792  36.862  -9.751  0.00  0.00     0.062 C 
ATOM      6  C42 GNT d   1       5.874  36.642  -8.633  0.00  0.00     0.036 C 
ATOM      7  O5  GNT d   1       3.491  36.707  -9.142  0.00  0.00    -0.341 OA
ATOM      8  C6  GNT d   1       2.665  35.521  -7.012  0.00  0.00     0.102 A 
ATOM      9  C7  GNT d   1       3.086  34.921  -5.824  0.00  0.00    -0.047 A 
ATOM     10  C8  GNT d   1       4.441  34.821  -5.477  0.00  0.00    -0.072 A 
ATOM     11  C9  GNT d   1       6.905  35.214  -5.877  0.00  0.00     0.107 C 
ATOM     12  N10 GNT d   1       7.530  34.542  -7.029  0.00  0.00    -0.071 N 
ATOM     13  C11 GNT d   1       8.110  35.497  -8.000  0.00  0.00     0.085 C 
ATOM     14  C12 GNT d   1       7.067  35.765  -9.097  0.00  0.00    -0.026 C 
ATOM     15  C13 GNT d   1       3.657  36.087  -7.933  0.00  0.00     0.110 A 
ATOM     16  C14 GNT d   1       5.062  35.980  -7.571  0.00  0.00     0.001 A 
ATOM     17  C15 GNT d   1       5.458  35.341  -6.282  0.00  0.00    -0.022 A 
ATOM     18  H1  GNT d   1       7.044  37.935  -7.195  0.00  0.00     0.078 H 
ATOM     19  H2  GNT d   1       6.214  40.048  -7.846  0.00  0.00     0.080 H 
ATOM     20  H3  GNT d   1       5.151  40.277 -10.065  0.00  0.00     0.089 H 
ATOM     21  H4  GNT d   1       5.818  38.220 -11.080  0.00  0.00     0.041 H 
ATOM     22  H5  GNT d   1       4.026  38.283 -11.184  0.00  0.00     0.041 H 
ATOM     23  H6  GNT d   1       4.923  36.065 -10.498  0.00  0.00     0.086 H 
ATOM     24  H7  GNT d   1       2.341  34.519  -5.147  0.00  0.00     0.087 H 
ATOM     25  H8  GNT d   1       4.709  34.323  -4.552  0.00  0.00     0.084 H 
ATOM     26  H9  GNT d   1       7.354  36.204  -5.709  0.00  0.00     0.083 H 
ATOM     27  H10 GNT d   1       7.006  34.606  -4.966  0.00  0.00     0.083 H 
ATOM     28  H11 GNT d   1       6.818  34.010  -7.504  0.00  0.00     0.279 HD
ATOM     29  H12 GNT d   1       9.018  35.067  -8.448  0.00  0.00     0.076 H 
ATOM     30  H13 GNT d   1       8.363  36.438  -7.490  0.00  0.00     0.076 H 
ATOM     31  H14 GNT d   1       7.567  36.276  -9.933  0.00  0.00     0.037 H 
ATOM     32  H15 GNT d   1       6.672  34.798  -9.442  0.00  0.00     0.037 H 
ENDROOT
BRANCH   8  33
ATOM     33  O17 GNT d   1       1.358  35.629  -7.337  0.00  0.00    -0.353 OA
BRANCH  33  34
ATOM     34  C16 GNT d   1       0.604  36.666  -6.704  0.00  0.00     0.010 C 
ATOM     35  H16 GNT d   1      -0.436  36.634  -7.062  0.00  0.00     0.066 H 
ATOM     36  H17 GNT d   1       1.046  37.643  -6.949  0.00  0.00     0.066 H 
ATOM     37  H18 GNT d   1       0.621  36.519  -5.614  0.00  0.00     0.066 H 
ENDBRANCH  33  34
ENDBRANCH   8  33
BRANCH  12  38
ATOM     38  C19 GNT d   1       8.560  33.622  -6.556  0.00  0.00     0.067 C 
ATOM     39  H20 GNT d   1       8.119  32.917  -5.836  0.00  0.00     0.068 H 
ATOM     40  H21 GNT d   1       9.364  34.192  -6.067  0.00  0.00     0.068 H 
ATOM     41  H22 GNT d   1       8.973  33.064  -7.409  0.00  0.00     0.068 H 
ENDBRANCH  12  38
BRANCH   3  42
ATOM     42  O18 GNT d   1       3.539  39.523  -9.019  0.00  0.00    -0.392 OA
ATOM     43  H19 GNT d   1       3.272  38.726  -8.576  0.00  0.00     0.210 HD
ENDBRANCH   3  42
TORSDOF 4
