REMARK  6 active torsions:
REMARK  status: ('A' for Active; 'I' for Inactive)
REMARK    1  A    between atoms: N1_1  and  C4_3 
REMARK       I    between atoms: C7_6  and  N1_1 
REMARK    2  A    between atoms: C1_16  and  N3_2 
REMARK    3  A    between atoms: C21_13  and  C7_6 
REMARK    4  A    between atoms: O3_32  and  C24_15 
REMARK    5  A    between atoms: N2_25  and  C11_22 
REMARK       I    between atoms: C23_33  and  N2_25 
REMARK    6  A    between atoms: C19_30  and  O3_32 
REMARK       I    between atoms: N4_31  and  C23_33 
ROOT
ATOM      1  C20 230 d   1       3.886   7.607  22.871  0.00  0.00    -0.012 A 
ATOM      2  C21 230 d   1       5.321   8.063  22.535  0.00  0.00     0.096 A 
ATOM      3  C22 230 d   1       5.210   7.241  24.896  0.00  0.00     0.024 A 
ATOM      4  N2  230 d   1       7.980   7.834  25.205  0.00  0.00    -0.309 N 
ATOM      5  C19 230 d   1       3.825   7.097  24.317  0.00  0.00     0.056 A 
ATOM      6  N4  230 d   1       6.032   7.801  23.825  0.00  0.00    -0.318 N 
ATOM      7  C23 230 d   1       7.390   8.091  23.966  0.00  0.00     0.323 C 
ATOM      8  O4  230 d   1       8.016   8.567  23.001  0.00  0.00    -0.247 OA
ATOM      9  H6  230 d   1       3.591   6.798  22.186  0.00  0.00     0.040 H 
ATOM     10  H7  230 d   1       3.197   8.456  22.755  0.00  0.00     0.040 H 
ATOM     11  H8  230 d   1       5.407   9.122  22.250  0.00  0.00     0.088 H 
ATOM     12  H9  230 d   1       5.600   6.260  25.205  0.00  0.00     0.068 H 
ATOM     13  H10 230 d   1       5.195   7.919  25.762  0.00  0.00     0.068 H 
ATOM     14  H18 230 d   1       7.354   7.631  25.958  0.00  0.00     0.170 HD
ATOM     15  H22 230 d   1       3.052   7.581  24.931  0.00  0.00     0.085 H 
ENDROOT
BRANCH   2  16
ATOM     16  C7  230 d   1       5.644   7.131  21.325  0.00  0.00     0.245 C 
ATOM     17  N1  230 d   1       6.527   6.136  21.575  0.00  0.00    -0.323 N 
ATOM     18  H1  230 d   1       6.897   6.091  22.503  0.00  0.00     0.169 HD
ATOM     19  O1  230 d   1       5.100   7.331  20.251  0.00  0.00    -0.271 OA
BRANCH  17  20
ATOM     20  C4  230 d   1       6.973   5.176  20.689  0.00  0.00     0.073 A 
ATOM     21  C5  230 d   1       6.639   3.785  20.935  0.00  0.00     0.145 A 
ATOM     22  C6  230 d   1       7.067   2.736  20.068  0.00  0.00    -0.017 A 
ATOM     23  F1  230 d   1       5.908   3.456  22.007  0.00  0.00    -0.204 F 
ATOM     24  C1  230 d   1       7.858   3.066  18.903  0.00  0.00     0.045 A 
ATOM     25  H2  230 d   1       6.803   1.706  20.279  0.00  0.00     0.091 H 
ATOM     26  C2  230 d   1       8.197   4.451  18.644  0.00  0.00    -0.054 A 
ATOM     27  C3  230 d   1       7.765   5.495  19.518  0.00  0.00    -0.052 A 
ATOM     28  H14 230 d   1       8.789   4.699  17.771  0.00  0.00     0.087 H 
ATOM     29  H15 230 d   1       8.029   6.525  19.306  0.00  0.00     0.087 H 
BRANCH  24  30
ATOM     30  N3  230 d   1       8.300   2.076  18.027  0.00  0.00    -0.290 N 
ATOM     31  C15 230 d   1       7.603   1.770  16.819  0.00  0.00     0.252 A 
ATOM     32  C16 230 d   1       8.168   0.682  15.936  0.00  0.00    -0.017 A 
ATOM     33  O2  230 d   1       6.568   2.320  16.422  0.00  0.00    -0.268 OA
ATOM     34  C17 230 d   1       9.329   0.026  16.321  0.00  0.00    -0.076 A 
ATOM     35  H20 230 d   1       7.669   0.415  15.006  0.00  0.00     0.092 H 
ATOM     36  C18 230 d   1      10.065   0.339  17.586  0.00  0.00    -0.067 A 
ATOM     37  H5  230 d   1       9.723  -0.754  15.671  0.00  0.00     0.083 H 
ATOM     38  C14 230 d   1       9.573   1.324  18.409  0.00  0.00    -0.011 A 
ATOM     39  H21 230 d   1      10.972  -0.203  17.849  0.00  0.00     0.085 H 
ATOM     40  H19 230 d   1      10.092   1.568  19.335  0.00  0.00     0.112 H 
ENDBRANCH  24  30
ENDBRANCH  17  20
ENDBRANCH   2  16
BRANCH   5  41
ATOM     41  O3  230 d   1       3.614   5.711  24.105  0.00  0.00    -0.389 OA
BRANCH  41  42
ATOM     42  C24 230 d   1       3.066   4.763  24.010  0.00  0.00     0.005 C 
ATOM     43  H11 230 d   1       3.773   3.952  23.783  0.00  0.00     0.066 H 
ATOM     44  H12 230 d   1       2.329   4.845  23.197  0.00  0.00     0.066 H 
ATOM     45  H13 230 d   1       2.547   4.543  24.955  0.00  0.00     0.066 H 
ENDBRANCH  41  42
ENDBRANCH   5  41
BRANCH   4  46
ATOM     46  C11 230 d   1       9.338   7.827  25.516  0.00  0.00     0.036 A 
ATOM     47  C10 230 d   1      10.378   8.555  24.769  0.00  0.00    -0.056 A 
ATOM     48  C9  230 d   1      11.742   8.475  25.149  0.00  0.00    -0.060 A 
ATOM     49  H3  230 d   1      10.097   9.161  23.916  0.00  0.00     0.087 H 
ATOM     50  C8  230 d   1      12.104   7.685  26.263  0.00  0.00     0.034 A 
ATOM     51  H16 230 d   1      12.499   9.014  24.591  0.00  0.00     0.086 H 
ATOM     52  C13 230 d   1      11.118   6.958  27.033  0.00  0.00    -0.060 A 
ATOM     53 CL1  230 d   1      13.760   7.597  26.686  0.00  0.00    -0.084 Cl
ATOM     54  C12 230 d   1       9.731   7.039  26.646  0.00  0.00    -0.056 A 
ATOM     55  H4  230 d   1      11.417   6.362  27.887  0.00  0.00     0.086 H 
ATOM     56  H17 230 d   1       8.981   6.500  27.214  0.00  0.00     0.087 H 
ENDBRANCH   4  46
TORSDOF 6
