REMARK  4 active torsions:
REMARK  status: ('A' for Active; 'I' for Inactive)
REMARK    1  A    between atoms: C1_1  and  C7_9 
REMARK    2  A    between atoms: C6_8  and  N_10 
REMARK    3  A    between atoms: N_10  and  C1'_11 
REMARK    4  A    between atoms: C3'_13  and  C7'_17 
ROOT
ATOM      1  N   FLF d   1      18.860  16.672  29.664  0.00  0.00    -0.355 N 
ATOM      2  H5  FLF d   1      19.160  17.565  30.081  0.00  0.00     0.166 HD
ENDROOT
BRANCH   1   3
ATOM      3  C6  FLF d   1      19.277  15.548  30.263  0.00  0.00     0.049 A 
ATOM      4  C1  FLF d   1      20.084  15.662  31.394  0.00  0.00     0.067 A 
ATOM      5  C2  FLF d   1      20.461  14.532  32.099  0.00  0.00    -0.064 A 
ATOM      6  C3  FLF d   1      20.028  13.268  31.690  0.00  0.00    -0.082 A 
ATOM      7  H1  FLF d   1      21.095  14.628  32.973  0.00  0.00     0.085 H 
ATOM      8  C4  FLF d   1      19.219  13.149  30.571  0.00  0.00    -0.081 A 
ATOM      9  H2  FLF d   1      20.323  12.385  32.245  0.00  0.00     0.083 H 
ATOM     10  C5  FLF d   1      18.842  14.298  29.858  0.00  0.00    -0.056 A 
ATOM     11  H3  FLF d   1      18.878  12.172  30.247  0.00  0.00     0.083 H 
ATOM     12  H4  FLF d   1      18.206  14.206  28.985  0.00  0.00     0.086 H 
BRANCH   4  13
ATOM     13  C7  FLF d   1      20.629  17.032  31.810  0.00  0.00     0.211 C 
ATOM     14  O1  FLF d   1      20.742  17.912  30.934  0.00  0.00    -0.644 OA
ATOM     15  O2  FLF d   1      20.905  17.195  33.024  0.00  0.00    -0.644 OA
ENDBRANCH   4  13
ENDBRANCH   1   3
BRANCH   1  16
ATOM     16  C1' FLF d   1      18.094  16.738  28.581  0.00  0.00     0.033 A 
ATOM     17  C2' FLF d   1      17.706  17.987  28.138  0.00  0.00    -0.043 A 
ATOM     18  C3' FLF d   1      16.860  18.120  27.027  0.00  0.00     0.050 A 
ATOM     19  H6  FLF d   1      18.058  18.873  28.654  0.00  0.00     0.088 H 
ATOM     20  C4' FLF d   1      16.415  16.987  26.361  0.00  0.00    -0.068 A 
ATOM     21  C5' FLF d   1      16.805  15.729  26.810  0.00  0.00    -0.080 A 
ATOM     22  H7  FLF d   1      15.768  17.081  25.497  0.00  0.00     0.084 H 
ATOM     23  C6' FLF d   1      17.633  15.603  27.909  0.00  0.00    -0.057 A 
ATOM     24  H8  FLF d   1      16.457  14.842  26.294  0.00  0.00     0.083 H 
ATOM     25  H9  FLF d   1      17.927  14.617  28.252  0.00  0.00     0.086 H 
BRANCH  18  26
ATOM     26  C7' FLF d   1      16.409  19.519  26.582  0.00  0.00     0.417 C 
ATOM     27  F1  FLF d   1      16.024  20.238  27.637  0.00  0.00    -0.166 F 
ATOM     28  F2  FLF d   1      15.389  19.419  25.730  0.00  0.00    -0.166 F 
ATOM     29  F3  FLF d   1      17.424  20.134  25.976  0.00  0.00    -0.166 F 
ENDBRANCH  18  26
ENDBRANCH   1  16
TORSDOF 4
