REMARK  16 active torsions:
REMARK  status: ('A' for Active; 'I' for Inactive)
REMARK    1  A    between atoms: C36_6  and  C35_7 
REMARK    2  A    between atoms: C35_7  and  C34_8 
REMARK    3  A    between atoms: C34_8  and  C33_9 
REMARK    4  A    between atoms: C33_9  and  S32_10 
REMARK    5  A    between atoms: S32_10  and  N31_13 
REMARK    6  A    between atoms: N31_13  and  C27_14 
REMARK    7  A    between atoms: C27_14  and  C28_15 
REMARK    8  A    between atoms: C27_14  and  P24_18 
REMARK    9  A    between atoms: C28_15  and  C30_16 
REMARK   10  A    between atoms: C28_15  and  C29_17 
REMARK   11  A    between atoms: P24_18  and  C15_21 
REMARK   12  A    between atoms: C15_21  and  C1_22 
REMARK   13  A    between atoms: C1_22  and  C2_23 
REMARK   14  A    between atoms: C1_22  and  C3_26 
REMARK   15  A    between atoms: C7_31  and  C9_32 
REMARK   16  A    between atoms: C9_32  and  N10_33 
ROOT
ATOM      1  C27 528 d   1      35.083  14.606  61.726  0.00  0.00     0.097 C 
ATOM      2  H13 528 d   1      34.129  14.524  62.267  0.00  0.00     0.090 H 
ENDROOT
BRANCH   1   3
ATOM      3  N31 528 d   1      36.079  14.909  62.719  0.00  0.00    -0.304 N 
ATOM      4  H12 528 d   1      37.000  15.148  62.410  0.00  0.00     0.173 HD
BRANCH   3   5
ATOM      5  S32 528 d   1      35.781  14.883  64.339  0.00  0.00     0.227 S 
ATOM      6  O32 528 d   1      34.360  14.458  64.598  0.00  0.00    -0.206 OA
ATOM      7  O33 528 d   1      36.000  16.251  64.904  0.00  0.00    -0.206 OA
BRANCH   5   8
ATOM      8  C33 528 d   1      36.924  13.719  65.140  0.00  0.00     0.046 C 
ATOM      9  H10 528 d   1      36.790  12.726  64.685  0.00  0.00     0.058 H 
ATOM     10  H11 528 d   1      37.954  14.065  64.969  0.00  0.00     0.058 H 
BRANCH   8  11
ATOM     11  C34 528 d   1      36.692  13.600  66.652  0.00  0.00    -0.048 C 
ATOM     12  H8  528 d   1      36.641  14.611  67.084  0.00  0.00     0.034 H 
ATOM     13  H9  528 d   1      35.739  13.079  66.825  0.00  0.00     0.034 H 
BRANCH  11  14
ATOM     14  C35 528 d   1      37.821  12.816  67.352  0.00  0.00    -0.040 C 
ATOM     15  H6  528 d   1      37.508  12.595  68.383  0.00  0.00     0.040 H 
ATOM     16  H7  528 d   1      37.984  11.874  66.808  0.00  0.00     0.040 H 
BRANCH  14  17
ATOM     17  C36 528 d   1      39.156  13.598  67.397  0.00  0.00    -0.058 A 
ATOM     18  C37 528 d   1      39.293  14.730  68.248  0.00  0.00    -0.077 A 
ATOM     19  C38 528 d   1      40.521  15.440  68.296  0.00  0.00    -0.082 A 
ATOM     20  H1  528 d   1      38.458  15.051  68.861  0.00  0.00     0.084 H 
ATOM     21  C41 528 d   1      41.614  15.021  67.495  0.00  0.00    -0.083 A 
ATOM     22  H2  528 d   1      40.624  16.302  68.945  0.00  0.00     0.083 H 
ATOM     23  C40 528 d   1      41.481  13.894  66.646  0.00  0.00    -0.082 A 
ATOM     24  H3  528 d   1      42.552  15.563  67.532  0.00  0.00     0.083 H 
ATOM     25  C39 528 d   1      40.254  13.182  66.596  0.00  0.00    -0.077 A 
ATOM     26  H4  528 d   1      42.317  13.575  66.034  0.00  0.00     0.083 H 
ATOM     27  H5  528 d   1      40.154  12.320  65.946  0.00  0.00     0.084 H 
ENDBRANCH  14  17
ENDBRANCH  11  14
ENDBRANCH   8  11
ENDBRANCH   5   8
ENDBRANCH   3   5
ENDBRANCH   1   3
BRANCH   1  28
ATOM     28  C28 528 d   1      34.891  15.780  60.730  0.00  0.00    -0.032 C 
ATOM     29  H14 528 d   1      34.157  15.461  59.975  0.00  0.00     0.042 H 
BRANCH  28  30
ATOM     30  C30 528 d   1      36.175  16.180  59.994  0.00  0.00    -0.071 C 
ATOM     31  H15 528 d   1      35.961  17.014  59.309  0.00  0.00     0.028 H 
ATOM     32  H16 528 d   1      36.551  15.321  59.419  0.00  0.00     0.028 H 
ATOM     33  H17 528 d   1      36.935  16.492  60.725  0.00  0.00     0.028 H 
ENDBRANCH  28  30
BRANCH  28  34
ATOM     34  C29 528 d   1      34.331  17.000  61.469  0.00  0.00    -0.071 C 
ATOM     35  H18 528 d   1      33.409  16.717  61.998  0.00  0.00     0.028 H 
ATOM     36  H19 528 d   1      34.107  17.797  60.744  0.00  0.00     0.028 H 
ATOM     37  H20 528 d   1      35.074  17.362  62.195  0.00  0.00     0.028 H 
ENDBRANCH  28  34
ENDBRANCH   1  28
BRANCH   1  38
ATOM     38  P24 528 d   1      35.356  12.943  60.963  0.00  0.00     0.131 P 
ATOM     39  O25 528 d   1      34.432  12.793  59.815  0.00  0.00    -0.666 OA
ATOM     40  O26 528 d   1      35.236  11.975  62.080  0.00  0.00    -0.666 OA
BRANCH  38  41
ATOM     41  C15 528 d   1      37.072  12.906  60.339  0.00  0.00     0.025 C 
ATOM     42  H21 528 d   1      37.745  13.319  61.105  0.00  0.00     0.050 H 
ATOM     43  H22 528 d   1      37.139  13.514  59.425  0.00  0.00     0.050 H 
BRANCH  41  44
ATOM     44  C1  528 d   1      37.497  11.449  60.016  0.00  0.00     0.065 C 
ATOM     45  H23 528 d   1      36.684  10.979  59.443  0.00  0.00     0.065 H 
BRANCH  44  46
ATOM     46  C2  528 d   1      37.736  10.620  61.302  0.00  0.00     0.182 C 
ATOM     47  O14 528 d   1      37.399   9.420  61.267  0.00  0.00    -0.647 OA
ATOM     48  O13 528 d   1      38.256  11.207  62.282  0.00  0.00    -0.647 OA
ENDBRANCH  44  46
BRANCH  44  49
ATOM     49  C3  528 d   1      38.787  11.411  59.163  0.00  0.00    -0.043 A 
ATOM     50  C8  528 d   1      38.801  10.634  57.982  0.00  0.00    -0.068 A 
ATOM     51  C7  528 d   1      39.995  10.492  57.237  0.00  0.00    -0.033 A 
ATOM     52  H24 528 d   1      37.894  10.145  57.646  0.00  0.00     0.085 H 
ATOM     53  C6  528 d   1      41.183  11.133  57.666  0.00  0.00    -0.075 A 
ATOM     54  C5  528 d   1      41.175  11.918  58.842  0.00  0.00    -0.082 A 
ATOM     55  H27 528 d   1      42.097  11.022  57.094  0.00  0.00     0.084 H 
ATOM     56  C4  528 d   1      39.982  12.061  59.590  0.00  0.00    -0.076 A 
ATOM     57  H26 528 d   1      42.083  12.411  59.171  0.00  0.00     0.083 H 
ATOM     58  H25 528 d   1      39.977  12.666  60.489  0.00  0.00     0.084 H 
BRANCH  51  59
ATOM     59  C9  528 d   1      40.003   9.628  55.982  0.00  0.00     0.103 C 
ATOM     60  H28 528 d   1      40.864   9.899  55.353  0.00  0.00     0.082 H 
ATOM     61  H29 528 d   1      39.072   9.788  55.418  0.00  0.00     0.082 H 
BRANCH  59  62
ATOM     62  N10 528 d   1      40.105   8.216  56.374  0.00  0.00    -0.075 N 
ATOM     63  H30 528 d   1      40.111   7.638  55.548  0.00  0.00     0.274 HD
ATOM     64  H31 528 d   1      39.316   7.970  56.951  0.00  0.00     0.274 HD
ATOM     65  H32 528 d   1      40.958   8.072  56.891  0.00  0.00     0.274 HD
ENDBRANCH  59  62
ENDBRANCH  51  59
ENDBRANCH  44  49
ENDBRANCH  41  44
ENDBRANCH  38  41
ENDBRANCH   1  38
TORSDOF 16
