REMARK  9 active torsions:
REMARK  status: ('A' for Active; 'I' for Inactive)
REMARK    1  A    between atoms: C28_6  and  C27_7 
REMARK    2  A    between atoms: C27_7  and  C26_8 
REMARK    3  A    between atoms: C26_8  and  C25_9 
REMARK    4  A    between atoms: C25_9  and  P24_10 
REMARK    5  A    between atoms: P24_10  and  C23_13 
REMARK    6  A    between atoms: C23_13  and  C1_14 
REMARK    7  A    between atoms: C1_14  and  C2_15 
REMARK    8  A    between atoms: C1_14  and  C3_18 
REMARK    9  A    between atoms: C7_23  and  N9_24 
REMARK       I    between atoms: N9_24  and  C10_25 
REMARK       I    between atoms: C10_25  and  N12_26 
ROOT
ATOM      1  C23 606 d   1      36.947  13.374  60.123  0.00  0.00     0.023 C 
ATOM      2  H12 606 d   1      37.473  14.172  60.667  0.00  0.00     0.050 H 
ATOM      3  H13 606 d   1      37.022  13.557  59.041  0.00  0.00     0.050 H 
ENDROOT
BRANCH   1   4
ATOM      4  P24 606 d   1      35.199  13.366  60.611  0.00  0.00     0.107 P 
ATOM      5  O34 606 d   1      34.464  12.538  59.632  0.00  0.00    -0.667 OA
ATOM      6  O35 606 d   1      35.035  13.066  62.044  0.00  0.00    -0.667 OA
BRANCH   4   7
ATOM      7  C25 606 d   1      34.678  15.087  60.359  0.00  0.00     0.007 C 
ATOM      8  H10 606 d   1      34.858  15.365  59.310  0.00  0.00     0.048 H 
ATOM      9  H11 606 d   1      33.604  15.171  60.581  0.00  0.00     0.048 H 
BRANCH   7  10
ATOM     10  C26 606 d   1      35.451  16.048  61.268  0.00  0.00    -0.053 C 
ATOM     11  H8  606 d   1      35.327  15.729  62.314  0.00  0.00     0.034 H 
ATOM     12  H9  606 d   1      36.517  16.016  60.999  0.00  0.00     0.034 H 
BRANCH  10  13
ATOM     13  C27 606 d   1      34.943  17.483  61.121  0.00  0.00    -0.041 C 
ATOM     14  H6  606 d   1      35.002  17.778  60.063  0.00  0.00     0.040 H 
ATOM     15  H7  606 d   1      33.896  17.529  61.456  0.00  0.00     0.040 H 
BRANCH  13  16
ATOM     16  C28 606 d   1      35.780  18.459  61.960  0.00  0.00    -0.058 A 
ATOM     17  C29 606 d   1      35.598  18.535  63.369  0.00  0.00    -0.077 A 
ATOM     18  C30 606 d   1      36.365  19.450  64.134  0.00  0.00    -0.082 A 
ATOM     19  H1  606 d   1      34.873  17.894  63.858  0.00  0.00     0.084 H 
ATOM     20  C31 606 d   1      37.316  20.289  63.491  0.00  0.00    -0.083 A 
ATOM     21  H2  606 d   1      36.227  19.510  65.207  0.00  0.00     0.083 H 
ATOM     22  C32 606 d   1      37.497  20.213  62.086  0.00  0.00    -0.082 A 
ATOM     23  H3  606 d   1      37.904  20.988  64.075  0.00  0.00     0.083 H 
ATOM     24  C33 606 d   1      36.729  19.298  61.321  0.00  0.00    -0.077 A 
ATOM     25  H4  606 d   1      38.222  20.854  61.597  0.00  0.00     0.083 H 
ATOM     26  H5  606 d   1      36.867  19.240  60.247  0.00  0.00     0.084 H 
ENDBRANCH  13  16
ENDBRANCH  10  13
ENDBRANCH   7  10
ENDBRANCH   4   7
ENDBRANCH   1   4
BRANCH   1  27
ATOM     27  C1  606 d   1      37.599  12.010  60.458  0.00  0.00     0.065 C 
ATOM     28  H14 606 d   1      36.894  11.215  60.173  0.00  0.00     0.065 H 
BRANCH  27  29
ATOM     29  C2  606 d   1      37.909  11.886  61.977  0.00  0.00     0.182 C 
ATOM     30  O14 606 d   1      37.735  10.769  62.490  0.00  0.00    -0.647 OA
ATOM     31  O13 606 d   1      38.336  12.909  62.583  0.00  0.00    -0.647 OA
ENDBRANCH  27  29
BRANCH  27  32
ATOM     32  C3  606 d   1      38.920  11.805  59.684  0.00  0.00    -0.041 A 
ATOM     33  C8  606 d   1      39.211  10.512  59.175  0.00  0.00    -0.050 A 
ATOM     34  C7  606 d   1      40.468  10.245  58.578  0.00  0.00     0.049 A 
ATOM     35  H15 606 d   1      38.468   9.726  59.243  0.00  0.00     0.087 H 
ATOM     36  C6  606 d   1      41.436  11.276  58.471  0.00  0.00    -0.057 A 
ATOM     37  C5  606 d   1      41.148  12.573  58.969  0.00  0.00    -0.080 A 
ATOM     38  H18 606 d   1      42.395  11.073  58.009  0.00  0.00     0.086 H 
ATOM     39  C4  606 d   1      39.895  12.843  59.575  0.00  0.00    -0.076 A 
ATOM     40  H17 606 d   1      41.889  13.360  58.886  0.00  0.00     0.083 H 
ATOM     41  H16 606 d   1      39.678  13.835  59.955  0.00  0.00     0.084 H 
BRANCH  34  42
ATOM     42  N9  606 d   1      40.778   8.993  58.199  0.00  0.00    -0.193 N 
ATOM     43  C10 606 d   1      40.485   8.488  56.987  0.00  0.00     0.669 C 
ATOM     44  N12 606 d   1      39.892   9.231  56.048  0.00  0.00    -0.235 N 
ATOM     45  N11 606 d   1      40.821   7.229  56.720  0.00  0.00    -0.235 N 
ATOM     46  H20 606 d   1      39.678   8.822  55.127  0.00  0.00     0.174 HD
ATOM     47  H21 606 d   1      39.649  10.213  56.245  0.00  0.00     0.174 HD
ATOM     48  H22 606 d   1      41.278   6.654  57.442  0.00  0.00     0.174 HD
ATOM     49  H23 606 d   1      40.624   6.829  55.791  0.00  0.00     0.174 HD
ATOM     50  H19 606 d   1      41.267   8.387  58.874  0.00  0.00     0.184 HD
ENDBRANCH  34  42
ENDBRANCH  27  32
ENDBRANCH   1  27
TORSDOF 9
