REMARK  13 active torsions:
REMARK  status: ('A' for Active; 'I' for Inactive)
REMARK    1  A    between atoms: C36_6  and  C33_7 
REMARK    2  A    between atoms: C33_7  and  O32_8 
REMARK    3  A    between atoms: O32_8  and  C30_9 
REMARK       I    between atoms: C30_9  and  N29_11 
REMARK    4  A    between atoms: N29_11  and  C25_12 
REMARK    5  A    between atoms: C25_12  and  C26_13 
REMARK    6  A    between atoms: C25_12  and  P24_16 
REMARK    7  A    between atoms: C26_13  and  C28_14 
REMARK    8  A    between atoms: C26_13  and  C27_15 
REMARK    9  A    between atoms: P24_16  and  O23_19 
REMARK   10  A    between atoms: O23_19  and  C1_20 
REMARK   11  A    between atoms: C1_20  and  C2_21 
REMARK   12  A    between atoms: C1_20  and  C3_24 
REMARK   13  A    between atoms: C7_29  and  N9_30 
REMARK       I    between atoms: N9_30  and  C10_31 
REMARK       I    between atoms: C10_31  and  N12_32 
ROOT
ATOM      1  C25 922 d   1      34.908  14.815  61.123  0.00  0.00     0.117 C 
ATOM      2  H9  922 d   1      33.983  14.879  61.715  0.00  0.00     0.093 H 
ENDROOT
BRANCH   1   3
ATOM      3  N29 922 d   1      36.047  14.957  62.037  0.00  0.00    -0.320 N 
ATOM      4  C30 922 d   1      35.948  14.854  63.363  0.00  0.00     0.361 C 
ATOM      5  O31 922 d   1      34.863  14.734  63.962  0.00  0.00    -0.238 OA
ATOM      6  H8  922 d   1      36.948  15.141  61.644  0.00  0.00     0.165 HD
BRANCH   4   7
ATOM      7  O32 922 d   1      37.135  15.001  64.036  0.00  0.00    -0.299 OA
BRANCH   7   8
ATOM      8  C33 922 d   1      37.150  14.729  65.456  0.00  0.00     0.054 C 
ATOM      9  H6  922 d   1      36.878  15.661  65.974  0.00  0.00     0.082 H 
ATOM     10  H7  922 d   1      36.385  13.963  65.654  0.00  0.00     0.082 H 
BRANCH   8  11
ATOM     11  C36 922 d   1      38.360  14.272  66.015  0.00  0.00    -0.034 A 
ATOM     12  C37 922 d   1      38.687  14.567  67.365  0.00  0.00    -0.075 A 
ATOM     13  C38 922 d   1      39.938  14.151  67.902  0.00  0.00    -0.082 A 
ATOM     14  H1  922 d   1      37.984  15.109  67.987  0.00  0.00     0.084 H 
ATOM     15  C39 922 d   1      40.861  13.439  67.093  0.00  0.00    -0.083 A 
ATOM     16  H2  922 d   1      40.186  14.379  68.932  0.00  0.00     0.083 H 
ATOM     17  C40 922 d   1      40.537  13.139  65.745  0.00  0.00    -0.082 A 
ATOM     18  H3  922 d   1      41.813  13.124  67.505  0.00  0.00     0.083 H 
ATOM     19  C41 922 d   1      39.290  13.552  65.208  0.00  0.00    -0.075 A 
ATOM     20  H4  922 d   1      41.241  12.595  65.126  0.00  0.00     0.083 H 
ATOM     21  H5  922 d   1      39.043  13.319  64.179  0.00  0.00     0.084 H 
ENDBRANCH   8  11
ENDBRANCH   7   8
ENDBRANCH   4   7
ENDBRANCH   1   3
BRANCH   1  22
ATOM     22  C26 922 d   1      34.886  15.987  60.115  0.00  0.00    -0.030 C 
ATOM     23  H10 922 d   1      34.111  15.772  59.365  0.00  0.00     0.043 H 
BRANCH  22  24
ATOM     24  C28 922 d   1      34.509  17.287  60.844  0.00  0.00    -0.071 C 
ATOM     25  H11 922 d   1      34.494  18.119  60.125  0.00  0.00     0.028 H 
ATOM     26  H12 922 d   1      35.250  17.495  61.630  0.00  0.00     0.028 H 
ATOM     27  H13 922 d   1      33.513  17.177  61.298  0.00  0.00     0.028 H 
ENDBRANCH  22  24
BRANCH  22  28
ATOM     28  C27 922 d   1      36.217  16.161  59.375  0.00  0.00    -0.071 C 
ATOM     29  H14 922 d   1      36.474  15.225  58.858  0.00  0.00     0.028 H 
ATOM     30  H15 922 d   1      37.008  16.411  60.097  0.00  0.00     0.028 H 
ATOM     31  H16 922 d   1      36.124  16.972  58.638  0.00  0.00     0.028 H 
ENDBRANCH  22  28
ENDBRANCH   1  22
BRANCH   1  32
ATOM     32  P24 922 d   1      34.948  13.149  60.352  0.00  0.00     0.274 P 
ATOM     33  O34 922 d   1      33.897  13.071  59.316  0.00  0.00    -0.645 OA
ATOM     34  O35 922 d   1      34.888  12.192  61.477  0.00  0.00    -0.645 OA
BRANCH  32  35
ATOM     35  O23 922 d   1      36.379  13.007  59.646  0.00  0.00    -0.289 OA
BRANCH  35  36
ATOM     36  C1  922 d   1      36.748  11.702  59.179  0.00  0.00     0.157 C 
ATOM     37  H17 922 d   1      35.832  11.206  58.825  0.00  0.00     0.109 H 
BRANCH  36  38
ATOM     38  C2  922 d   1      37.318  10.864  60.332  0.00  0.00     0.208 C 
ATOM     39  O14 922 d   1      36.974   9.662  60.367  0.00  0.00    -0.646 OA
ATOM     40  O13 922 d   1      38.049  11.448  61.163  0.00  0.00    -0.646 OA
ENDBRANCH  36  38
BRANCH  36  41
ATOM     41  C3  922 d   1      37.733  11.760  57.985  0.00  0.00    -0.016 A 
ATOM     42  C8  922 d   1      38.378  10.576  57.578  0.00  0.00    -0.048 A 
ATOM     43  C7  922 d   1      39.251  10.558  56.465  0.00  0.00     0.049 A 
ATOM     44  H18 922 d   1      38.202   9.659  58.129  0.00  0.00     0.087 H 
ATOM     45  C6  922 d   1      39.478  11.755  55.741  0.00  0.00    -0.057 A 
ATOM     46  C5  922 d   1      38.832  12.958  56.138  0.00  0.00    -0.080 A 
ATOM     47  H21 922 d   1      40.144  11.754  54.885  0.00  0.00     0.086 H 
ATOM     48  C4  922 d   1      37.961  12.965  57.259  0.00  0.00    -0.074 A 
ATOM     49  H20 922 d   1      39.005  13.873  55.583  0.00  0.00     0.083 H 
ATOM     50  H19 922 d   1      37.471  13.883  57.562  0.00  0.00     0.084 H 
BRANCH  43  51
ATOM     51  N9  922 d   1      39.855   9.401  56.092  0.00  0.00    -0.193 N 
ATOM     52  C10 922 d   1      40.525   8.594  56.959  0.00  0.00     0.669 C 
ATOM     53  N12 922 d   1      40.951   9.046  58.149  0.00  0.00    -0.235 N 
ATOM     54  N11 922 d   1      40.794   7.335  56.614  0.00  0.00    -0.235 N 
ATOM     55  H23 922 d   1      41.456   8.416  58.788  0.00  0.00     0.174 HD
ATOM     56  H24 922 d   1      40.773  10.023  58.423  0.00  0.00     0.174 HD
ATOM     57  H25 922 d   1      40.475   6.971  55.705  0.00  0.00     0.174 HD
ATOM     58  H26 922 d   1      41.321   6.726  57.257  0.00  0.00     0.174 HD
ATOM     59  H22 922 d   1      39.804   9.120  55.102  0.00  0.00     0.184 HD
ENDBRANCH  43  51
ENDBRANCH  36  41
ENDBRANCH  35  36
ENDBRANCH  32  35
ENDBRANCH   1  32
TORSDOF 13
