REMARK  14 active torsions:
REMARK  status: ('A' for Active; 'I' for Inactive)
REMARK    1  A    between atoms: C26_6  and  C23_7 
REMARK    2  A    between atoms: C23_7  and  O22_8 
REMARK    3  A    between atoms: O22_8  and  C20_9 
REMARK       I    between atoms: C20_9  and  N19_11 
REMARK    4  A    between atoms: N19_11  and  C15_12 
REMARK    5  A    between atoms: C15_12  and  C16_13 
REMARK    6  A    between atoms: C15_12  and  P14_16 
REMARK    7  A    between atoms: C16_13  and  C18_14 
REMARK    8  A    between atoms: C16_13  and  C17_15 
REMARK    9  A    between atoms: P14_16  and  O13_19 
REMARK   10  A    between atoms: O13_19  and  C1_20 
REMARK   11  A    between atoms: C1_20  and  C2_21 
REMARK   12  A    between atoms: C1_20  and  C3_24 
REMARK   13  A    between atoms: C7_29  and  C9_30 
REMARK   14  A    between atoms: C9_30  and  N10_31 
ROOT
ATOM      1  C15 578 d   1      34.738  14.598  61.371  0.00  0.00     0.117 C 
ATOM      2  H9  578 d   1      33.739  14.598  61.832  0.00  0.00     0.093 H 
ENDROOT
BRANCH   1   3
ATOM      3  N19 578 d   1      35.733  14.632  62.446  0.00  0.00    -0.320 N 
ATOM      4  C20 578 d   1      35.428  14.461  63.732  0.00  0.00     0.361 C 
ATOM      5  O21 578 d   1      34.260  14.361  64.155  0.00  0.00    -0.238 OA
ATOM      6  H8  578 d   1      36.690  14.792  62.202  0.00  0.00     0.165 HD
BRANCH   4   7
ATOM      7  O22 578 d   1      36.492  14.489  64.584  0.00  0.00    -0.299 OA
BRANCH   7   8
ATOM      8  C23 578 d   1      36.219  14.206  65.973  0.00  0.00     0.054 C 
ATOM      9  H6  578 d   1      35.666  15.066  66.379  0.00  0.00     0.082 H 
ATOM     10  H7  578 d   1      35.580  13.311  66.005  0.00  0.00     0.082 H 
BRANCH   8  11
ATOM     11  C26 578 d   1      37.305  13.972  66.821  0.00  0.00    -0.034 A 
ATOM     12  C27 578 d   1      37.130  13.994  68.227  0.00  0.00    -0.075 A 
ATOM     13  C28 578 d   1      38.241  13.779  69.082  0.00  0.00    -0.082 A 
ATOM     14  H1  578 d   1      36.148  14.175  68.649  0.00  0.00     0.084 H 
ATOM     15  C29 578 d   1      39.527  13.542  68.533  0.00  0.00    -0.083 A 
ATOM     16  H2  578 d   1      38.107  13.796  70.157  0.00  0.00     0.083 H 
ATOM     17  C30 578 d   1      39.705  13.518  67.127  0.00  0.00    -0.082 A 
ATOM     18  H3  578 d   1      40.374  13.379  69.189  0.00  0.00     0.083 H 
ATOM     19  C31 578 d   1      38.597  13.730  66.272  0.00  0.00    -0.075 A 
ATOM     20  H4  578 d   1      40.688  13.338  66.707  0.00  0.00     0.083 H 
ATOM     21  H5  578 d   1      38.732  13.708  65.197  0.00  0.00     0.084 H 
ENDBRANCH   8  11
ENDBRANCH   7   8
ENDBRANCH   4   7
ENDBRANCH   1   3
BRANCH   1  22
ATOM     22  C16 578 d   1      34.813  15.850  60.473  0.00  0.00    -0.030 C 
ATOM     23  H10 578 d   1      34.134  15.688  59.623  0.00  0.00     0.043 H 
BRANCH  22  24
ATOM     24  C18 578 d   1      34.329  17.091  61.234  0.00  0.00    -0.071 C 
ATOM     25  H11 578 d   1      34.390  17.971  60.577  0.00  0.00     0.028 H 
ATOM     26  H12 578 d   1      34.963  17.249  62.119  0.00  0.00     0.028 H 
ATOM     27  H13 578 d   1      33.286  16.943  61.552  0.00  0.00     0.028 H 
ENDBRANCH  22  24
BRANCH  22  28
ATOM     28  C17 578 d   1      36.203  16.085  59.908  0.00  0.00    -0.071 C 
ATOM     29  H14 578 d   1      36.535  15.187  59.366  0.00  0.00     0.028 H 
ATOM     30  H15 578 d   1      36.902  16.296  60.730  0.00  0.00     0.028 H 
ATOM     31  H16 578 d   1      36.178  16.942  59.218  0.00  0.00     0.028 H 
ENDBRANCH  22  28
ENDBRANCH   1  22
BRANCH   1  32
ATOM     32  P14 578 d   1      34.933  13.008  60.473  0.00  0.00     0.274 P 
ATOM     33  O24 578 d   1      34.074  12.998  59.274  0.00  0.00    -0.645 OA
ATOM     34  O25 578 d   1      34.723  11.980  61.520  0.00  0.00    -0.645 OA
BRANCH  32  35
ATOM     35  O13 578 d   1      36.485  12.893  60.006  0.00  0.00    -0.289 OA
BRANCH  35  36
ATOM     36  C1  578 d   1      36.968  11.579  59.621  0.00  0.00     0.157 C 
ATOM     37  H17 578 d   1      36.175  11.090  59.036  0.00  0.00     0.109 H 
BRANCH  36  38
ATOM     38  C2  578 d   1      37.280  10.709  60.849  0.00  0.00     0.208 C 
ATOM     39  O12 578 d   1      37.043   9.490  60.743  0.00  0.00    -0.646 OA
ATOM     40  O11 578 d   1      37.754  11.284  61.852  0.00  0.00    -0.646 OA
ENDBRANCH  36  38
BRANCH  36  41
ATOM     41  C3  578 d   1      38.231  11.647  58.762  0.00  0.00    -0.018 A 
ATOM     42  C8  578 d   1      38.374  10.741  57.684  0.00  0.00    -0.066 A 
ATOM     43  C7  578 d   1      39.598  10.669  56.980  0.00  0.00    -0.032 A 
ATOM     44  H18 578 d   1      37.546  10.103  57.398  0.00  0.00     0.085 H 
ATOM     45  C6  578 d   1      40.681  11.506  57.351  0.00  0.00    -0.075 A 
ATOM     46  C5  578 d   1      40.532  12.417  58.425  0.00  0.00    -0.082 A 
ATOM     47  H21 578 d   1      41.621  11.449  56.814  0.00  0.00     0.084 H 
ATOM     48  C4  578 d   1      39.308  12.492  59.128  0.00  0.00    -0.074 A 
ATOM     49  H20 578 d   1      41.359  13.058  58.709  0.00  0.00     0.083 H 
ATOM     50  H19 578 d   1      39.194  13.195  59.946  0.00  0.00     0.084 H 
BRANCH  43  51
ATOM     51  C9  578 d   1      39.754   9.683  55.828  0.00  0.00     0.103 C 
ATOM     52  H22 578 d   1      40.383  10.132  55.045  0.00  0.00     0.082 H 
ATOM     53  H23 578 d   1      38.764   9.446  55.412  0.00  0.00     0.082 H 
BRANCH  51  54
ATOM     54  N10 578 d   1      40.387   8.449  56.317  0.00  0.00    -0.075 N 
ATOM     55  H24 578 d   1      40.489   7.799  55.554  0.00  0.00     0.274 HD
ATOM     56  H25 578 d   1      39.811   8.037  57.034  0.00  0.00     0.274 HD
ATOM     57  H26 578 d   1      41.295   8.665  56.698  0.00  0.00     0.274 HD
ENDBRANCH  51  54
ENDBRANCH  43  51
ENDBRANCH  36  41
ENDBRANCH  35  36
ENDBRANCH  32  35
ENDBRANCH   1  32
TORSDOF 14
