REMARK  14 active torsions:
REMARK  status: ('A' for Active; 'I' for Inactive)
REMARK    1  A    between atoms: C1_1  and  C2_2 
REMARK    2  A    between atoms: C1_1  and  C3_3 
REMARK    3  A    between atoms: C1_1  and  C15_13 
REMARK    4  A    between atoms: C7_7  and  C9_9 
REMARK    5  A    between atoms: C9_9  and  N10_10 
REMARK    6  A    between atoms: C15_13  and  P24_14 
REMARK    7  A    between atoms: P24_14  and  C25_15 
REMARK    8  A    between atoms: C25_15  and  C26_16 
REMARK    9  A    between atoms: C25_15  and  N29_19 
REMARK   10  A    between atoms: C26_16  and  C27_17 
REMARK   11  A    between atoms: C26_16  and  C28_18 
REMARK       I    between atoms: N29_19  and  C30_20 
REMARK   12  A    between atoms: C30_20  and  O32_22 
REMARK   13  A    between atoms: O32_22  and  C33_23 
REMARK   14  A    between atoms: C33_23  and  C36_26 
ROOT
ATOM      1  C25 864 d   1      34.830  14.363  61.489  0.00  0.00     0.092 C 
ATOM      2  H13 864 d   1      33.801  14.339  61.877  0.00  0.00     0.089 H 
ENDROOT
BRANCH   1   3
ATOM      3  P24 864 d   1      35.044  12.925  60.643  0.00  0.00     0.131 P 
ATOM      4  O34 864 d   1      34.096  12.865  59.558  0.00  0.00    -0.666 OA
ATOM      5  O35 864 d   1      34.787  11.860  61.573  0.00  0.00    -0.666 OA
BRANCH   3   6
ATOM      6  C15 864 d   1      36.605  12.739  60.037  0.00  0.00     0.025 C 
ATOM      7  H11 864 d   1      36.653  13.313  59.100  0.00  0.00     0.050 H 
ATOM      8  H12 864 d   1      37.288  13.184  60.775  0.00  0.00     0.050 H 
BRANCH   6   9
ATOM      9  C1  864 d   1      37.157  11.290  59.716  0.00  0.00     0.065 C 
ATOM     10  H1  864 d   1      36.396  10.776  59.110  0.00  0.00     0.065 H 
BRANCH   9  11
ATOM     11  C2  864 d   1      37.291  10.575  61.005  0.00  0.00     0.182 C 
ATOM     12  O13 864 d   1      37.687  11.133  62.061  0.00  0.00    -0.647 OA
ATOM     13  O14 864 d   1      37.018   9.358  61.039  0.00  0.00    -0.647 OA
ENDBRANCH   9  11
BRANCH   9  14
ATOM     14  C3  864 d   1      38.450  11.227  58.936  0.00  0.00    -0.043 A 
ATOM     15  C4  864 d   1      39.636  12.032  59.263  0.00  0.00    -0.076 A 
ATOM     16  C5  864 d   1      40.879  11.945  58.542  0.00  0.00    -0.082 A 
ATOM     17  H2  864 d   1      39.571  12.728  60.091  0.00  0.00     0.084 H 
ATOM     18  C6  864 d   1      40.926  11.008  57.448  0.00  0.00    -0.075 A 
ATOM     19  H3  864 d   1      41.736  12.553  58.808  0.00  0.00     0.083 H 
ATOM     20  C7  864 d   1      39.787  10.191  57.074  0.00  0.00    -0.033 A 
ATOM     21  H4  864 d   1      41.846  10.910  56.884  0.00  0.00     0.084 H 
ATOM     22  C8  864 d   1      38.553  10.301  57.819  0.00  0.00    -0.068 A 
ATOM     23  H5  864 d   1      37.700   9.691  57.544  0.00  0.00     0.085 H 
BRANCH  20  24
ATOM     24  C9  864 d   1      39.859   9.246  55.953  0.00  0.00     0.103 C 
ATOM     25  H6  864 d   1      40.733   9.505  55.337  0.00  0.00     0.082 H 
ATOM     26  H7  864 d   1      38.943   9.350  55.353  0.00  0.00     0.082 H 
BRANCH  24  27
ATOM     27  N10 864 d   1      39.985   7.838  56.368  0.00  0.00    -0.075 N 
ATOM     28  H8  864 d   1      40.029   7.250  55.551  0.00  0.00     0.274 HD
ATOM     29  H9  864 d   1      39.186   7.579  56.926  0.00  0.00     0.274 HD
ATOM     30  H10 864 d   1      40.826   7.722  56.911  0.00  0.00     0.274 HD
ENDBRANCH  24  27
ENDBRANCH  20  24
ENDBRANCH   9  14
ENDBRANCH   6   9
ENDBRANCH   3   6
ENDBRANCH   1   3
BRANCH   1  31
ATOM     31  C26 864 d   1      34.933  15.711  60.691  0.00  0.00    -0.032 C 
ATOM     32  H14 864 d   1      34.381  15.548  59.754  0.00  0.00     0.042 H 
BRANCH  31  33
ATOM     33  C27 864 d   1      36.325  16.234  60.297  0.00  0.00    -0.071 C 
ATOM     34  H15 864 d   1      36.219  17.181  59.748  0.00  0.00     0.028 H 
ATOM     35  H16 864 d   1      36.828  15.493  59.657  0.00  0.00     0.028 H 
ATOM     36  H17 864 d   1      36.924  16.402  61.204  0.00  0.00     0.028 H 
ENDBRANCH  31  33
BRANCH  31  37
ATOM     37  C28 864 d   1      34.245  16.851  61.466  0.00  0.00    -0.071 C 
ATOM     38  H18 864 d   1      33.239  16.530  61.774  0.00  0.00     0.028 H 
ATOM     39  H19 864 d   1      34.165  17.738  60.820  0.00  0.00     0.028 H 
ATOM     40  H20 864 d   1      34.840  17.099  62.357  0.00  0.00     0.028 H 
ENDBRANCH  31  37
ENDBRANCH   1  31
BRANCH   1  41
ATOM     41  N29 864 d   1      35.723  14.315  62.634  0.00  0.00    -0.322 N 
ATOM     42  C30 864 d   1      35.316  14.232  63.931  0.00  0.00     0.361 C 
ATOM     43  O31 864 d   1      34.098  14.210  64.266  0.00  0.00    -0.238 OA
ATOM     44  H21 864 d   1      36.707  14.345  62.457  0.00  0.00     0.165 HD
BRANCH  42  45
ATOM     45  O32 864 d   1      36.317  14.154  64.844  0.00  0.00    -0.299 OA
BRANCH  45  46
ATOM     46  C33 864 d   1      36.195  13.952  66.262  0.00  0.00     0.054 C 
ATOM     47  H22 864 d   1      35.718  12.977  66.440  0.00  0.00     0.082 H 
ATOM     48  H23 864 d   1      35.564  14.750  66.680  0.00  0.00     0.082 H 
BRANCH  46  49
ATOM     49  C36 864 d   1      37.495  13.973  66.945  0.00  0.00    -0.034 A 
ATOM     50  C37 864 d   1      37.596  14.696  68.204  0.00  0.00    -0.075 A 
ATOM     51  C38 864 d   1      38.867  14.733  68.904  0.00  0.00    -0.082 A 
ATOM     52  H24 864 d   1      36.730  15.202  68.615  0.00  0.00     0.084 H 
ATOM     53  C39 864 d   1      40.007  14.041  68.322  0.00  0.00    -0.083 A 
ATOM     54  H25 864 d   1      38.965  15.266  69.843  0.00  0.00     0.083 H 
ATOM     55  C40 864 d   1      39.921  13.315  67.065  0.00  0.00    -0.082 A 
ATOM     56  H26 864 d   1      40.956  14.068  68.845  0.00  0.00     0.083 H 
ATOM     57  C41 864 d   1      38.648  13.280  66.368  0.00  0.00    -0.075 A 
ATOM     58  H27 864 d   1      40.789  12.810  66.657  0.00  0.00     0.083 H 
ATOM     59  H28 864 d   1      38.552  12.746  65.430  0.00  0.00     0.084 H 
ENDBRANCH  46  49
ENDBRANCH  45  46
ENDBRANCH  42  45
ENDBRANCH   1  41
TORSDOF 14
