REMARK  13 active torsions:
REMARK  status: ('A' for Active; 'I' for Inactive)
REMARK    1  A    between atoms: C36_6  and  C33_7 
REMARK    2  A    between atoms: C33_7  and  C24_8 
REMARK    3  A    between atoms: C24_8  and  C30_9 
REMARK       I    between atoms: C30_9  and  N29_11 
REMARK    4  A    between atoms: N29_11  and  C25_12 
REMARK    5  A    between atoms: C25_12  and  C26_13 
REMARK    6  A    between atoms: C25_12  and  P24_16 
REMARK    7  A    between atoms: C26_13  and  C28_14 
REMARK    8  A    between atoms: C26_13  and  C27_15 
REMARK    9  A    between atoms: P24_16  and  O23_19 
REMARK   10  A    between atoms: O23_19  and  C1_20 
REMARK   11  A    between atoms: C1_20  and  C2_21 
REMARK   12  A    between atoms: C1_20  and  C3_24 
REMARK   13  A    between atoms: C7_29  and  N9_30 
REMARK       I    between atoms: N9_30  and  C10_31 
REMARK       I    between atoms: C10_31  and  N12_32 
ROOT
ATOM      1  C25 86A d   1      35.050  14.349  61.189  0.00  0.00     0.115 C 
ATOM      2  H11 86A d   1      34.064  14.387  61.675  0.00  0.00     0.093 H 
ENDROOT
BRANCH   1   3
ATOM      3  N29 86A d   1      36.065  14.449  62.255  0.00  0.00    -0.344 N 
ATOM      4  C30 86A d   1      35.723  14.428  63.552  0.00  0.00     0.218 C 
ATOM      5  O31 86A d   1      34.563  14.331  63.964  0.00  0.00    -0.274 OA
ATOM      6  H10 86A d   1      37.029  14.534  62.005  0.00  0.00     0.163 HD
BRANCH   4   7
ATOM      7  C24 86A d   1      36.891  14.544  64.531  0.00  0.00     0.013 C 
ATOM      8  H8  86A d   1      37.780  14.900  63.990  0.00  0.00     0.047 H 
ATOM      9  H9  86A d   1      36.629  15.264  65.320  0.00  0.00     0.047 H 
BRANCH   7  10
ATOM     10  C33 86A d   1      37.205  13.189  65.174  0.00  0.00    -0.033 C 
ATOM     11  H6  86A d   1      36.262  12.706  65.469  0.00  0.00     0.040 H 
ATOM     12  H7  86A d   1      37.726  12.557  64.440  0.00  0.00     0.040 H 
BRANCH  10  13
ATOM     13  C36 86A d   1      38.096  13.348  66.419  0.00  0.00    -0.058 A 
ATOM     14  C37 86A d   1      37.511  13.362  67.713  0.00  0.00    -0.077 A 
ATOM     15  C38 86A d   1      38.331  13.499  68.863  0.00  0.00    -0.082 A 
ATOM     16  H1  86A d   1      36.437  13.268  67.822  0.00  0.00     0.084 H 
ATOM     17  C39 86A d   1      39.737  13.623  68.721  0.00  0.00    -0.083 A 
ATOM     18  H2  86A d   1      37.883  13.509  69.850  0.00  0.00     0.083 H 
ATOM     19  C40 86A d   1      40.324  13.609  67.429  0.00  0.00    -0.082 A 
ATOM     20  H3  86A d   1      40.363  13.729  69.600  0.00  0.00     0.083 H 
ATOM     21  C41 86A d   1      39.505  13.471  66.278  0.00  0.00    -0.077 A 
ATOM     22  H4  86A d   1      41.398  13.704  67.321  0.00  0.00     0.083 H 
ATOM     23  H5  86A d   1      39.954  13.459  65.291  0.00  0.00     0.084 H 
ENDBRANCH  10  13
ENDBRANCH   7  10
ENDBRANCH   4   7
ENDBRANCH   1   3
BRANCH   1  24
ATOM     24  C26 86A d   1      35.106  15.555  60.225  0.00  0.00    -0.030 C 
ATOM     25  H12 86A d   1      34.446  15.331  59.374  0.00  0.00     0.043 H 
BRANCH  24  26
ATOM     26  C28 86A d   1      34.573  16.814  60.925  0.00  0.00    -0.071 C 
ATOM     27  H13 86A d   1      34.617  17.666  60.231  0.00  0.00     0.028 H 
ATOM     28  H14 86A d   1      35.189  17.030  61.810  0.00  0.00     0.028 H 
ATOM     29  H15 86A d   1      33.531  16.648  61.235  0.00  0.00     0.028 H 
ENDBRANCH  24  26
BRANCH  24  30
ATOM     30  C27 86A d   1      36.507  15.811  59.665  0.00  0.00    -0.071 C 
ATOM     31  H16 86A d   1      36.875  14.902  59.167  0.00  0.00     0.028 H 
ATOM     32  H17 86A d   1      37.187  16.080  60.487  0.00  0.00     0.028 H 
ATOM     33  H18 86A d   1      36.466  16.636  58.938  0.00  0.00     0.028 H 
ENDBRANCH  24  30
ENDBRANCH   1  24
BRANCH   1  34
ATOM     34  P24 86A d   1      35.169  12.710  60.359  0.00  0.00     0.274 P 
ATOM     35  O34 86A d   1      34.183  12.644  59.258  0.00  0.00    -0.645 OA
ATOM     36  O35 86A d   1      35.081  11.711  61.449  0.00  0.00    -0.645 OA
BRANCH  34  37
ATOM     37  O23 86A d   1      36.641  12.629  59.736  0.00  0.00    -0.289 OA
BRANCH  37  38
ATOM     38  C1  86A d   1      37.058  11.338  59.278  0.00  0.00     0.157 C 
ATOM     39  H19 86A d   1      36.159  10.813  58.922  0.00  0.00     0.109 H 
BRANCH  38  40
ATOM     40  C2  86A d   1      37.647  10.501  60.446  0.00  0.00     0.208 C 
ATOM     41  O14 86A d   1      37.392   9.276  60.440  0.00  0.00    -0.646 OA
ATOM     42  O13 86A d   1      38.308  11.106  61.317  0.00  0.00    -0.646 OA
ENDBRANCH  38  40
BRANCH  38  43
ATOM     43  C3  86A d   1      38.031  11.428  58.080  0.00  0.00    -0.016 A 
ATOM     44  C8  86A d   1      38.726  10.269  57.683  0.00  0.00    -0.048 A 
ATOM     45  C7  86A d   1      39.603  10.278  56.577  0.00  0.00     0.049 A 
ATOM     46  H20 86A d   1      38.584   9.350  58.239  0.00  0.00     0.087 H 
ATOM     47  C6  86A d   1      39.787  11.477  55.843  0.00  0.00    -0.057 A 
ATOM     48  C5  86A d   1      39.088  12.659  56.229  0.00  0.00    -0.080 A 
ATOM     49  H23 86A d   1      40.457  11.495  54.991  0.00  0.00     0.086 H 
ATOM     50  C4  86A d   1      38.210  12.635  57.350  0.00  0.00    -0.074 A 
ATOM     51  H22 86A d   1      39.225  13.577  55.668  0.00  0.00     0.083 H 
ATOM     52  H21 86A d   1      37.680  13.533  57.646  0.00  0.00     0.084 H 
BRANCH  45  53
ATOM     53  N9  86A d   1      40.225   9.139  56.224  0.00  0.00    -0.193 N 
ATOM     54  C10 86A d   1      41.035   8.451  57.059  0.00  0.00     0.669 C 
ATOM     55  N12 86A d   1      41.358   8.928  58.276  0.00  0.00    -0.235 N 
ATOM     56  N11 86A d   1      41.549   7.295  56.657  0.00  0.00    -0.235 N 
ATOM     57  H25 86A d   1      41.977   8.385  58.894  0.00  0.00     0.174 HD
ATOM     58  H26 86A d   1      40.986   9.836  58.589  0.00  0.00     0.174 HD
ATOM     59  H27 86A d   1      41.309   6.920  55.728  0.00  0.00     0.174 HD
ATOM     60  H28 86A d   1      42.188   6.773  57.274  0.00  0.00     0.174 HD
ATOM     61  H24 86A d   1      40.077   8.774  55.272  0.00  0.00     0.184 HD
ENDBRANCH  45  53
ENDBRANCH  38  43
ENDBRANCH  37  38
ENDBRANCH  34  37
ENDBRANCH   1  34
TORSDOF 13
