REMARK  11 active torsions:
REMARK  status: ('A' for Active; 'I' for Inactive)
REMARK    1  A    between atoms: C36_6  and  C33_7 
REMARK    2  A    between atoms: C33_7  and  O32_8 
REMARK    3  A    between atoms: O32_8  and  C30_9 
REMARK       I    between atoms: C30_9  and  N29_11 
REMARK    4  A    between atoms: N29_11  and  C25_12 
REMARK    5  A    between atoms: C25_12  and  C50_13 
REMARK    6  A    between atoms: C25_12  and  P24_19 
REMARK    7  A    between atoms: P24_19  and  O23_22 
REMARK    8  A    between atoms: O23_22  and  C1_23 
REMARK    9  A    between atoms: C1_23  and  C2_24 
REMARK   10  A    between atoms: C1_23  and  C3_27 
REMARK   11  A    between atoms: C7_32  and  N9_33 
REMARK       I    between atoms: N9_33  and  C10_34 
REMARK       I    between atoms: C10_34  and  N12_35 
ROOT
ATOM      1  C25 414 d   1      11.364  24.683  55.354  0.00  0.00     0.118 C 
ATOM      2  H9  414 d   1      11.624  24.884  56.404  0.00  0.00     0.093 H 
ENDROOT
BRANCH   1   3
ATOM      3  N29 414 d   1      12.294  25.424  54.509  0.00  0.00    -0.320 N 
ATOM      4  C30 414 d   1      13.316  26.149  54.962  0.00  0.00     0.361 C 
ATOM      5  O31 414 d   1      13.584  26.294  56.169  0.00  0.00    -0.238 OA
ATOM      6  H8  414 d   1      12.155  25.385  53.520  0.00  0.00     0.165 HD
BRANCH   4   7
ATOM      7  O32 414 d   1      14.051  26.761  53.985  0.00  0.00    -0.299 OA
BRANCH   7   8
ATOM      8  C33 414 d   1      15.182  27.553  54.394  0.00  0.00     0.054 C 
ATOM      9  H6  414 d   1      14.798  28.374  55.017  0.00  0.00     0.082 H 
ATOM     10  H7  414 d   1      15.833  26.906  55.000  0.00  0.00     0.082 H 
BRANCH   8  11
ATOM     11  C36 414 d   1      15.978  28.125  53.394  0.00  0.00    -0.034 A 
ATOM     12  C37 414 d   1      16.976  29.075  53.734  0.00  0.00    -0.075 A 
ATOM     13  C38 414 d   1      17.773  29.659  52.711  0.00  0.00    -0.082 A 
ATOM     14  H1  414 d   1      17.130  29.355  54.770  0.00  0.00     0.084 H 
ATOM     15  C39 414 d   1      17.570  29.294  51.352  0.00  0.00    -0.083 A 
ATOM     16  H2  414 d   1      18.537  30.384  52.968  0.00  0.00     0.083 H 
ATOM     17  C40 414 d   1      16.572  28.345  51.009  0.00  0.00    -0.082 A 
ATOM     18  H3  414 d   1      18.179  29.742  50.575  0.00  0.00     0.083 H 
ATOM     19  C41 414 d   1      15.779  27.761  52.026  0.00  0.00    -0.075 A 
ATOM     20  H4  414 d   1      16.418  28.068  49.972  0.00  0.00     0.083 H 
ATOM     21  H5  414 d   1      15.018  27.035  51.766  0.00  0.00     0.084 H 
ENDBRANCH   8  11
ENDBRANCH   7   8
ENDBRANCH   4   7
ENDBRANCH   1   3
BRANCH   1  22
ATOM     22  C50 414 d   1       9.925  25.199  55.152  0.00  0.00    -0.023 C 
ATOM     23  C51 414 d   1       9.529  25.232  53.638  0.00  0.00    -0.059 C 
ATOM     24  C52 414 d   1       8.143  25.896  53.427  0.00  0.00    -0.065 C 
ATOM     25  H11 414 d   1       9.493  24.201  53.255  0.00  0.00     0.033 H 
ATOM     26  H12 414 d   1      10.287  25.803  53.083  0.00  0.00     0.033 H 
ATOM     27  C53 414 d   1       8.113  27.330  54.018  0.00  0.00    -0.065 C 
ATOM     28  H13 414 d   1       7.374  25.287  53.924  0.00  0.00     0.033 H 
ATOM     29  H14 414 d   1       7.930  25.948  52.349  0.00  0.00     0.033 H 
ATOM     30  C54 414 d   1       8.432  27.293  55.529  0.00  0.00    -0.065 C 
ATOM     31  H15 414 d   1       7.113  27.763  53.869  0.00  0.00     0.033 H 
ATOM     32  H16 414 d   1       8.862  27.950  53.504  0.00  0.00     0.033 H 
ATOM     33  C55 414 d   1       9.811  26.640  55.770  0.00  0.00    -0.059 C 
ATOM     34  H17 414 d   1       7.658  26.709  56.049  0.00  0.00     0.033 H 
ATOM     35  H18 414 d   1       8.443  28.320  55.923  0.00  0.00     0.033 H 
ATOM     36  H19 414 d   1      10.585  27.278  55.317  0.00  0.00     0.033 H 
ATOM     37  H20 414 d   1       9.981  26.571  56.855  0.00  0.00     0.033 H 
ATOM     38  H10 414 d   1       9.232  24.527  55.679  0.00  0.00     0.044 H 
ENDBRANCH   1  22
BRANCH   1  39
ATOM     39  P24 414 d   1      11.622  22.887  55.074  0.00  0.00     0.274 P 
ATOM     40  O34 414 d   1      10.625  22.120  55.855  0.00  0.00    -0.645 OA
ATOM     41  O35 414 d   1      13.065  22.729  55.371  0.00  0.00    -0.645 OA
BRANCH  39  42
ATOM     42  O23 414 d   1      11.438  22.586  53.497  0.00  0.00    -0.289 OA
BRANCH  42  43
ATOM     43  C1  414 d   1      12.001  21.335  53.008  0.00  0.00     0.157 C 
ATOM     44  H21 414 d   1      12.000  20.631  53.853  0.00  0.00     0.109 H 
BRANCH  43  45
ATOM     45  C2  414 d   1      13.480  21.518  52.577  0.00  0.00     0.208 C 
ATOM     46  O14 414 d   1      14.225  20.508  52.661  0.00  0.00    -0.646 OA
ATOM     47  O13 414 d   1      13.843  22.664  52.234  0.00  0.00    -0.646 OA
ENDBRANCH  43  45
BRANCH  43  48
ATOM     48  C3  414 d   1      11.125  20.693  51.891  0.00  0.00    -0.016 A 
ATOM     49  C8  414 d   1      11.654  19.662  51.071  0.00  0.00    -0.048 A 
ATOM     50  C7  414 d   1      10.847  19.018  50.085  0.00  0.00     0.049 A 
ATOM     51  H22 414 d   1      12.687  19.359  51.196  0.00  0.00     0.087 H 
ATOM     52  C6  414 d   1       9.494  19.408  49.927  0.00  0.00    -0.057 A 
ATOM     53  C5  414 d   1       8.954  20.437  50.744  0.00  0.00    -0.080 A 
ATOM     54  H25 414 d   1       8.872  18.922  49.184  0.00  0.00     0.086 H 
ATOM     55  C4  414 d   1       9.764  21.079  51.721  0.00  0.00    -0.074 A 
ATOM     56  H24 414 d   1       7.919  20.735  50.622  0.00  0.00     0.083 H 
ATOM     57  H23 414 d   1       9.344  21.865  52.339  0.00  0.00     0.084 H 
BRANCH  50  58
ATOM     58  N9  414 d   1      11.358  18.021  49.324  0.00  0.00    -0.193 N 
ATOM     59  C10 414 d   1      12.460  18.164  48.558  0.00  0.00     0.669 C 
ATOM     60  N12 414 d   1      13.086  19.346  48.442  0.00  0.00    -0.235 N 
ATOM     61  N11 414 d   1      12.916  17.111  47.891  0.00  0.00    -0.235 N 
ATOM     62  H27 414 d   1      13.925  19.428  47.851  0.00  0.00     0.174 HD
ATOM     63  H28 414 d   1      12.727  20.171  48.944  0.00  0.00     0.174 HD
ATOM     64  H29 414 d   1      12.440  16.202  47.976  0.00  0.00     0.174 HD
ATOM     65  H30 414 d   1      13.746  17.203  47.288  0.00  0.00     0.174 HD
ATOM     66  H26 414 d   1      10.882  17.108  49.330  0.00  0.00     0.184 HD
ENDBRANCH  50  58
ENDBRANCH  43  48
ENDBRANCH  42  43
ENDBRANCH  39  42
ENDBRANCH   1  39
TORSDOF 11
