REMARK  15 active torsions:
REMARK  status: ('A' for Active; 'I' for Inactive)
REMARK    1  A    between atoms: C38_6  and  C35_7 
REMARK    2  A    between atoms: C35_7  and  O34_8 
REMARK    3  A    between atoms: O34_8  and  C32_9 
REMARK       I    between atoms: C32_9  and  N31_11 
REMARK    4  A    between atoms: N31_11  and  C25_12 
REMARK    5  A    between atoms: C25_12  and  C26_13 
REMARK    6  A    between atoms: C25_12  and  P24_18 
REMARK    7  A    between atoms: C26_13  and  C27_14 
REMARK    8  A    between atoms: C27_14  and  C28_15 
REMARK    9  A    between atoms: C28_15  and  C29_16 
REMARK   10  A    between atoms: C29_16  and  C30_17 
REMARK   11  A    between atoms: P24_18  and  O23_21 
REMARK   12  A    between atoms: O23_21  and  C1_22 
REMARK   13  A    between atoms: C1_22  and  C2_23 
REMARK   14  A    between atoms: C1_22  and  C3_26 
REMARK   15  A    between atoms: C7_31  and  N9_32 
REMARK       I    between atoms: N9_32  and  C10_33 
REMARK       I    between atoms: C10_33  and  N12_34 
ROOT
ATOM      1  C25 11B d   1      35.379  14.366  61.282  0.00  0.00     0.114 C 
ATOM      2  H9  11B d   1      34.404  14.686  61.678  0.00  0.00     0.093 H 
ENDROOT
BRANCH   1   3
ATOM      3  N31 11B d   1      36.365  14.281  62.370  0.00  0.00    -0.320 N 
ATOM      4  C32 11B d   1      36.037  14.214  63.662  0.00  0.00     0.361 C 
ATOM      5  O33 11B d   1      34.872  14.309  64.073  0.00  0.00    -0.238 OA
ATOM      6  H8  11B d   1      37.335  14.273  62.128  0.00  0.00     0.165 HD
BRANCH   4   7
ATOM      7  O34 11B d   1      37.069  14.033  64.546  0.00  0.00    -0.299 OA
BRANCH   7   8
ATOM      8  C35 11B d   1      36.665  14.044  65.934  0.00  0.00     0.054 C 
ATOM      9  H6  11B d   1      36.142  14.996  66.107  0.00  0.00     0.082 H 
ATOM     10  H7  11B d   1      35.962  13.209  66.069  0.00  0.00     0.082 H 
BRANCH   8  11
ATOM     11  C38 11B d   1      37.634  13.925  66.933  0.00  0.00    -0.034 A 
ATOM     12  C39 11B d   1      39.003  13.972  66.601  0.00  0.00    -0.075 A 
ATOM     13  C40 11B d   1      39.978  13.857  67.607  0.00  0.00    -0.082 A 
ATOM     14  H1  11B d   1      39.305  14.097  65.567  0.00  0.00     0.084 H 
ATOM     15  C41 11B d   1      39.587  13.695  68.947  0.00  0.00    -0.083 A 
ATOM     16  H2  11B d   1      41.030  13.893  67.349  0.00  0.00     0.083 H 
ATOM     17  C42 11B d   1      38.222  13.648  69.279  0.00  0.00    -0.082 A 
ATOM     18  H3  11B d   1      40.338  13.606  69.724  0.00  0.00     0.083 H 
ATOM     19  C43 11B d   1      37.246  13.763  68.273  0.00  0.00    -0.075 A 
ATOM     20  H4  11B d   1      37.921  13.523  70.313  0.00  0.00     0.083 H 
ATOM     21  H5  11B d   1      36.194  13.727  68.532  0.00  0.00     0.084 H 
ENDBRANCH   8  11
ENDBRANCH   7   8
ENDBRANCH   4   7
ENDBRANCH   1   3
BRANCH   1  22
ATOM     22  C26 11B d   1      35.867  15.380  60.228  0.00  0.00    -0.035 C 
ATOM     23  H10 11B d   1      35.060  15.550  59.500  0.00  0.00     0.036 H 
ATOM     24  H11 11B d   1      36.744  14.960  59.713  0.00  0.00     0.036 H 
BRANCH  22  25
ATOM     25  C27 11B d   1      36.260  16.729  60.854  0.00  0.00    -0.063 C 
ATOM     26  H12 11B d   1      36.648  17.386  60.062  0.00  0.00     0.033 H 
ATOM     27  H13 11B d   1      37.046  16.554  61.603  0.00  0.00     0.033 H 
BRANCH  25  28
ATOM     28  C28 11B d   1      35.076  17.429  61.537  0.00  0.00    -0.065 C 
ATOM     29  H14 11B d   1      34.626  16.741  62.268  0.00  0.00     0.033 H 
ATOM     30  H15 11B d   1      34.329  17.695  60.775  0.00  0.00     0.033 H 
BRANCH  28  31
ATOM     31  C29 11B d   1      35.527  18.707  62.264  0.00  0.00    -0.069 C 
ATOM     32  H16 11B d   1      36.302  18.443  62.999  0.00  0.00     0.032 H 
ATOM     33  H17 11B d   1      34.662  19.143  62.784  0.00  0.00     0.032 H 
BRANCH  31  34
ATOM     34  C30 11B d   1      36.099  19.749  61.295  0.00  0.00    -0.077 C 
ATOM     35  H18 11B d   1      36.407  20.643  61.858  0.00  0.00     0.027 H 
ATOM     36  H19 11B d   1      35.330  20.026  60.559  0.00  0.00     0.027 H 
ATOM     37  H20 11B d   1      36.970  19.326  60.773  0.00  0.00     0.027 H 
ENDBRANCH  31  34
ENDBRANCH  28  31
ENDBRANCH  25  28
ENDBRANCH  22  25
ENDBRANCH   1  22
BRANCH   1  38
ATOM     38  P24 11B d   1      35.235  12.698  60.539  0.00  0.00     0.274 P 
ATOM     39  O36 11B d   1      34.181  12.718  59.505  0.00  0.00    -0.645 OA
ATOM     40  O37 11B d   1      35.105  11.734  61.659  0.00  0.00    -0.645 OA
BRANCH  38  41
ATOM     41  O23 11B d   1      36.663  12.482  59.822  0.00  0.00    -0.289 OA
BRANCH  41  42
ATOM     42  C1  11B d   1      37.015  11.167  59.381  0.00  0.00     0.157 C 
ATOM     43  H21 11B d   1      36.100  10.659  59.041  0.00  0.00     0.109 H 
BRANCH  42  44
ATOM     44  C2  11B d   1      37.615  10.361  60.550  0.00  0.00     0.208 C 
ATOM     45  O14 11B d   1      37.339   9.142  60.592  0.00  0.00    -0.646 OA
ATOM     46  O13 11B d   1      38.326  10.981  61.373  0.00  0.00    -0.646 OA
ENDBRANCH  42  44
BRANCH  42  47
ATOM     47  C3  11B d   1      38.005  11.224  58.195  0.00  0.00    -0.016 A 
ATOM     48  C8  11B d   1      38.680  10.060  57.808  0.00  0.00    -0.048 A 
ATOM     49  C7  11B d   1      39.572  10.068  56.723  0.00  0.00     0.049 A 
ATOM     50  H22 11B d   1      38.512   9.139  58.354  0.00  0.00     0.087 H 
ATOM     51  C6  11B d   1      39.790  11.262  56.011  0.00  0.00    -0.057 A 
ATOM     52  C5  11B d   1      39.113  12.439  56.392  0.00  0.00    -0.080 A 
ATOM     53  H25 11B d   1      40.476  11.277  55.172  0.00  0.00     0.086 H 
ATOM     54  C4  11B d   1      38.221  12.421  57.484  0.00  0.00    -0.074 A 
ATOM     55  H24 11B d   1      39.279  13.360  55.844  0.00  0.00     0.083 H 
ATOM     56  H23 11B d   1      37.702  13.327  57.776  0.00  0.00     0.084 H 
BRANCH  49  57
ATOM     57  N9  11B d   1      40.189   8.930  56.363  0.00  0.00    -0.193 N 
ATOM     58  C10 11B d   1      41.002   8.254  57.203  0.00  0.00     0.669 C 
ATOM     59  N12 11B d   1      41.294   8.730  58.419  0.00  0.00    -0.235 N 
ATOM     60  N11 11B d   1      41.544   7.106  56.808  0.00  0.00    -0.235 N 
ATOM     61  H27 11B d   1      41.916   8.198  59.044  0.00  0.00     0.174 HD
ATOM     62  H28 11B d   1      40.896   9.628  58.730  0.00  0.00     0.174 HD
ATOM     63  H29 11B d   1      41.328   6.729  55.874  0.00  0.00     0.174 HD
ATOM     64  H30 11B d   1      42.180   6.594  57.436  0.00  0.00     0.174 HD
ATOM     65  H26 11B d   1      40.037   8.560  55.414  0.00  0.00     0.184 HD
ENDBRANCH  49  57
ENDBRANCH  42  47
ENDBRANCH  41  42
ENDBRANCH  38  41
ENDBRANCH   1  38
TORSDOF 15
