REMARK  15 active torsions:
REMARK  status: ('A' for Active; 'I' for Inactive)
REMARK    1  A    between atoms: C35_6  and  C34_7 
REMARK    2  A    between atoms: C34_7  and  C33_8 
REMARK    3  A    between atoms: C33_8  and  S32_9 
REMARK    4  A    between atoms: S32_9  and  N31_12 
REMARK    5  A    between atoms: N31_12  and  C27_13 
REMARK    6  A    between atoms: C27_13  and  C28_14 
REMARK    7  A    between atoms: C27_13  and  P24_17 
REMARK    8  A    between atoms: C28_14  and  C30_15 
REMARK    9  A    between atoms: C28_14  and  C29_16 
REMARK   10  A    between atoms: P24_17  and  C15_20 
REMARK   11  A    between atoms: C15_20  and  C1_21 
REMARK   12  A    between atoms: C1_21  and  C2_22 
REMARK   13  A    between atoms: C1_21  and  C3_25 
REMARK   14  A    between atoms: C7_30  and  C9_31 
REMARK   15  A    between atoms: C9_31  and  N10_32 
ROOT
ATOM      1  C27 059 d   1       4.056   4.734  12.508  0.00  0.00     0.097 C 
ATOM      2  H11 059 d   1       3.747   5.310  13.393  0.00  0.00     0.090 H 
ENDROOT
BRANCH   1   3
ATOM      3  N31 059 d   1       2.855   4.380  11.830  0.00  0.00    -0.304 N 
ATOM      4  H10 059 d   1       2.925   3.725  11.077  0.00  0.00     0.173 HD
BRANCH   3   5
ATOM      5  S32 059 d   1       1.332   4.978  12.198  0.00  0.00     0.227 S 
ATOM      6  O32 059 d   1       1.411   5.917  13.364  0.00  0.00    -0.206 OA
ATOM      7  O33 059 d   1       0.419   3.833  12.539  0.00  0.00    -0.206 OA
BRANCH   5   8
ATOM      8  C33 059 d   1       0.717   5.886  10.742  0.00  0.00     0.050 C 
ATOM      9  H8  059 d   1       1.419   6.707  10.531  0.00  0.00     0.059 H 
ATOM     10  H9  059 d   1       0.700   5.191   9.890  0.00  0.00     0.059 H 
BRANCH   8  11
ATOM     11  C34 059 d   1      -0.687   6.488  10.893  0.00  0.00    -0.027 C 
ATOM     12  H6  059 d   1      -0.864   6.712  11.955  0.00  0.00     0.041 H 
ATOM     13  H7  059 d   1      -0.738   7.419  10.309  0.00  0.00     0.041 H 
BRANCH  11  14
ATOM     14  C35 059 d   1      -1.781   5.535  10.400  0.00  0.00    -0.057 A 
ATOM     15  C36 059 d   1      -1.962   5.326   9.004  0.00  0.00    -0.077 A 
ATOM     16  C37 059 d   1      -3.002   4.486   8.538  0.00  0.00    -0.082 A 
ATOM     17  H1  059 d   1      -1.301   5.812   8.295  0.00  0.00     0.084 H 
ATOM     18  C38 059 d   1      -3.864   3.852   9.469  0.00  0.00    -0.083 A 
ATOM     19  H2  059 d   1      -3.139   4.328   7.474  0.00  0.00     0.083 H 
ATOM     20  C39 059 d   1      -3.684   4.057  10.863  0.00  0.00    -0.082 A 
ATOM     21  H3  059 d   1      -4.662   3.209   9.116  0.00  0.00     0.083 H 
ATOM     22  C40 059 d   1      -2.642   4.898  11.329  0.00  0.00    -0.077 A 
ATOM     23  H4  059 d   1      -4.344   3.570  11.572  0.00  0.00     0.083 H 
ATOM     24  H5  059 d   1      -2.504   5.054  12.393  0.00  0.00     0.084 H 
ENDBRANCH  11  14
ENDBRANCH   8  11
ENDBRANCH   5   8
ENDBRANCH   3   5
ENDBRANCH   1   3
BRANCH   1  25
ATOM     25  C28 059 d   1       4.776   3.480  13.062  0.00  0.00    -0.032 C 
ATOM     26  H12 059 d   1       5.756   3.798  13.448  0.00  0.00     0.042 H 
BRANCH  25  27
ATOM     27  C30 059 d   1       5.013   2.401  11.997  0.00  0.00    -0.071 C 
ATOM     28  H13 059 d   1       5.526   1.542  12.454  0.00  0.00     0.028 H 
ATOM     29  H14 059 d   1       5.636   2.813  11.190  0.00  0.00     0.028 H 
ATOM     30  H15 059 d   1       4.047   2.075  11.584  0.00  0.00     0.028 H 
ENDBRANCH  25  27
BRANCH  25  31
ATOM     31  C29 059 d   1       3.967   2.877  14.218  0.00  0.00    -0.071 C 
ATOM     32  H16 059 d   1       3.794   3.646  14.985  0.00  0.00     0.028 H 
ATOM     33  H17 059 d   1       4.527   2.039  14.659  0.00  0.00     0.028 H 
ATOM     34  H18 059 d   1       3.001   2.514  13.839  0.00  0.00     0.028 H 
ENDBRANCH  25  31
ENDBRANCH   1  25
BRANCH   1  35
ATOM     35  P24 059 d   1       5.120   5.893  11.519  0.00  0.00     0.131 P 
ATOM     36  O25 059 d   1       6.379   6.075  12.264  0.00  0.00    -0.666 OA
ATOM     37  O26 059 d   1       4.254   7.086  11.270  0.00  0.00    -0.666 OA
BRANCH  35  38
ATOM     38  C15 059 d   1       5.467   5.079   9.914  0.00  0.00     0.025 C 
ATOM     39  H19 059 d   1       4.555   4.579   9.556  0.00  0.00     0.050 H 
ATOM     40  H20 059 d   1       6.264   4.334  10.050  0.00  0.00     0.050 H 
BRANCH  38  41
ATOM     41  C1  059 d   1       5.922   6.131   8.861  0.00  0.00     0.065 C 
ATOM     42  H21 059 d   1       6.715   6.745   9.312  0.00  0.00     0.065 H 
BRANCH  41  43
ATOM     43  C2  059 d   1       4.756   7.051   8.431  0.00  0.00     0.182 C 
ATOM     44  O14 059 d   1       5.042   8.243   8.178  0.00  0.00    -0.647 OA
ATOM     45  O13 059 d   1       3.615   6.532   8.345  0.00  0.00    -0.647 OA
ENDBRANCH  41  43
BRANCH  41  46
ATOM     46  C3  059 d   1       6.469   5.462   7.590  0.00  0.00    -0.043 A 
ATOM     47  C8  059 d   1       7.690   5.920   7.054  0.00  0.00    -0.068 A 
ATOM     48  C7  059 d   1       8.138   5.435   5.803  0.00  0.00    -0.033 A 
ATOM     49  H22 059 d   1       8.285   6.643   7.600  0.00  0.00     0.085 H 
ATOM     50  C6  059 d   1       7.368   4.487   5.094  0.00  0.00    -0.075 A 
ATOM     51  C5  059 d   1       6.147   4.018   5.632  0.00  0.00    -0.082 A 
ATOM     52  H25 059 d   1       7.714   4.118   4.135  0.00  0.00     0.084 H 
ATOM     53  C4  059 d   1       5.695   4.500   6.881  0.00  0.00    -0.076 A 
ATOM     54  H24 059 d   1       5.558   3.289   5.087  0.00  0.00     0.083 H 
ATOM     55  H23 059 d   1       4.762   4.138   7.298  0.00  0.00     0.084 H 
BRANCH  48  56
ATOM     56  C9  059 d   1       9.440   5.954   5.213  0.00  0.00     0.103 C 
ATOM     57  H26 059 d   1       9.866   5.197   4.538  0.00  0.00     0.082 H 
ATOM     58  H27 059 d   1      10.153   6.165   6.024  0.00  0.00     0.082 H 
BRANCH  56  59
ATOM     59  N10 059 d   1       9.172   7.188   4.460  0.00  0.00    -0.075 N 
ATOM     60  H28 059 d   1      10.033   7.535   4.067  0.00  0.00     0.274 HD
ATOM     61  H29 059 d   1       8.781   7.881   5.079  0.00  0.00     0.274 HD
ATOM     62  H30 059 d   1       8.518   6.994   3.718  0.00  0.00     0.274 HD
ENDBRANCH  56  59
ENDBRANCH  48  56
ENDBRANCH  41  46
ENDBRANCH  38  41
ENDBRANCH  35  38
ENDBRANCH   1  35
TORSDOF 15
