REMARK  13 active torsions:
REMARK  status: ('A' for Active; 'I' for Inactive)
REMARK    1  A    between atoms: C34_6  and  S32_7 
REMARK    2  A    between atoms: S32_7  and  N31_10 
REMARK    3  A    between atoms: N31_10  and  C27_11 
REMARK    4  A    between atoms: C27_11  and  C28_12 
REMARK    5  A    between atoms: C27_11  and  P24_15 
REMARK    6  A    between atoms: C28_12  and  C30_13 
REMARK    7  A    between atoms: C28_12  and  C29_14 
REMARK    8  A    between atoms: P24_15  and  C15_18 
REMARK    9  A    between atoms: C15_18  and  C1_19 
REMARK   10  A    between atoms: C1_19  and  C2_20 
REMARK   11  A    between atoms: C1_19  and  C3_23 
REMARK   12  A    between atoms: C7_28  and  C9_29 
REMARK   13  A    between atoms: C9_29  and  N10_30 
ROOT
ATOM      1  C27 235 d   1      34.968  14.685  61.794  0.00  0.00     0.097 C 
ATOM      2  H7  235 d   1      33.982  14.591  62.272  0.00  0.00     0.090 H 
ENDROOT
BRANCH   1   3
ATOM      3  N31 235 d   1      35.921  14.899  62.820  0.00  0.00    -0.300 N 
ATOM      4  H6  235 d   1      36.886  14.921  62.559  0.00  0.00     0.173 HD
BRANCH   3   5
ATOM      5  S32 235 d   1      35.554  15.116  64.423  0.00  0.00     0.259 S 
ATOM      6  O33 235 d   1      35.394  16.521  64.684  0.00  0.00    -0.201 OA
ATOM      7  O32 235 d   1      34.280  14.400  64.750  0.00  0.00    -0.201 OA
BRANCH   5   8
ATOM      8  C34 235 d   1      36.836  14.482  65.439  0.00  0.00     0.079 A 
ATOM      9  C35 235 d   1      37.230  15.186  66.611  0.00  0.00    -0.060 A 
ATOM     10  C36 235 d   1      38.248  14.662  67.449  0.00  0.00    -0.082 A 
ATOM     11  H1  235 d   1      36.751  16.125  66.864  0.00  0.00     0.085 H 
ATOM     12  C37 235 d   1      38.875  13.433  67.115  0.00  0.00    -0.083 A 
ATOM     13  H2  235 d   1      38.546  15.199  68.342  0.00  0.00     0.083 H 
ATOM     14  C38 235 d   1      38.481  12.731  65.946  0.00  0.00    -0.082 A 
ATOM     15  H3  235 d   1      39.654  13.031  67.752  0.00  0.00     0.083 H 
ATOM     16  C39 235 d   1      37.462  13.255  65.109  0.00  0.00    -0.060 A 
ATOM     17  H4  235 d   1      38.960  11.792  65.692  0.00  0.00     0.083 H 
ATOM     18  H5  235 d   1      37.163  12.716  64.217  0.00  0.00     0.085 H 
ENDBRANCH   5   8
ENDBRANCH   3   5
ENDBRANCH   1   3
BRANCH   1  19
ATOM     19  C28 235 d   1      34.883  15.904  60.828  0.00  0.00    -0.032 C 
ATOM     20  H8  235 d   1      34.233  15.616  59.988  0.00  0.00     0.042 H 
BRANCH  19  21
ATOM     21  C30 235 d   1      36.239  16.313  60.252  0.00  0.00    -0.071 C 
ATOM     22  H9  235 d   1      36.108  17.175  59.582  0.00  0.00     0.028 H 
ATOM     23  H10 235 d   1      36.666  15.471  59.687  0.00  0.00     0.028 H 
ATOM     24  H11 235 d   1      36.919  16.587  61.073  0.00  0.00     0.028 H 
ENDBRANCH  19  21
BRANCH  19  25
ATOM     25  C29 235 d   1      34.253  17.111  61.534  0.00  0.00    -0.071 C 
ATOM     26  H12 235 d   1      33.277  16.823  61.951  0.00  0.00     0.028 H 
ATOM     27  H13 235 d   1      34.116  17.929  60.811  0.00  0.00     0.028 H 
ATOM     28  H14 235 d   1      34.914  17.447  62.347  0.00  0.00     0.028 H 
ENDBRANCH  19  25
ENDBRANCH   1  19
BRANCH   1  29
ATOM     29  P24 235 d   1      35.314  13.085  60.952  0.00  0.00     0.131 P 
ATOM     30  O25 235 d   1      34.356  12.970  59.827  0.00  0.00    -0.666 OA
ATOM     31  O26 235 d   1      35.204  12.079  62.041  0.00  0.00    -0.666 OA
BRANCH  29  32
ATOM     32  C15 235 d   1      36.996  12.958  60.246  0.00  0.00     0.025 C 
ATOM     33  H15 235 d   1      37.711  13.394  60.960  0.00  0.00     0.050 H 
ATOM     34  H16 235 d   1      37.026  13.525  59.304  0.00  0.00     0.050 H 
BRANCH  32  35
ATOM     35  C1  235 d   1      37.415  11.494  59.956  0.00  0.00     0.065 C 
ATOM     36  H17 235 d   1      36.621  11.027  59.355  0.00  0.00     0.065 H 
BRANCH  35  37
ATOM     37  C2  235 d   1      37.614  10.657  61.244  0.00  0.00     0.182 C 
ATOM     38  O14 235 d   1      37.341   9.444  61.164  0.00  0.00    -0.647 OA
ATOM     39  O13 235 d   1      38.061  11.244  62.260  0.00  0.00    -0.647 OA
ENDBRANCH  35  37
BRANCH  35  40
ATOM     40  C3  235 d   1      38.738  11.452  59.161  0.00  0.00    -0.043 A 
ATOM     41  C8  235 d   1      38.804  10.669  57.988  0.00  0.00    -0.068 A 
ATOM     42  C7  235 d   1      40.032  10.522  57.300  0.00  0.00    -0.033 A 
ATOM     43  H18 235 d   1      37.912  10.179  57.614  0.00  0.00     0.085 H 
ATOM     44  C6  235 d   1      41.199  11.165  57.783  0.00  0.00    -0.075 A 
ATOM     45  C5  235 d   1      41.140  11.957  58.956  0.00  0.00    -0.082 A 
ATOM     46  H21 235 d   1      42.138  11.051  57.254  0.00  0.00     0.084 H 
ATOM     47  C4  235 d   1      39.914  12.105  59.644  0.00  0.00    -0.076 A 
ATOM     48  H20 235 d   1      42.033  12.448  59.325  0.00  0.00     0.083 H 
ATOM     49  H19 235 d   1      39.866  12.715  60.539  0.00  0.00     0.084 H 
BRANCH  42  50
ATOM     50  C9  235 d   1      40.096   9.656  56.042  0.00  0.00     0.103 C 
ATOM     51  H22 235 d   1      40.950   9.969  55.423  0.00  0.00     0.082 H 
ATOM     52  H23 235 d   1      39.165   9.771  55.468  0.00  0.00     0.082 H 
BRANCH  50  53
ATOM     53  N10 235 d   1      40.262   8.247  56.434  0.00  0.00    -0.075 N 
ATOM     54  H24 235 d   1      40.305   7.671  55.608  0.00  0.00     0.274 HD
ATOM     55  H25 235 d   1      39.480   7.962  57.002  0.00  0.00     0.274 HD
ATOM     56  H26 235 d   1      41.115   8.143  56.961  0.00  0.00     0.274 HD
ENDBRANCH  50  53
ENDBRANCH  42  50
ENDBRANCH  35  40
ENDBRANCH  32  35
ENDBRANCH  29  32
ENDBRANCH   1  29
TORSDOF 13
