REMARK  14 active torsions:
REMARK  status: ('A' for Active; 'I' for Inactive)
REMARK    1  A    between atoms: C40_6  and  C37_7 
REMARK    2  A    between atoms: C34_12  and  S32_13 
REMARK    3  A    between atoms: S32_13  and  N31_16 
REMARK    4  A    between atoms: N31_16  and  C27_17 
REMARK    5  A    between atoms: C27_17  and  C28_18 
REMARK    6  A    between atoms: C27_17  and  P24_21 
REMARK    7  A    between atoms: C28_18  and  C30_19 
REMARK    8  A    between atoms: C28_18  and  C29_20 
REMARK    9  A    between atoms: P24_21  and  C15_24 
REMARK   10  A    between atoms: C15_24  and  C1_25 
REMARK   11  A    between atoms: C1_25  and  C2_26 
REMARK   12  A    between atoms: C1_25  and  C3_29 
REMARK   13  A    between atoms: C7_34  and  C9_35 
REMARK   14  A    between atoms: C9_35  and  N10_36 
ROOT
ATOM      1  C27 17A d   1      35.105  14.615  61.608  0.00  0.00     0.097 C 
ATOM      2  H11 17A d   1      34.146  14.540  62.141  0.00  0.00     0.090 H 
ENDROOT
BRANCH   1   3
ATOM      3  N31 17A d   1      36.096  14.883  62.554  0.00  0.00    -0.300 N 
ATOM      4  H10 17A d   1      37.016  15.100  62.227  0.00  0.00     0.173 HD
BRANCH   3   5
ATOM      5  S32 17A d   1      35.826  14.860  64.222  0.00  0.00     0.259 S 
ATOM      6  O33 17A d   1      34.473  14.431  64.493  0.00  0.00    -0.201 OA
ATOM      7  O32 17A d   1      36.791  13.897  64.855  0.00  0.00    -0.201 OA
BRANCH   5   8
ATOM      8  C34 17A d   1      36.088  16.461  64.873  0.00  0.00     0.079 A 
ATOM      9  C39 17A d   1      37.403  16.883  65.193  0.00  0.00    -0.059 A 
ATOM     10  C38 17A d   1      37.627  18.187  65.700  0.00  0.00    -0.071 A 
ATOM     11  H7  17A d   1      38.238  16.207  65.050  0.00  0.00     0.085 H 
ATOM     12  C37 17A d   1      36.535  19.092  65.890  0.00  0.00    -0.026 A 
ATOM     13  H6  17A d   1      38.635  18.502  65.946  0.00  0.00     0.084 H 
ATOM     14  C36 17A d   1      35.213  18.649  65.561  0.00  0.00    -0.071 A 
ATOM     15  C35 17A d   1      34.995  17.344  65.059  0.00  0.00    -0.059 A 
ATOM     16  H8  17A d   1      34.372  19.319  65.698  0.00  0.00     0.084 H 
ATOM     17  H9  17A d   1      33.990  17.019  64.816  0.00  0.00     0.085 H 
BRANCH  12  18
ATOM     18  C40 17A d   1      36.772  20.442  66.303  0.00  0.00    -0.026 A 
ATOM     19  C41 17A d   1      37.970  20.789  67.012  0.00  0.00    -0.072 A 
ATOM     20  C42 17A d   1      38.261  22.141  67.315  0.00  0.00    -0.082 A 
ATOM     21  H1  17A d   1      38.658  20.009  67.318  0.00  0.00     0.084 H 
ATOM     22  C43 17A d   1      37.365  23.166  66.915  0.00  0.00    -0.083 A 
ATOM     23  H2  17A d   1      39.168  22.393  67.852  0.00  0.00     0.083 H 
ATOM     24  C44 17A d   1      36.176  22.843  66.214  0.00  0.00    -0.082 A 
ATOM     25  H3  17A d   1      37.591  24.201  67.147  0.00  0.00     0.083 H 
ATOM     26  C45 17A d   1      35.878  21.491  65.911  0.00  0.00    -0.072 A 
ATOM     27  H4  17A d   1      35.495  23.630  65.910  0.00  0.00     0.083 H 
ATOM     28  H5  17A d   1      34.966  21.248  65.378  0.00  0.00     0.084 H 
ENDBRANCH  12  18
ENDBRANCH   5   8
ENDBRANCH   3   5
ENDBRANCH   1   3
BRANCH   1  29
ATOM     29  C28 17A d   1      34.973  15.796  60.612  0.00  0.00    -0.032 C 
ATOM     30  H12 17A d   1      34.265  15.495  59.826  0.00  0.00     0.042 H 
BRANCH  29  31
ATOM     31  C30 17A d   1      36.298  16.172  59.937  0.00  0.00    -0.071 C 
ATOM     32  H13 17A d   1      36.132  17.012  59.247  0.00  0.00     0.028 H 
ATOM     33  H14 17A d   1      36.682  15.307  59.376  0.00  0.00     0.028 H 
ATOM     34  H15 17A d   1      37.030  16.466  60.704  0.00  0.00     0.028 H 
ENDBRANCH  29  31
BRANCH  29  35
ATOM     35  C29 17A d   1      34.413  17.028  61.331  0.00  0.00    -0.071 C 
ATOM     36  H16 17A d   1      33.462  16.767  61.818  0.00  0.00     0.028 H 
ATOM     37  H17 17A d   1      34.242  17.833  60.601  0.00  0.00     0.028 H 
ATOM     38  H18 17A d   1      35.133  17.368  62.090  0.00  0.00     0.028 H 
ENDBRANCH  29  35
ENDBRANCH   1  29
BRANCH   1  39
ATOM     39  P24 17A d   1      35.409  12.973  60.818  0.00  0.00     0.131 P 
ATOM     40  O25 17A d   1      34.472  12.842  59.694  0.00  0.00    -0.666 OA
ATOM     41  O26 17A d   1      35.284  12.012  61.937  0.00  0.00    -0.666 OA
BRANCH  39  42
ATOM     42  C15 17A d   1      37.092  12.817  60.131  0.00  0.00     0.025 C 
ATOM     43  H19 17A d   1      37.808  13.227  60.859  0.00  0.00     0.050 H 
ATOM     44  H20 17A d   1      37.145  13.396  59.197  0.00  0.00     0.050 H 
BRANCH  42  45
ATOM     45  C1  17A d   1      37.483  11.352  59.826  0.00  0.00     0.065 C 
ATOM     46  H21 17A d   1      36.690  10.901  59.212  0.00  0.00     0.065 H 
BRANCH  45  47
ATOM     47  C2  17A d   1      37.663  10.506  61.107  0.00  0.00     0.182 C 
ATOM     48  O14 17A d   1      37.415   9.287  61.010  0.00  0.00    -0.647 OA
ATOM     49  O13 17A d   1      38.070  11.095  62.137  0.00  0.00    -0.647 OA
ENDBRANCH  45  47
BRANCH  45  50
ATOM     50  C3  17A d   1      38.813  11.321  59.048  0.00  0.00    -0.043 A 
ATOM     51  C8  17A d   1      38.879  10.619  57.827  0.00  0.00    -0.068 A 
ATOM     52  C7  17A d   1      40.108  10.521  57.134  0.00  0.00    -0.033 A 
ATOM     53  H22 17A d   1      37.988  10.155  57.420  0.00  0.00     0.085 H 
ATOM     54  C6  17A d   1      41.273  11.138  57.657  0.00  0.00    -0.075 A 
ATOM     55  C5  17A d   1      41.209  11.845  58.878  0.00  0.00    -0.082 A 
ATOM     56  H25 17A d   1      42.212  11.067  57.120  0.00  0.00     0.084 H 
ATOM     57  C4  17A d   1      39.984  11.938  59.574  0.00  0.00    -0.076 A 
ATOM     58  H24 17A d   1      42.099  12.316  59.280  0.00  0.00     0.083 H 
ATOM     59  H23 17A d   1      39.935  12.480  60.511  0.00  0.00     0.084 H 
BRANCH  52  60
ATOM     60  C9  17A d   1      40.193   9.689  55.866  0.00  0.00     0.103 C 
ATOM     61  H26 17A d   1      41.079   9.986  55.286  0.00  0.00     0.082 H 
ATOM     62  H27 17A d   1      39.289   9.844  55.259  0.00  0.00     0.082 H 
BRANCH  60  63
ATOM     63  N10 17A d   1      40.300   8.270  56.243  0.00  0.00    -0.075 N 
ATOM     64  H28 17A d   1      40.357   7.705  55.410  0.00  0.00     0.274 HD
ATOM     65  H29 17A d   1      39.488   8.002  56.776  0.00  0.00     0.274 HD
ATOM     66  H30 17A d   1      41.128   8.132  56.800  0.00  0.00     0.274 HD
ENDBRANCH  60  63
ENDBRANCH  52  60
ENDBRANCH  45  50
ENDBRANCH  42  45
ENDBRANCH  39  42
ENDBRANCH   1  39
TORSDOF 14
