REMARK  13 active torsions:
REMARK  status: ('A' for Active; 'I' for Inactive)
REMARK    1  A    between atoms: C34_9  and  S32_10 
REMARK    2  A    between atoms: S32_10  and  N31_13 
REMARK    3  A    between atoms: N31_13  and  C27_14 
REMARK    4  A    between atoms: C27_14  and  C28_15 
REMARK    5  A    between atoms: C27_14  and  P24_18 
REMARK    6  A    between atoms: C28_15  and  C30_16 
REMARK    7  A    between atoms: C28_15  and  C29_17 
REMARK    8  A    between atoms: P24_18  and  C15_21 
REMARK    9  A    between atoms: C15_21  and  C1_22 
REMARK   10  A    between atoms: C1_22  and  C2_23 
REMARK   11  A    between atoms: C1_22  and  C3_26 
REMARK   12  A    between atoms: C7_31  and  C9_32 
REMARK   13  A    between atoms: C9_32  and  N10_33 
ROOT
ATOM      1  C27 281 d   1      34.167   3.800  12.688  0.00  0.00     0.097 C 
ATOM      2  H5  281 d   1      33.643   3.461  13.593  0.00  0.00     0.090 H 
ENDROOT
BRANCH   1   3
ATOM      3  N31 281 d   1      34.368   2.637  11.883  0.00  0.00    -0.300 N 
ATOM      4  H4  281 d   1      34.792   2.686  10.979  0.00  0.00     0.173 HD
BRANCH   3   5
ATOM      5  S32 281 d   1      33.847   1.177  12.548  0.00  0.00     0.262 S 
ATOM      6  O33 281 d   1      33.038   1.395  13.709  0.00  0.00    -0.200 OA
ATOM      7  O32 281 d   1      33.069   0.440  11.509  0.00  0.00    -0.200 OA
BRANCH   5   8
ATOM      8  C34 281 d   1      35.245   0.226  12.994  0.00  0.00     0.111 A 
ATOM      9  C35 281 d   1      36.079  -0.305  11.983  0.00  0.00     0.119 A 
ATOM     10  N42 281 d   1      35.936  -0.224  10.648  0.00  0.00    -0.190 NA
ATOM     11  C36 281 d   1      37.271  -1.060  12.380  0.00  0.00     0.098 A 
ATOM     12  S41 281 d   1      37.197  -1.025   9.989  0.00  0.00     0.117 SA
ATOM     13  N40 281 d   1      37.975  -1.509  11.321  0.00  0.00    -0.191 NA
ATOM     14  C37 281 d   1      37.544  -1.235  13.761  0.00  0.00    -0.052 A 
ATOM     15  C38 281 d   1      36.695  -0.697  14.751  0.00  0.00    -0.079 A 
ATOM     16  H1  281 d   1      38.423  -1.794  14.062  0.00  0.00     0.087 H 
ATOM     17  C39 281 d   1      35.549   0.031  14.366  0.00  0.00    -0.058 A 
ATOM     18  H2  281 d   1      36.922  -0.842  15.801  0.00  0.00     0.083 H 
ATOM     19  H3  281 d   1      34.895   0.445  15.125  0.00  0.00     0.086 H 
ENDBRANCH   5   8
ENDBRANCH   3   5
ENDBRANCH   1   3
BRANCH   1  20
ATOM     20  C28 281 d   1      35.472   4.478  13.193  0.00  0.00    -0.032 C 
ATOM     21  H6  281 d   1      35.221   5.498  13.520  0.00  0.00     0.042 H 
BRANCH  20  22
ATOM     22  C30 281 d   1      36.539   4.574  12.094  0.00  0.00    -0.071 C 
ATOM     23  H7  281 d   1      37.440   5.059  12.499  0.00  0.00     0.028 H 
ATOM     24  H8  281 d   1      36.148   5.168  11.255  0.00  0.00     0.028 H 
ATOM     25  H9  281 d   1      36.794   3.564  11.741  0.00  0.00     0.028 H 
ENDBRANCH  20  22
BRANCH  20  26
ATOM     26  C29 281 d   1      36.048   3.709  14.387  0.00  0.00    -0.071 C 
ATOM     27  H10 281 d   1      35.287   3.637  15.178  0.00  0.00     0.028 H 
ATOM     28  H11 281 d   1      36.930   4.240  14.774  0.00  0.00     0.028 H 
ATOM     29  H12 281 d   1      36.340   2.698  14.066  0.00  0.00     0.028 H 
ENDBRANCH  20  26
ENDBRANCH   1  20
BRANCH   1  30
ATOM     30  P24 281 d   1      33.008   4.977  11.812  0.00  0.00     0.131 P 
ATOM     31  O25 281 d   1      32.909   6.258  12.546  0.00  0.00    -0.666 OA
ATOM     32  O26 281 d   1      31.778   4.176  11.614  0.00  0.00    -0.666 OA
BRANCH  30  33
ATOM     33  C15 281 d   1      33.764   5.325  10.176  0.00  0.00     0.025 C 
ATOM     34  H13 281 d   1      34.224   4.403   9.792  0.00  0.00     0.050 H 
ATOM     35  H14 281 d   1      34.537   6.098  10.297  0.00  0.00     0.050 H 
BRANCH  33  36
ATOM     36  C1  281 d   1      32.701   5.829   9.144  0.00  0.00     0.065 C 
ATOM     37  H15 281 d   1      32.125   6.640   9.614  0.00  0.00     0.065 H 
BRANCH  36  38
ATOM     38  C2  281 d   1      31.727   4.709   8.719  0.00  0.00     0.182 C 
ATOM     39  O14 281 d   1      30.563   5.055   8.436  0.00  0.00    -0.647 OA
ATOM     40  O13 281 d   1      32.173   3.536   8.665  0.00  0.00    -0.647 OA
ENDBRANCH  36  38
BRANCH  36  41
ATOM     41  C3  281 d   1      33.382   6.371   7.863  0.00  0.00    -0.043 A 
ATOM     42  C8  281 d   1      32.948   7.606   7.319  0.00  0.00    -0.068 A 
ATOM     43  C7  281 d   1      33.486   8.068   6.084  0.00  0.00    -0.033 A 
ATOM     44  H16 281 d   1      32.207   8.199   7.843  0.00  0.00     0.085 H 
ATOM     45  C6  281 d   1      34.460   7.296   5.399  0.00  0.00    -0.075 A 
ATOM     46  C5  281 d   1      34.900   6.066   5.944  0.00  0.00    -0.082 A 
ATOM     47  H19 281 d   1      34.867   7.648   4.458  0.00  0.00     0.084 H 
ATOM     48  C4  281 d   1      34.366   5.604   7.170  0.00  0.00    -0.076 A 
ATOM     49  H18 281 d   1      35.646   5.478   5.422  0.00  0.00     0.083 H 
ATOM     50  H17 281 d   1      34.706   4.662   7.585  0.00  0.00     0.084 H 
BRANCH  43  51
ATOM     51  C9  281 d   1      33.024   9.397   5.494  0.00  0.00     0.103 C 
ATOM     52  H20 281 d   1      33.881   9.913   5.036  0.00  0.00     0.082 H 
ATOM     53  H21 281 d   1      32.601  10.025   6.292  0.00  0.00     0.082 H 
BRANCH  51  54
ATOM     54  N10 281 d   1      31.997   9.147   4.470  0.00  0.00    -0.075 N 
ATOM     55  H22 281 d   1      31.691  10.025   4.080  0.00  0.00     0.274 HD
ATOM     56  H23 281 d   1      31.212   8.674   4.890  0.00  0.00     0.274 HD
ATOM     57  H24 281 d   1      32.384   8.571   3.739  0.00  0.00     0.274 HD
ENDBRANCH  51  54
ENDBRANCH  43  51
ENDBRANCH  36  41
ENDBRANCH  33  36
ENDBRANCH  30  33
ENDBRANCH   1  30
TORSDOF 13
