REMARK  17 active torsions:
REMARK  status: ('A' for Active; 'I' for Inactive)
REMARK    1  A    between atoms: C48_6  and  C47_7 
REMARK    2  A    between atoms: C47_7  and  O46_8 
REMARK    3  A    between atoms: O46_8  and  C44_9 
REMARK       I    between atoms: C44_9  and  N43_11 
REMARK    4  A    between atoms: N43_11  and  C34_12 
REMARK    5  A    between atoms: C34_12  and  C35_13 
REMARK    6  A    between atoms: C34_12  and  C32_20 
REMARK    7  A    between atoms: C35_13  and  C36_14 
REMARK       I    between atoms: C32_20  and  N31_22 
REMARK    8  A    between atoms: N31_22  and  C27_23 
REMARK    9  A    between atoms: C27_23  and  C28_24 
REMARK   10  A    between atoms: C27_23  and  P24_27 
REMARK   11  A    between atoms: C28_24  and  C30_25 
REMARK   12  A    between atoms: C28_24  and  C29_26 
REMARK   13  A    between atoms: P24_27  and  C23_30 
REMARK   14  A    between atoms: C23_30  and  C1_31 
REMARK   15  A    between atoms: C1_31  and  C2_32 
REMARK   16  A    between atoms: C1_31  and  C3_35 
REMARK   17  A    between atoms: C7_40  and  N9_41 
REMARK       I    between atoms: N9_41  and  C10_42 
REMARK       I    between atoms: C10_42  and  N12_43 
ROOT
ATOM      1  C27 33Z d   1      35.131  14.376  61.461  0.00  0.00     0.090 C 
ATOM      2  H18 33Z d   1      34.122  14.332  61.897  0.00  0.00     0.089 H 
ENDROOT
BRANCH   1   3
ATOM      3  N31 33Z d   1      36.059  14.475  62.606  0.00  0.00    -0.345 N 
ATOM      4  C32 33Z d   1      35.622  14.389  63.869  0.00  0.00     0.241 C 
ATOM      5  O33 33Z d   1      34.436  14.273  64.194  0.00  0.00    -0.271 OA
ATOM      6  H17 33Z d   1      37.035  14.609  62.434  0.00  0.00     0.163 HD
BRANCH   4   7
ATOM      7  C34 33Z d   1      36.706  14.520  64.948  0.00  0.00     0.095 C 
ATOM      8  H9  33Z d   1      37.642  14.874  64.493  0.00  0.00     0.088 H 
BRANCH   7   9
ATOM      9  N43 33Z d   1      36.244  15.504  65.963  0.00  0.00    -0.323 N 
ATOM     10  C44 33Z d   1      36.222  16.826  65.720  0.00  0.00     0.361 C 
ATOM     11  O45 33Z d   1      35.764  17.642  66.530  0.00  0.00    -0.238 OA
ATOM     12  H8  33Z d   1      35.940  15.171  66.856  0.00  0.00     0.165 HD
BRANCH  10  13
ATOM     13  O46 33Z d   1      36.678  17.233  64.484  0.00  0.00    -0.299 OA
BRANCH  13  14
ATOM     14  C47 33Z d   1      36.692  18.652  64.216  0.00  0.00     0.054 C 
ATOM     15  H6  33Z d   1      35.647  18.994  64.196  0.00  0.00     0.082 H 
ATOM     16  H7  33Z d   1      37.221  19.140  65.048  0.00  0.00     0.082 H 
BRANCH  14  17
ATOM     17  C48 33Z d   1      37.293  19.075  63.033  0.00  0.00    -0.034 A 
ATOM     18  C49 33Z d   1      38.615  18.650  62.723  0.00  0.00    -0.075 A 
ATOM     19  C50 33Z d   1      39.212  19.024  61.492  0.00  0.00    -0.082 A 
ATOM     20  H1  33Z d   1      39.167  18.040  63.429  0.00  0.00     0.084 H 
ATOM     21  C51 33Z d   1      38.488  19.824  60.572  0.00  0.00    -0.083 A 
ATOM     22  H2  33Z d   1      40.219  18.699  61.255  0.00  0.00     0.083 H 
ATOM     23  C52 33Z d   1      37.171  20.252  60.883  0.00  0.00    -0.082 A 
ATOM     24  H3  33Z d   1      38.941  20.109  59.630  0.00  0.00     0.083 H 
ATOM     25  C53 33Z d   1      36.572  19.878  62.113  0.00  0.00    -0.075 A 
ATOM     26  H4  33Z d   1      36.622  20.866  60.179  0.00  0.00     0.083 H 
ATOM     27  H5  33Z d   1      35.566  20.205  62.349  0.00  0.00     0.084 H 
ENDBRANCH  14  17
ENDBRANCH  13  14
ENDBRANCH  10  13
ENDBRANCH   7   9
BRANCH   7  28
ATOM     28  C35 33Z d   1      36.943  13.152  65.597  0.00  0.00    -0.014 C 
ATOM     29  H10 33Z d   1      37.212  12.428  64.814  0.00  0.00     0.043 H 
ATOM     30  H11 33Z d   1      36.016  12.828  66.093  0.00  0.00     0.043 H 
BRANCH  28  31
ATOM     31  C36 33Z d   1      38.073  13.202  66.637  0.00  0.00    -0.056 A 
ATOM     32  C37 33Z d   1      39.428  13.292  66.220  0.00  0.00    -0.077 A 
ATOM     33  C38 33Z d   1      40.467  13.324  67.184  0.00  0.00    -0.082 A 
ATOM     34  H12 33Z d   1      39.668  13.336  65.164  0.00  0.00     0.084 H 
ATOM     35  C41 33Z d   1      40.155  13.267  68.567  0.00  0.00    -0.083 A 
ATOM     36  H13 33Z d   1      41.501  13.392  66.864  0.00  0.00     0.083 H 
ATOM     37  C40 33Z d   1      38.803  13.178  68.988  0.00  0.00    -0.082 A 
ATOM     38  H14 33Z d   1      40.951  13.291  69.303  0.00  0.00     0.083 H 
ATOM     39  C39 33Z d   1      37.761  13.146  68.021  0.00  0.00    -0.077 A 
ATOM     40  H15 33Z d   1      38.565  13.134  70.045  0.00  0.00     0.083 H 
ATOM     41  H16 33Z d   1      36.727  13.079  68.341  0.00  0.00     0.084 H 
ENDBRANCH  28  31
ENDBRANCH   7  28
ENDBRANCH   4   7
ENDBRANCH   1   3
BRANCH   1  42
ATOM     42  C28 33Z d   1      35.129  15.653  60.572  0.00  0.00    -0.032 C 
ATOM     43  H19 33Z d   1      34.593  15.410  59.643  0.00  0.00     0.042 H 
BRANCH  42  44
ATOM     44  C30 33Z d   1      36.527  16.141  60.189  0.00  0.00    -0.071 C 
ATOM     45  H20 33Z d   1      36.442  17.042  59.564  0.00  0.00     0.028 H 
ATOM     46  H21 33Z d   1      37.049  15.353  59.627  0.00  0.00     0.028 H 
ATOM     47  H22 33Z d   1      37.095  16.379  61.100  0.00  0.00     0.028 H 
ENDBRANCH  42  44
BRANCH  42  48
ATOM     48  C29 33Z d   1      34.379  16.784  61.286  0.00  0.00    -0.071 C 
ATOM     49  H23 33Z d   1      33.372  16.438  61.564  0.00  0.00     0.028 H 
ATOM     50  H24 33Z d   1      34.296  17.651  60.614  0.00  0.00     0.028 H 
ATOM     51  H25 33Z d   1      34.930  17.074  62.193  0.00  0.00     0.028 H 
ENDBRANCH  42  48
ENDBRANCH   1  42
BRANCH   1  52
ATOM     52  P24 33Z d   1      35.339  12.786  60.561  0.00  0.00     0.131 P 
ATOM     53  O25 33Z d   1      34.346  12.744  59.461  0.00  0.00    -0.666 OA
ATOM     54  O26 33Z d   1      35.266  11.741  61.614  0.00  0.00    -0.666 OA
BRANCH  52  55
ATOM     55  C23 33Z d   1      36.998  12.771  59.845  0.00  0.00     0.025 C 
ATOM     56  H26 33Z d   1      37.730  13.108  60.594  0.00  0.00     0.050 H 
ATOM     57  H27 33Z d   1      37.033  13.439  58.972  0.00  0.00     0.050 H 
BRANCH  55  58
ATOM     58  C1  33Z d   1      37.321  11.325  59.411  0.00  0.00     0.065 C 
ATOM     59  H28 33Z d   1      36.391  10.884  59.024  0.00  0.00     0.065 H 
BRANCH  58  60
ATOM     60  C2  33Z d   1      37.764  10.474  60.634  0.00  0.00     0.182 C 
ATOM     61  O14 33Z d   1      38.381  11.055  61.560  0.00  0.00    -0.647 OA
ATOM     62  O13 33Z d   1      37.420   9.271  60.633  0.00  0.00    -0.647 OA
ENDBRANCH  58  60
BRANCH  58  63
ATOM     63  C3  33Z d   1      38.374  11.274  58.244  0.00  0.00    -0.041 A 
ATOM     64  C8  33Z d   1      38.901  10.025  57.825  0.00  0.00    -0.050 A 
ATOM     65  C7  33Z d   1      39.765   9.936  56.689  0.00  0.00     0.049 A 
ATOM     66  H29 33Z d   1      38.645   9.126  58.374  0.00  0.00     0.087 H 
ATOM     67  C6  33Z d   1      40.106  11.106  55.974  0.00  0.00    -0.057 A 
ATOM     68  C5  33Z d   1      39.588  12.361  56.386  0.00  0.00    -0.080 A 
ATOM     69  H32 33Z d   1      40.762  11.045  55.113  0.00  0.00     0.086 H 
ATOM     70  C4  33Z d   1      38.730  12.447  57.511  0.00  0.00    -0.076 A 
ATOM     71  H31 33Z d   1      39.850  13.259  55.838  0.00  0.00     0.083 H 
ATOM     72  H30 33Z d   1      38.341  13.411  57.818  0.00  0.00     0.084 H 
BRANCH  65  73
ATOM     73  N9  33Z d   1      40.238   8.738  56.292  0.00  0.00    -0.193 N 
ATOM     74  C10 33Z d   1      41.114   8.035  57.037  0.00  0.00     0.669 C 
ATOM     75  N12 33Z d   1      41.580   8.527  58.191  0.00  0.00    -0.235 N 
ATOM     76  N11 33Z d   1      41.540   6.847  56.608  0.00  0.00    -0.235 N 
ATOM     77  H34 33Z d   1      42.249   7.980  58.751  0.00  0.00     0.174 HD
ATOM     78  H35 33Z d   1      41.270   9.453  58.519  0.00  0.00     0.174 HD
ATOM     79  H36 33Z d   1      41.185   6.462  55.721  0.00  0.00     0.174 HD
ATOM     80  H37 33Z d   1      42.224   6.314  57.164  0.00  0.00     0.174 HD
ATOM     81  H33 33Z d   1      39.921   8.348  55.393  0.00  0.00     0.184 HD
ENDBRANCH  65  73
ENDBRANCH  58  63
ENDBRANCH  55  58
ENDBRANCH  52  55
ENDBRANCH   1  52
TORSDOF 17
