REMARK  20 active torsions:
REMARK  status: ('A' for Active; 'I' for Inactive)
REMARK    1  A    between atoms: C48_6  and  C47_7 
REMARK    2  A    between atoms: C47_7  and  O46_8 
REMARK    3  A    between atoms: O46_8  and  C44_9 
REMARK       I    between atoms: C44_9  and  N43_11 
REMARK    4  A    between atoms: N43_11  and  C34_12 
REMARK    5  A    between atoms: C34_12  and  C35_13 
REMARK    6  A    between atoms: C34_12  and  C33_20 
REMARK    7  A    between atoms: C35_13  and  C36_14 
REMARK    8  A    between atoms: C33_20  and  S32_21 
REMARK    9  A    between atoms: S32_21  and  N31_24 
REMARK   10  A    between atoms: N31_24  and  C27_25 
REMARK   11  A    between atoms: C27_25  and  C28_26 
REMARK   12  A    between atoms: C27_25  and  P24_29 
REMARK   13  A    between atoms: C28_26  and  C30_27 
REMARK   14  A    between atoms: C28_26  and  C29_28 
REMARK   15  A    between atoms: P24_29  and  C15_32 
REMARK   16  A    between atoms: C15_32  and  C1_33 
REMARK   17  A    between atoms: C1_33  and  C2_34 
REMARK   18  A    between atoms: C1_33  and  C3_37 
REMARK   19  A    between atoms: C7_42  and  C9_43 
REMARK   20  A    between atoms: C9_43  and  N10_44 
ROOT
ATOM      1  N31 983 d   1      35.969  14.965  62.301  0.00  0.00    -0.304 N 
ATOM      2  H19 983 d   1      36.902  15.133  61.983  0.00  0.00     0.173 HD
ENDROOT
BRANCH   1   3
ATOM      3  S32 983 d   1      35.681  15.055  63.913  0.00  0.00     0.229 S 
ATOM      4  O32 983 d   1      34.272  14.629  64.199  0.00  0.00    -0.206 OA
ATOM      5  O33 983 d   1      35.888  16.464  64.383  0.00  0.00    -0.206 OA
BRANCH   3   6
ATOM      6  C33 983 d   1      36.822  13.947  64.805  0.00  0.00     0.065 C 
ATOM      7  H17 983 d   1      36.828  14.238  65.866  0.00  0.00     0.062 H 
ATOM      8  H18 983 d   1      36.449  12.916  64.709  0.00  0.00     0.062 H 
BRANCH   6   9
ATOM      9  C34 983 d   1      38.261  13.989  64.286  0.00  0.00     0.032 C 
ATOM     10  H9  983 d   1      38.265  13.702  63.224  0.00  0.00     0.074 H 
BRANCH   9  11
ATOM     11  N43 983 d   1      38.844  15.343  64.415  0.00  0.00    -0.331 N 
ATOM     12  C44 983 d   1      39.010  16.180  63.388  0.00  0.00     0.361 C 
ATOM     13  O45 983 d   1      38.675  15.894  62.223  0.00  0.00    -0.239 OA
ATOM     14  H8  983 d   1      39.130  15.649  65.323  0.00  0.00     0.165 HD
BRANCH  12  15
ATOM     15  O46 983 d   1      39.590  17.405  63.681  0.00  0.00    -0.299 OA
BRANCH  15  16
ATOM     16  C47 983 d   1      39.722  18.326  62.557  0.00  0.00     0.054 C 
ATOM     17  H6  983 d   1      40.590  18.965  62.774  0.00  0.00     0.082 H 
ATOM     18  H7  983 d   1      39.931  17.712  61.669  0.00  0.00     0.082 H 
BRANCH  16  19
ATOM     19  C48 983 d   1      38.668  19.183  62.213  0.00  0.00    -0.034 A 
ATOM     20  C49 983 d   1      37.794  19.687  63.218  0.00  0.00    -0.075 A 
ATOM     21  C50 983 d   1      36.725  20.549  62.866  0.00  0.00    -0.082 A 
ATOM     22  H1  983 d   1      37.947  19.411  64.255  0.00  0.00     0.084 H 
ATOM     23  C51 983 d   1      36.529  20.910  61.511  0.00  0.00    -0.083 A 
ATOM     24  H2  983 d   1      36.060  20.931  63.632  0.00  0.00     0.083 H 
ATOM     25  C52 983 d   1      37.401  20.410  60.509  0.00  0.00    -0.082 A 
ATOM     26  H3  983 d   1      35.712  21.569  61.239  0.00  0.00     0.083 H 
ATOM     27  C53 983 d   1      38.469  19.547  60.857  0.00  0.00    -0.075 A 
ATOM     28  H4  983 d   1      37.249  20.690  59.473  0.00  0.00     0.083 H 
ATOM     29  H5  983 d   1      39.132  19.166  60.089  0.00  0.00     0.084 H 
ENDBRANCH  16  19
ENDBRANCH  15  16
ENDBRANCH  12  15
ENDBRANCH   9  11
BRANCH   9  30
ATOM     30  C35 983 d   1      39.105  12.985  65.085  0.00  0.00    -0.021 C 
ATOM     31  H10 983 d   1      38.618  12.000  65.027  0.00  0.00     0.043 H 
ATOM     32  H11 983 d   1      39.138  13.317  66.133  0.00  0.00     0.043 H 
BRANCH  30  33
ATOM     33  C36 983 d   1      40.560  12.839  64.575  0.00  0.00    -0.056 A 
ATOM     34  C37 983 d   1      40.899  13.035  63.198  0.00  0.00    -0.077 A 
ATOM     35  C38 983 d   1      42.230  12.831  62.755  0.00  0.00    -0.082 A 
ATOM     36  H12 983 d   1      40.135  13.340  62.492  0.00  0.00     0.084 H 
ATOM     37  C41 983 d   1      43.227  12.432  63.678  0.00  0.00    -0.083 A 
ATOM     38  H13 983 d   1      42.484  12.980  61.712  0.00  0.00     0.083 H 
ATOM     39  C40 983 d   1      42.898  12.240  65.045  0.00  0.00    -0.082 A 
ATOM     40  H14 983 d   1      44.244  12.273  63.339  0.00  0.00     0.083 H 
ATOM     41  C39 983 d   1      41.568  12.445  65.493  0.00  0.00    -0.077 A 
ATOM     42  H15 983 d   1      43.665  11.936  65.748  0.00  0.00     0.083 H 
ATOM     43  H16 983 d   1      41.321  12.300  66.538  0.00  0.00     0.084 H 
ENDBRANCH  30  33
ENDBRANCH   9  30
ENDBRANCH   6   9
ENDBRANCH   3   6
ENDBRANCH   1   3
BRANCH   1  44
ATOM     44  C27 983 d   1      34.983  14.665  61.329  0.00  0.00     0.097 C 
ATOM     45  H20 983 d   1      34.028  14.601  61.870  0.00  0.00     0.090 H 
BRANCH  44  46
ATOM     46  C28 983 d   1      34.803  15.831  60.318  0.00  0.00    -0.032 C 
ATOM     47  H21 983 d   1      34.113  15.490  59.532  0.00  0.00     0.042 H 
BRANCH  46  48
ATOM     48  C30 983 d   1      36.111  16.260  59.642  0.00  0.00    -0.071 C 
ATOM     49  H22 983 d   1      35.909  17.085  58.943  0.00  0.00     0.028 H 
ATOM     50  H23 983 d   1      36.535  15.408  59.091  0.00  0.00     0.028 H 
ATOM     51  H24 983 d   1      36.827  16.595  60.407  0.00  0.00     0.028 H 
ENDBRANCH  46  48
BRANCH  46  52
ATOM     52  C29 983 d   1      34.179  17.043  61.027  0.00  0.00    -0.071 C 
ATOM     53  H25 983 d   1      33.240  16.740  61.514  0.00  0.00     0.028 H 
ATOM     54  H26 983 d   1      33.971  17.832  60.290  0.00  0.00     0.028 H 
ATOM     55  H27 983 d   1      34.879  17.424  61.785  0.00  0.00     0.028 H 
ENDBRANCH  46  52
ENDBRANCH  44  46
BRANCH  44  56
ATOM     56  P24 983 d   1      35.246  12.985  60.599  0.00  0.00     0.131 P 
ATOM     57  O25 983 d   1      34.346  12.819  59.447  0.00  0.00    -0.666 OA
ATOM     58  O26 983 d   1      35.112  12.049  61.741  0.00  0.00    -0.666 OA
BRANCH  56  59
ATOM     59  C15 983 d   1      36.977  12.954  60.004  0.00  0.00     0.025 C 
ATOM     60  H28 983 d   1      37.633  13.388  60.773  0.00  0.00     0.050 H 
ATOM     61  H29 983 d   1      37.054  13.545  59.079  0.00  0.00     0.050 H 
BRANCH  59  62
ATOM     62  C1  983 d   1      37.418  11.494  59.718  0.00  0.00     0.065 C 
ATOM     63  H30 983 d   1      36.633  11.021  59.110  0.00  0.00     0.065 H 
BRANCH  62  64
ATOM     64  C2  983 d   1      37.598  10.666  61.009  0.00  0.00     0.182 C 
ATOM     65  O14 983 d   1      37.325   9.452  60.932  0.00  0.00    -0.647 OA
ATOM     66  O13 983 d   1      38.019  11.258  62.027  0.00  0.00    -0.647 OA
ENDBRANCH  62  64
BRANCH  62  67
ATOM     67  C3  983 d   1      38.743  11.449  58.930  0.00  0.00    -0.043 A 
ATOM     68  C8  983 d   1      38.791  10.684  57.744  0.00  0.00    -0.068 A 
ATOM     69  C7  983 d   1      40.008  10.531  57.045  0.00  0.00    -0.033 A 
ATOM     70  H31 983 d   1      37.890  10.212  57.369  0.00  0.00     0.085 H 
ATOM     71  C6  983 d   1      41.188  11.151  57.529  0.00  0.00    -0.075 A 
ATOM     72  C5  983 d   1      41.148  11.926  58.716  0.00  0.00    -0.082 A 
ATOM     73  H34 983 d   1      42.122  11.032  56.991  0.00  0.00     0.084 H 
ATOM     74  C4  983 d   1      39.929  12.080  59.419  0.00  0.00    -0.076 A 
ATOM     75  H33 983 d   1      42.050  12.400  59.085  0.00  0.00     0.083 H 
ATOM     76  H32 983 d   1      39.895  12.674  60.325  0.00  0.00     0.084 H 
BRANCH  69  77
ATOM     77  C9  983 d   1      40.047   9.683  55.775  0.00  0.00     0.103 C 
ATOM     78  H35 983 d   1      40.943   9.939  55.190  0.00  0.00     0.082 H 
ATOM     79  H36 983 d   1      39.147   9.881  55.174  0.00  0.00     0.082 H 
BRANCH  77  80
ATOM     80  N10 983 d   1      40.090   8.258  56.139  0.00  0.00    -0.075 N 
ATOM     81  H37 983 d   1      40.116   7.698  55.301  0.00  0.00     0.274 HD
ATOM     82  H38 983 d   1      39.269   8.023  56.675  0.00  0.00     0.274 HD
ATOM     83  H39 983 d   1      40.914   8.077  56.690  0.00  0.00     0.274 HD
ENDBRANCH  77  80
ENDBRANCH  69  77
ENDBRANCH  62  67
ENDBRANCH  59  62
ENDBRANCH  56  59
ENDBRANCH  44  56
ENDBRANCH   1  44
TORSDOF 20
