REMARK  18 active torsions:
REMARK  status: ('A' for Active; 'I' for Inactive)
REMARK    1  A    between atoms: C48_6  and  C47_7 
REMARK    2  A    between atoms: C47_7  and  O46_8 
REMARK    3  A    between atoms: O46_8  and  C44_9 
REMARK       I    between atoms: C44_9  and  N43_11 
REMARK    4  A    between atoms: N43_11  and  C34_12 
REMARK    5  A    between atoms: C34_12  and  C35_13 
REMARK    6  A    between atoms: C34_12  and  C32_21 
REMARK    7  A    between atoms: C35_13  and  C36_14 
REMARK    8  A    between atoms: C41_17  and  O42_18 
REMARK       I    between atoms: C32_21  and  N31_23 
REMARK    9  A    between atoms: N31_23  and  C27_24 
REMARK   10  A    between atoms: C27_24  and  C28_25 
REMARK   11  A    between atoms: C27_24  and  P24_28 
REMARK   12  A    between atoms: C28_25  and  C30_26 
REMARK   13  A    between atoms: C28_25  and  C29_27 
REMARK   14  A    between atoms: P24_28  and  O23_31 
REMARK   15  A    between atoms: O23_31  and  C1_32 
REMARK   16  A    between atoms: C1_32  and  C2_33 
REMARK   17  A    between atoms: C1_32  and  C3_36 
REMARK   18  A    between atoms: C7_41  and  N9_42 
REMARK       I    between atoms: N9_42  and  C10_43 
REMARK       I    between atoms: C10_43  and  N12_44 
ROOT
ATOM      1  C32 343 d   1      35.707  14.336  63.604  0.00  0.00     0.241 C 
ATOM      2  O33 343 d   1      34.544  14.247  64.004  0.00  0.00    -0.271 OA
ATOM      3  N31 343 d   1      36.059  14.373  62.313  0.00  0.00    -0.343 N 
ATOM      4  H17 343 d   1      37.020  14.499  62.069  0.00  0.00     0.163 HD
ENDROOT
BRANCH   3   5
ATOM      5  C27 343 d   1      35.054  14.231  61.246  0.00  0.00     0.115 C 
ATOM      6  H18 343 d   1      34.069  14.234  61.736  0.00  0.00     0.093 H 
BRANCH   5   7
ATOM      7  C28 343 d   1      35.052  15.436  60.275  0.00  0.00    -0.030 C 
ATOM      8  H19 343 d   1      34.416  15.173  59.416  0.00  0.00     0.043 H 
BRANCH   7   9
ATOM      9  C30 343 d   1      36.446  15.765  59.736  0.00  0.00    -0.071 C 
ATOM     10  H20 343 d   1      36.382  16.626  59.054  0.00  0.00     0.028 H 
ATOM     11  H21 343 d   1      36.843  14.896  59.192  0.00  0.00     0.028 H 
ATOM     12  H22 343 d   1      37.115  16.010  60.574  0.00  0.00     0.028 H 
ENDBRANCH   7   9
BRANCH   7  13
ATOM     13  C29 343 d   1      34.441  16.663  60.965  0.00  0.00    -0.071 C 
ATOM     14  H23 343 d   1      33.441  16.409  61.346  0.00  0.00     0.028 H 
ATOM     15  H24 343 d   1      34.359  17.488  60.242  0.00  0.00     0.028 H 
ATOM     16  H25 343 d   1      35.085  16.971  61.802  0.00  0.00     0.028 H 
ENDBRANCH   7  13
ENDBRANCH   5   7
BRANCH   5  17
ATOM     17  P24 343 d   1      35.215  12.610  60.424  0.00  0.00     0.274 P 
ATOM     18  O25 343 d   1      34.178  12.510  59.367  0.00  0.00    -0.645 OA
ATOM     19  O26 343 d   1      35.202  11.598  61.500  0.00  0.00    -0.645 OA
BRANCH  17  20
ATOM     20  O23 343 d   1      36.657  12.571  59.728  0.00  0.00    -0.289 OA
BRANCH  20  21
ATOM     21  C1  343 d   1      37.106  11.282  59.276  0.00  0.00     0.157 C 
ATOM     22  H26 343 d   1      36.221  10.721  58.941  0.00  0.00     0.109 H 
BRANCH  21  23
ATOM     23  C2  343 d   1      37.751  10.492  60.455  0.00  0.00     0.208 C 
ATOM     24  O14 343 d   1      37.508   9.266  60.513  0.00  0.00    -0.646 OA
ATOM     25  O13 343 d   1      38.438  11.135  61.276  0.00  0.00    -0.646 OA
ENDBRANCH  21  23
BRANCH  21  26
ATOM     26  C3  343 d   1      38.076  11.386  58.060  0.00  0.00    -0.016 A 
ATOM     27  C8  343 d   1      38.748  10.224  57.639  0.00  0.00    -0.048 A 
ATOM     28  C7  343 d   1      39.645  10.242  56.547  0.00  0.00     0.049 A 
ATOM     29  H27 343 d   1      38.574   9.292  58.165  0.00  0.00     0.087 H 
ATOM     30  C6  343 d   1      39.877  11.457  55.851  0.00  0.00    -0.057 A 
ATOM     31  C5  343 d   1      39.198  12.646  56.262  0.00  0.00    -0.080 A 
ATOM     32  H30 343 d   1      40.565  11.483  55.013  0.00  0.00     0.086 H 
ATOM     33  C4  343 d   1      38.296  12.611  57.367  0.00  0.00    -0.074 A 
ATOM     34  H29 343 d   1      39.369  13.576  55.733  0.00  0.00     0.083 H 
ATOM     35  H28 343 d   1      37.781  13.512  57.678  0.00  0.00     0.084 H 
BRANCH  28  36
ATOM     36  N9  343 d   1      40.229   9.085  56.175  0.00  0.00    -0.193 N 
ATOM     37  C10 343 d   1      41.072   8.401  56.983  0.00  0.00     0.669 C 
ATOM     38  N12 343 d   1      41.454   8.893  58.167  0.00  0.00    -0.235 N 
ATOM     39  N11 343 d   1      41.582   7.248  56.574  0.00  0.00    -0.235 N 
ATOM     40  H32 343 d   1      42.096   8.354  58.765  0.00  0.00     0.174 HD
ATOM     41  H33 343 d   1      41.106   9.810  58.480  0.00  0.00     0.174 HD
ATOM     42  H34 343 d   1      41.300   6.854  55.665  0.00  0.00     0.174 HD
ATOM     43  H35 343 d   1      42.261   6.747  57.165  0.00  0.00     0.174 HD
ATOM     44  H31 343 d   1      40.025   8.707  55.239  0.00  0.00     0.184 HD
ENDBRANCH  28  36
ENDBRANCH  21  26
ENDBRANCH  20  21
ENDBRANCH  17  20
ENDBRANCH   5  17
ENDBRANCH   3   5
BRANCH   1  45
ATOM     45  C34 343 d   1      36.861  14.496  64.609  0.00  0.00     0.095 C 
ATOM     46  H9  343 d   1      37.745  14.906  64.099  0.00  0.00     0.088 H 
BRANCH  45  47
ATOM     47  N43 343 d   1      36.425  15.438  65.682  0.00  0.00    -0.323 N 
ATOM     48  C44 343 d   1      36.314  16.761  65.476  0.00  0.00     0.361 C 
ATOM     49  O45 343 d   1      35.875  17.530  66.341  0.00  0.00    -0.238 OA
ATOM     50  H8  343 d   1      36.208  15.071  66.587  0.00  0.00     0.165 HD
BRANCH  48  51
ATOM     51  O46 343 d   1      36.648  17.221  64.219  0.00  0.00    -0.299 OA
BRANCH  51  52
ATOM     52  C47 343 d   1      36.717  18.649  64.021  0.00  0.00     0.054 C 
ATOM     53  H6  343 d   1      35.688  19.038  64.049  0.00  0.00     0.082 H 
ATOM     54  H7  343 d   1      37.292  19.072  64.858  0.00  0.00     0.082 H 
BRANCH  52  55
ATOM     55  C48 343 d   1      37.304  19.098  62.838  0.00  0.00    -0.034 A 
ATOM     56  C49 343 d   1      38.654  18.754  62.546  0.00  0.00    -0.075 A 
ATOM     57  C50 343 d   1      39.240  19.145  61.315  0.00  0.00    -0.082 A 
ATOM     58  H1  343 d   1      39.236  18.191  63.267  0.00  0.00     0.084 H 
ATOM     59  C51 343 d   1      38.478  19.884  60.373  0.00  0.00    -0.083 A 
ATOM     60  H2  343 d   1      40.268  18.880  61.094  0.00  0.00     0.083 H 
ATOM     61  C52 343 d   1      37.132  20.231  60.667  0.00  0.00    -0.082 A 
ATOM     62  H3  343 d   1      38.922  20.183  59.431  0.00  0.00     0.083 H 
ATOM     63  C53 343 d   1      36.545  19.839  61.899  0.00  0.00    -0.075 A 
ATOM     64  H4  343 d   1      36.551  20.797  59.948  0.00  0.00     0.083 H 
ATOM     65  H5  343 d   1      35.518  20.106  62.121  0.00  0.00     0.084 H 
ENDBRANCH  52  55
ENDBRANCH  51  52
ENDBRANCH  48  51
ENDBRANCH  45  47
BRANCH  45  66
ATOM     66  C35 343 d   1      37.208  13.116  65.198  0.00  0.00    -0.014 C 
ATOM     67  H10 343 d   1      37.594  12.475  64.391  0.00  0.00     0.043 H 
ATOM     68  H11 343 d   1      36.293  12.670  65.614  0.00  0.00     0.043 H 
BRANCH  66  69
ATOM     69  C36 343 d   1      38.266  13.199  66.311  0.00  0.00    -0.056 A 
ATOM     70  C37 343 d   1      39.644  13.287  65.988  0.00  0.00    -0.074 A 
ATOM     71  C38 343 d   1      40.612  13.345  67.026  0.00  0.00    -0.051 A 
ATOM     72  H12 343 d   1      39.958  13.310  64.951  0.00  0.00     0.084 H 
ATOM     73  C41 343 d   1      40.200  13.315  68.387  0.00  0.00     0.065 A 
ATOM     74  H13 343 d   1      41.666  13.412  66.781  0.00  0.00     0.087 H 
ATOM     75  C40 343 d   1      38.822  13.228  68.709  0.00  0.00    -0.051 A 
ATOM     76  C39 343 d   1      37.857  13.171  67.672  0.00  0.00    -0.074 A 
ATOM     77  H15 343 d   1      38.507  13.205  69.746  0.00  0.00     0.087 H 
ATOM     78  H16 343 d   1      36.803  13.106  67.918  0.00  0.00     0.084 H 
BRANCH  73  79
ATOM     79  O42 343 d   1      41.126  13.363  69.384  0.00  0.00    -0.361 OA
ATOM     80  H14 343 d   1      41.624  14.169  69.314  0.00  0.00     0.217 HD
ENDBRANCH  73  79
ENDBRANCH  66  69
ENDBRANCH  45  66
ENDBRANCH   1  45
TORSDOF 18
