REMARK  6 active torsions:
REMARK  status: ('A' for Active; 'I' for Inactive)
REMARK    1  A    between atoms: N1_1  and  C40_19 
REMARK    2  A    between atoms: C4_4  and  C7_6 
REMARK    3  A    between atoms: C7_6  and  N10_7 
REMARK    4  A    between atoms: N10_7  and  C12_8 
REMARK    5  A    between atoms: C12_8  and  C15_9 
REMARK    6  A    between atoms: C45_22  and  C50_25 
ROOT
ATOM      1  N1  047 d   1     -10.706  -8.157   7.767  0.00  0.00    -0.321 N 
ATOM      2  C2  047 d   1     -11.477  -7.394   8.586  0.00  0.00     0.050 A 
ATOM      3  C3  047 d   1     -12.781  -7.886   8.574  0.00  0.00     0.000 A 
ATOM      4  C4  047 d   1     -12.694  -9.068   7.642  0.00  0.00    -0.004 A 
ATOM      5  C5  047 d   1     -11.416  -9.133   7.232  0.00  0.00    -0.006 A 
ATOM      6  C32 047 d   1     -13.812  -7.301   9.318  0.00  0.00    -0.070 A 
ATOM      7  C34 047 d   1     -13.469  -6.187  10.089  0.00  0.00    -0.082 A 
ATOM      8  C36 047 d   1     -12.160  -5.678  10.102  0.00  0.00    -0.081 A 
ATOM      9  C38 047 d   1     -11.139  -6.279   9.360  0.00  0.00    -0.056 A 
ATOM     10  H1  047 d   1     -11.021  -9.886   6.552  0.00  0.00     0.113 H 
ATOM     11  H19 047 d   1     -14.823  -7.691   9.297  0.00  0.00     0.084 H 
ATOM     12  H20 047 d   1     -14.231  -5.705  10.691  0.00  0.00     0.083 H 
ATOM     13  H21 047 d   1     -11.937  -4.801  10.700  0.00  0.00     0.083 H 
ATOM     14  H22 047 d   1     -10.125  -5.896   9.383  0.00  0.00     0.087 H 
ENDROOT
BRANCH   4  15
ATOM     15  C7  047 d   1     -13.828  -9.992   7.258  0.00  0.00     0.107 C 
ATOM     16  H2  047 d   1     -14.270 -10.406   8.176  0.00  0.00     0.083 H 
ATOM     17  H3  047 d   1     -13.422 -10.810   6.645  0.00  0.00     0.083 H 
BRANCH  15  18
ATOM     18  N10 047 d   1     -14.893  -9.305   6.487  0.00  0.00    -0.071 N 
ATOM     19  H4  047 d   1     -15.159  -8.478   6.998  0.00  0.00     0.277 HD
ATOM     20  H5  047 d   1     -15.681  -9.930   6.426  0.00  0.00     0.277 HD
BRANCH  18  21
ATOM     21  C12 047 d   1     -14.536  -8.891   5.112  0.00  0.00     0.085 C 
ATOM     22  H6  047 d   1     -14.702  -9.742   4.435  0.00  0.00     0.076 H 
ATOM     23  H7  047 d   1     -13.473  -8.611   5.095  0.00  0.00     0.076 H 
BRANCH  21  24
ATOM     24  C15 047 d   1     -15.378  -7.680   4.604  0.00  0.00    -0.031 C 
ATOM     25  C17 047 d   1     -16.884  -8.039   4.387  0.00  0.00    -0.060 C 
ATOM     26  C20 047 d   1     -17.674  -6.842   3.791  0.00  0.00    -0.065 C 
ATOM     27  H9  047 d   1     -17.329  -8.315   5.354  0.00  0.00     0.033 H 
ATOM     28  H10 047 d   1     -16.952  -8.892   3.696  0.00  0.00     0.033 H 
ATOM     29  C23 047 d   1     -17.451  -5.525   4.591  0.00  0.00    -0.065 C 
ATOM     30  H11 047 d   1     -18.747  -7.085   3.804  0.00  0.00     0.033 H 
ATOM     31  H12 047 d   1     -17.346  -6.684   2.753  0.00  0.00     0.033 H 
ATOM     32  C26 047 d   1     -15.930  -5.229   4.800  0.00  0.00    -0.065 C 
ATOM     33  H13 047 d   1     -17.935  -5.618   5.574  0.00  0.00     0.033 H 
ATOM     34  H14 047 d   1     -17.904  -4.690   4.037  0.00  0.00     0.033 H 
ATOM     35  C29 047 d   1     -15.250  -6.430   5.524  0.00  0.00    -0.060 C 
ATOM     36  H15 047 d   1     -15.816  -4.322   5.412  0.00  0.00     0.033 H 
ATOM     37  H16 047 d   1     -15.451  -5.074   3.822  0.00  0.00     0.033 H 
ATOM     38  H17 047 d   1     -14.188  -6.205   5.703  0.00  0.00     0.033 H 
ATOM     39  H18 047 d   1     -15.752  -6.620   6.484  0.00  0.00     0.033 H 
ATOM     40  H8  047 d   1     -14.967  -7.402   3.622  0.00  0.00     0.042 H 
ENDBRANCH  21  24
ENDBRANCH  18  21
ENDBRANCH  15  18
ENDBRANCH   4  15
BRANCH   1  41
ATOM     41  C40 047 d   1      -9.369  -8.008   7.538  0.00  0.00     0.039 A 
ATOM     42  C41 047 d   1      -8.569  -9.147   7.663  0.00  0.00    -0.056 A 
ATOM     43  C43 047 d   1      -7.192  -9.084   7.443  0.00  0.00    -0.075 A 
ATOM     44  H23 047 d   1      -9.024 -10.093   7.935  0.00  0.00     0.086 H 
ATOM     45  C45 047 d   1      -6.589  -7.874   7.088  0.00  0.00    -0.062 A 
ATOM     46  H24 047 d   1      -6.588  -9.978   7.548  0.00  0.00     0.084 H 
ATOM     47  C46 047 d   1      -7.382  -6.721   6.949  0.00  0.00    -0.075 A 
ATOM     48  C48 047 d   1      -8.768  -6.790   7.170  0.00  0.00    -0.056 A 
ATOM     49  H25 047 d   1      -6.924  -5.779   6.671  0.00  0.00     0.084 H 
ATOM     50  H26 047 d   1      -9.377  -5.901   7.056  0.00  0.00     0.086 H 
BRANCH  45  51
ATOM     51  C50 047 d   1      -5.071  -7.871   6.866  0.00  0.00    -0.051 C 
ATOM     52  H27 047 d   1      -4.674  -8.883   7.032  0.00  0.00     0.033 H 
ATOM     53  H28 047 d   1      -4.599  -7.172   7.572  0.00  0.00     0.033 H 
ATOM     54  H29 047 d   1      -4.852  -7.556   5.835  0.00  0.00     0.033 H 
ENDBRANCH  45  51
ENDBRANCH   1  41
TORSDOF 6
