REMARK  14 active torsions:
REMARK  status: ('A' for Active; 'I' for Inactive)
REMARK    1  A    between atoms: C1_1  and  C2_2 
REMARK    2  A    between atoms: C3_3  and  C4_4 
REMARK    3  A    between atoms: C4_4  and  N1_5 
REMARK    4  A    between atoms: N1_5  and  C5_6 
REMARK    5  A    between atoms: C8_9  and  S1_12 
REMARK    6  A    between atoms: S1_12  and  C11_15 
REMARK    7  A    between atoms: C11_15  and  C12_16 
REMARK    8  A    between atoms: C12_16  and  C22_29 
REMARK       I    between atoms: N2_19  and  C17_22 
REMARK    9  A    between atoms: C17_22  and  O4_24 
REMARK   10  A    between atoms: O4_24  and  C18_25 
REMARK   11  A    between atoms: C18_25  and  C19_26 
REMARK   12  A    between atoms: C18_25  and  C20_27 
REMARK   13  A    between atoms: C18_25  and  C21_28 
REMARK       I    between atoms: C22_29  and  N3_31 
REMARK   14  A    between atoms: N3_31  and  O6_32 
ROOT
ATOM      1  C12 347 d   1      10.624  27.944 141.812  0.00  0.00     0.059 C 
ATOM      2  C13 347 d   1      11.266  28.946 140.742  0.00  0.00    -0.034 C 
ATOM      3  C14 347 d   1      11.826  30.229 141.365  0.00  0.00     0.001 C 
ATOM      4  N2  347 d   1      12.810  29.903 142.371  0.00  0.00    -0.328 N 
ATOM      5  C15 347 d   1      12.324  29.039 143.504  0.00  0.00     0.001 C 
ATOM      6  C16 347 d   1      11.687  27.716 142.965  0.00  0.00    -0.034 C 
ATOM      7  C17 347 d   1      14.144  30.400 142.370  0.00  0.00     0.363 C 
ATOM      8  O3  347 d   1      14.587  31.236 141.539  0.00  0.00    -0.238 OA
ATOM      9  H13 347 d   1      10.489  29.223 140.014  0.00  0.00     0.037 H 
ATOM     10  H14 347 d   1      12.084  28.425 140.224  0.00  0.00     0.037 H 
ATOM     11  H15 347 d   1      11.006  30.797 141.829  0.00  0.00     0.064 H 
ATOM     12  H16 347 d   1      12.296  30.840 140.580  0.00  0.00     0.064 H 
ATOM     13  H17 347 d   1      11.569  29.593 144.081  0.00  0.00     0.064 H 
ATOM     14  H18 347 d   1      13.174  28.790 144.156  0.00  0.00     0.064 H 
ATOM     15  H19 347 d   1      12.492  27.077 142.573  0.00  0.00     0.037 H 
ATOM     16  H20 347 d   1      11.188  27.205 143.802  0.00  0.00     0.037 H 
ENDROOT
BRANCH   1  17
ATOM     17  C11 347 d   1      10.331  26.573 141.166  0.00  0.00     0.048 C 
ATOM     18  H11 347 d   1      11.298  26.145 140.863  0.00  0.00     0.058 H 
ATOM     19  H12 347 d   1       9.877  25.940 141.943  0.00  0.00     0.058 H 
BRANCH  17  20
ATOM     20  S1  347 d   1       9.245  26.506 139.725  0.00  0.00     0.176 S 
ATOM     21  O1  347 d   1       9.149  27.824 139.097  0.00  0.00    -0.223 OA
ATOM     22  O2  347 d   1       9.676  25.384 138.888  0.00  0.00    -0.223 OA
BRANCH  20  23
ATOM     23  C8  347 d   1       7.586  26.149 140.302  0.00  0.00     0.059 A 
ATOM     24  C7  347 d   1       6.505  26.970 139.881  0.00  0.00    -0.060 A 
ATOM     25  C6  347 d   1       5.184  26.678 140.321  0.00  0.00    -0.056 A 
ATOM     26  H8  347 d   1       6.686  27.815 139.227  0.00  0.00     0.085 H 
ATOM     27  C5  347 d   1       4.895  25.568 141.176  0.00  0.00     0.028 A 
ATOM     28  H7  347 d   1       4.370  27.317 139.998  0.00  0.00     0.087 H 
ATOM     29  C10 347 d   1       6.006  24.771 141.601  0.00  0.00    -0.056 A 
ATOM     30  C9  347 d   1       7.358  25.049 141.163  0.00  0.00    -0.060 A 
ATOM     31  H10 347 d   1       5.830  23.936 142.269  0.00  0.00     0.087 H 
ATOM     32  H9  347 d   1       8.182  24.425 141.489  0.00  0.00     0.085 H 
BRANCH  27  33
ATOM     33  N1  347 d   1       3.616  25.221 141.637  0.00  0.00    -0.380 N 
ATOM     34  H6  347 d   1       3.543  24.815 142.581  0.00  0.00     0.160 HD
BRANCH  33  35
ATOM     35  C4  347 d   1       2.390  25.392 140.883  0.00  0.00     0.048 C 
ATOM     36  H4  347 d   1       2.102  26.453 140.902  0.00  0.00     0.083 H 
ATOM     37  H5  347 d   1       2.562  25.078 139.843  0.00  0.00     0.083 H 
BRANCH  35  38
ATOM     38  C3  347 d   1       1.302  24.592 141.450  0.00  0.00    -0.087 C 
ATOM     39  C2  347 d   1       0.405  23.937 141.907  0.00  0.00    -0.109 C 
BRANCH  39  40
ATOM     40  C1  347 d   1      -0.700  23.142 142.439  0.00  0.00    -0.021 C 
ATOM     41  H1  347 d   1      -0.481  22.860 143.479  0.00  0.00     0.044 H 
ATOM     42  H2  347 d   1      -0.824  22.234 141.831  0.00  0.00     0.044 H 
ATOM     43  H3  347 d   1      -1.627  23.734 142.407  0.00  0.00     0.044 H 
ENDBRANCH  39  40
ENDBRANCH  35  38
ENDBRANCH  33  35
ENDBRANCH  27  33
ENDBRANCH  20  23
ENDBRANCH  17  20
ENDBRANCH   1  17
BRANCH   1  44
ATOM     44  C22 347 d   1       9.305  28.523 142.402  0.00  0.00     0.250 C 
ATOM     45  O5  347 d   1       8.717  27.950 143.333  0.00  0.00    -0.271 OA
ATOM     46  N3  347 d   1       8.800  29.639 141.764  0.00  0.00    -0.237 N 
ATOM     47  H30 347 d   1       9.263  30.032 140.969  0.00  0.00     0.197 HD
BRANCH  46  48
ATOM     48  O6  347 d   1       7.626  30.201 142.261  0.00  0.00    -0.287 OA
ATOM     49  H31 347 d   1       7.390  30.956 141.735  0.00  0.00     0.244 HD
ENDBRANCH  46  48
ENDBRANCH   1  44
BRANCH   7  50
ATOM     50  O4  347 d   1      14.881  29.801 143.407  0.00  0.00    -0.294 OA
BRANCH  50  51
ATOM     51  C18 347 d   1      16.326  29.821 143.779  0.00  0.00     0.061 C 
BRANCH  51  52
ATOM     52  C19 347 d   1      16.771  28.370 143.688  0.00  0.00    -0.048 C 
ATOM     53  H21 347 d   1      17.837  28.296 143.950  0.00  0.00     0.031 H 
ATOM     54  H22 347 d   1      16.619  28.004 142.662  0.00  0.00     0.031 H 
ATOM     55  H23 347 d   1      16.179  27.760 144.386  0.00  0.00     0.031 H 
ENDBRANCH  51  52
BRANCH  51  56
ATOM     56  C20 347 d   1      17.163  30.607 142.745  0.00  0.00    -0.048 C 
ATOM     57  H24 347 d   1      18.220  30.602 143.049  0.00  0.00     0.031 H 
ATOM     58  H25 347 d   1      16.802  31.645 142.693  0.00  0.00     0.031 H 
ATOM     59  H26 347 d   1      17.063  30.134 141.757  0.00  0.00     0.031 H 
ENDBRANCH  51  56
BRANCH  51  60
ATOM     60  C21 347 d   1      16.544  30.375 145.182  0.00  0.00    -0.048 C 
ATOM     61  H27 347 d   1      17.619  30.372 145.415  0.00  0.00     0.031 H 
ATOM     62  H28 347 d   1      16.009  29.748 145.911  0.00  0.00     0.031 H 
ATOM     63  H29 347 d   1      16.161  31.405 145.233  0.00  0.00     0.031 H 
ENDBRANCH  51  60
ENDBRANCH  50  51
ENDBRANCH   7  50
TORSDOF 14
