REMARK  8 active torsions:
REMARK  status: ('A' for Active; 'I' for Inactive)
REMARK    1  A    between atoms: C1_1  and  C2_2 
REMARK    2  A    between atoms: C6_6  and  C8_8 
REMARK    3  A    between atoms: C8_8  and  C10_10 
REMARK    4  A    between atoms: C14_14  and  N15_15 
REMARK    5  A    between atoms: N15_15  and  C16_16 
REMARK    6  A    between atoms: C16_16  and  C17_17 
REMARK    7  A    between atoms: C20_20  and  C23_23 
REMARK    8  A    between atoms: C23_23  and  N25_25 
ROOT
ATOM      1  C10 G44 d   1      17.790 -13.921  22.209  0.00  0.00     0.020 A 
ATOM      2  C11 G44 d   1      19.020 -13.833  21.505  0.00  0.00    -0.052 A 
ATOM      3  C12 G44 d   1      19.168 -12.938  20.452  0.00  0.00     0.005 A 
ATOM      4  N13 G44 d   1      18.116 -12.193  20.065  0.00  0.00    -0.244 NA
ATOM      5  C14 G44 d   1      16.882 -12.230  20.593  0.00  0.00     0.124 A 
ATOM      6  C26 G44 d   1      16.714 -13.093  21.744  0.00  0.00    -0.025 A 
ATOM      7  H8  G44 d   1      19.850 -14.469  21.791  0.00  0.00     0.087 H 
ATOM      8  H9  G44 d   1      20.122 -12.841  19.947  0.00  0.00     0.114 H 
ATOM      9  H21 G44 d   1      15.762 -13.114  22.262  0.00  0.00     0.090 H 
ENDROOT
BRANCH   5  10
ATOM     10  N15 G44 d   1      15.938 -11.303  20.016  0.00  0.00    -0.371 N 
ATOM     11  H10 G44 d   1      16.352 -10.374  19.854  0.00  0.00     0.161 HD
BRANCH  10  12
ATOM     12  C16 G44 d   1      14.480 -11.367  19.590  0.00  0.00     0.018 C 
ATOM     13  H11 G44 d   1      14.255 -12.386  19.242  0.00  0.00     0.071 H 
ATOM     14  H12 G44 d   1      14.318 -10.655  18.767  0.00  0.00     0.071 H 
BRANCH  12  15
ATOM     15  C17 G44 d   1      13.544 -11.021  20.727  0.00  0.00    -0.041 A 
ATOM     16  C18 G44 d   1      13.053 -12.106  21.370  0.00  0.00    -0.074 A 
ATOM     17  C19 G44 d   1      12.268 -11.994  22.479  0.00  0.00    -0.069 A 
ATOM     18  H13 G44 d   1      13.291 -13.094  20.992  0.00  0.00     0.084 H 
ATOM     19  C20 G44 d   1      11.990 -10.734  22.968  0.00  0.00     0.007 A 
ATOM     20  H14 G44 d   1      11.870 -12.877  22.967  0.00  0.00     0.085 H 
ATOM     21  C21 G44 d   1      12.447  -9.579  22.327  0.00  0.00    -0.069 A 
ATOM     22  C22 G44 d   1      13.239  -9.742  21.174  0.00  0.00    -0.074 A 
ATOM     23  H15 G44 d   1      12.201  -8.593  22.704  0.00  0.00     0.085 H 
ATOM     24  H16 G44 d   1      13.608  -8.875  20.639  0.00  0.00     0.084 H 
BRANCH  19  25
ATOM     25  C23 G44 d   1      11.113 -10.745  24.141  0.00  0.00     0.102 C 
ATOM     26  N24 G44 d   1      10.674 -11.890  24.539  0.00  0.00    -0.385 N 
ATOM     27  H17 G44 d   1      10.054 -11.947  25.360  0.00  0.00     0.157 HD
ATOM     28  H18 G44 d   1      10.943 -12.748  24.036  0.00  0.00     0.157 HD
BRANCH  25  29
ATOM     29  N25 G44 d   1      10.747  -9.614  24.854  0.00  0.00    -0.385 N 
ATOM     30  H19 G44 d   1      11.084  -8.687  24.558  0.00  0.00     0.157 HD
ATOM     31  H20 G44 d   1      10.138  -9.701  25.680  0.00  0.00     0.157 HD
ENDBRANCH  25  29
ENDBRANCH  19  25
ENDBRANCH  12  15
ENDBRANCH  10  12
ENDBRANCH   5  10
BRANCH   1  32
ATOM     32  C8  G44 d   1      17.773 -14.936  23.328  0.00  0.00     0.192 C 
ATOM     33  O9  G44 d   1      17.011 -15.876  23.262  0.00  0.00    -0.287 OA
BRANCH  32  34
ATOM     34  C6  G44 d   1      18.904 -14.836  24.289  0.00  0.00     0.015 A 
ATOM     35  C5  G44 d   1      19.156 -13.629  24.931  0.00  0.00    -0.069 A 
ATOM     36  C4  G44 d   1      20.295 -13.469  25.677  0.00  0.00    -0.082 A 
ATOM     37  H6  G44 d   1      18.450 -12.812  24.841  0.00  0.00     0.085 H 
ATOM     38  C3  G44 d   1      21.203 -14.512  25.795  0.00  0.00    -0.077 A 
ATOM     39  H5  G44 d   1      20.487 -12.526  26.176  0.00  0.00     0.083 H 
ATOM     40  C2  G44 d   1      20.981 -15.731  25.181  0.00  0.00    -0.061 A 
ATOM     41  H4  G44 d   1      22.104 -14.368  26.380  0.00  0.00     0.084 H 
ATOM     42  C7  G44 d   1      19.846 -15.896  24.408  0.00  0.00    -0.064 A 
ATOM     43  H7  G44 d   1      19.674 -16.834  23.892  0.00  0.00     0.085 H 
BRANCH  40  44
ATOM     44  C1  G44 d   1      22.015 -16.817  25.341  0.00  0.00    -0.051 C 
ATOM     45  H1  G44 d   1      22.823 -16.460  25.997  0.00  0.00     0.033 H 
ATOM     46  H2  G44 d   1      22.430 -17.076  24.356  0.00  0.00     0.033 H 
ATOM     47  H3  G44 d   1      21.547 -17.706  25.787  0.00  0.00     0.033 H 
ENDBRANCH  40  44
ENDBRANCH  32  34
ENDBRANCH   1  32
TORSDOF 8
