REMARK  9 active torsions:
REMARK  status: ('A' for Active; 'I' for Inactive)
REMARK    1  A    between atoms: C5_3  and  C7_7 
REMARK    2  A    between atoms: C9_11  and  N13_13 
REMARK    3  A    between atoms: N13_13  and  C14_14 
REMARK    4  A    between atoms: C19_15  and  C20_37 
REMARK    5  A    between atoms: C16_18  and  N21_20 
REMARK       I    between atoms: N21_20  and  C22_21 
REMARK    6  A    between atoms: C22_21  and  C23_22 
REMARK    7  A    between atoms: C27_25  and  C46_28 
REMARK    8  A    between atoms: C46_28  and  N48_29 
REMARK    9  A    between atoms: N51_32  and  C54_33 
ROOT
ATOM      1  N21 STI d   1      23.175  17.489  12.910  0.00  0.00    -0.323 N 
ATOM      2  C22 STI d   1      24.168  18.231  13.510  0.00  0.00     0.256 C 
ATOM      3  O29 STI d   1      25.228  18.467  12.947  0.00  0.00    -0.267 OA
ATOM      4  H11 STI d   1      22.345  17.342  13.448  0.00  0.00     0.169 HD
ENDROOT
BRANCH   1   5
ATOM      5  C16 STI d   1      23.195  16.904  11.602  0.00  0.00     0.037 A 
ATOM      6  C17 STI d   1      22.193  15.950  11.273  0.00  0.00    -0.057 A 
ATOM      7  C18 STI d   1      22.155  15.359   9.992  0.00  0.00    -0.073 A 
ATOM      8  H9  STI d   1      21.451  15.674  12.014  0.00  0.00     0.086 H 
ATOM      9  C19 STI d   1      23.111  15.705   9.018  0.00  0.00    -0.035 A 
ATOM     10  H8  STI d   1      21.385  14.634   9.756  0.00  0.00     0.084 H 
ATOM     11  C14 STI d   1      24.130  16.666   9.336  0.00  0.00     0.057 A 
ATOM     12  C15 STI d   1      24.162  17.254  10.620  0.00  0.00    -0.030 A 
ATOM     13  H10 STI d   1      24.931  17.979  10.859  0.00  0.00     0.090 H 
BRANCH   9  14
ATOM     14  C20 STI d   1      23.036  15.057   7.652  0.00  0.00    -0.049 C 
ATOM     15  H31 STI d   1      23.852  15.438   7.020  0.00  0.00     0.033 H 
ATOM     16  H32 STI d   1      22.069  15.296   7.186  0.00  0.00     0.033 H 
ATOM     17  H33 STI d   1      23.133  13.966   7.758  0.00  0.00     0.033 H 
ENDBRANCH   9  14
BRANCH  11  18
ATOM     18  N13 STI d   1      25.103  17.050   8.397  0.00  0.00    -0.188 N 
ATOM     19  H7  STI d   1      24.993  17.959   7.925  0.00  0.00     0.184 HD
BRANCH  18  20
ATOM     20  C9  STI d   1      26.206  16.269   8.072  0.00  0.00     0.727 A 
ATOM     21  N10 STI d   1      26.397  15.063   8.644  0.00  0.00    -0.075 NA
ATOM     22  C11 STI d   1      27.462  14.300   8.322  0.00  0.00     0.023 A 
ATOM     23  C12 STI d   1      28.395  14.767   7.377  0.00  0.00    -0.036 A 
ATOM     24  H6  STI d   1      27.599  13.331   8.789  0.00  0.00     0.115 H 
ATOM     25  C7  STI d   1      28.159  16.047   6.796  0.00  0.00     0.089 A 
ATOM     26  H5  STI d   1      29.261  14.175   7.101  0.00  0.00     0.089 H 
ATOM     27  N8  STI d   1      27.067  16.745   7.175  0.00  0.00    -0.062 NA
BRANCH  25  28
ATOM     28  C5  STI d   1      29.087  16.642   5.780  0.00  0.00     0.011 A 
ATOM     29  C6  STI d   1      28.670  17.770   5.005  0.00  0.00    -0.068 A 
ATOM     30  C1  STI d   1      29.553  18.318   4.059  0.00  0.00    -0.065 A 
ATOM     31  H2  STI d   1      27.684  18.197   5.146  0.00  0.00     0.085 H 
ATOM     32  C2  STI d   1      30.825  17.746   3.898  0.00  0.00     0.002 A 
ATOM     33  H1  STI d   1      29.256  19.172   3.461  0.00  0.00     0.085 H 
ATOM     34  N3  STI d   1      31.199  16.685   4.636  0.00  0.00    -0.272 NA
ATOM     35  H4  STI d   1      31.513  18.163   3.172  0.00  0.00     0.114 H 
ATOM     36  C4  STI d   1      30.395  16.120   5.555  0.00  0.00     0.014 A 
ATOM     37  H3  STI d   1      30.742  15.266   6.126  0.00  0.00     0.116 H 
ENDBRANCH  25  28
ENDBRANCH  18  20
ENDBRANCH  11  18
ENDBRANCH   1   5
BRANCH   2  38
ATOM     38  C23 STI d   1      23.936  18.771  14.879  0.00  0.00     0.032 A 
ATOM     39  C25 STI d   1      23.074  18.089  15.790  0.00  0.00    -0.067 A 
ATOM     40  C26 STI d   1      22.858  18.609  17.085  0.00  0.00    -0.074 A 
ATOM     41  H12 STI d   1      22.584  17.171  15.487  0.00  0.00     0.085 H 
ATOM     42  C27 STI d   1      23.498  19.808  17.486  0.00  0.00    -0.033 A 
ATOM     43  H13 STI d   1      22.201  18.090  17.774  0.00  0.00     0.084 H 
ATOM     44  C28 STI d   1      24.353  20.490  16.585  0.00  0.00    -0.074 A 
ATOM     45  C29 STI d   1      24.575  19.981  15.293  0.00  0.00    -0.067 A 
ATOM     46  H14 STI d   1      24.838  21.409  16.893  0.00  0.00     0.084 H 
ATOM     47  H15 STI d   1      25.232  20.507  14.610  0.00  0.00     0.085 H 
BRANCH  42  48
ATOM     48  C46 STI d   1      23.276  20.377  18.880  0.00  0.00     0.107 C 
ATOM     49  H16 STI d   1      22.244  20.750  18.952  0.00  0.00     0.083 H 
ATOM     50  H17 STI d   1      23.979  21.208  19.042  0.00  0.00     0.083 H 
BRANCH  48  51
ATOM     51  N48 STI d   1      23.491  19.356  19.929  0.00  0.00    -0.064 N 
ATOM     52  C53 STI d   1      24.935  19.094  20.182  0.00  0.00     0.106 C 
ATOM     53  C52 STI d   1      25.066  17.933  21.192  0.00  0.00     0.105 C 
ATOM     54  H19 STI d   1      25.407  19.997  20.596  0.00  0.00     0.078 H 
ATOM     55  H20 STI d   1      25.431  18.820  19.239  0.00  0.00     0.078 H 
ATOM     56  N51 STI d   1      24.333  18.269  22.441  0.00  0.00    -0.072 N 
ATOM     57  H21 STI d   1      26.128  17.769  21.425  0.00  0.00     0.078 H 
ATOM     58  H22 STI d   1      24.641  17.018  20.754  0.00  0.00     0.078 H 
ATOM     59  C50 STI d   1      22.900  18.590  22.203  0.00  0.00     0.105 C 
ATOM     60  H23 STI d   1      24.764  19.095  22.826  0.00  0.00     0.279 HD
ATOM     61  C49 STI d   1      22.787  19.740  21.178  0.00  0.00     0.106 C 
ATOM     62  H27 STI d   1      22.432  18.897  23.150  0.00  0.00     0.078 H 
ATOM     63  H28 STI d   1      22.386  17.700  21.812  0.00  0.00     0.078 H 
ATOM     64  H29 STI d   1      21.727  19.933  20.958  0.00  0.00     0.078 H 
ATOM     65  H30 STI d   1      23.246  20.649  21.594  0.00  0.00     0.078 H 
ATOM     66  H18 STI d   1      23.084  18.495  19.600  0.00  0.00     0.280 HD
BRANCH  56  67
ATOM     67  C54 STI d   1      24.467  17.193  23.434  0.00  0.00     0.066 C 
ATOM     68  H24 STI d   1      23.917  17.466  24.347  0.00  0.00     0.068 H 
ATOM     69  H25 STI d   1      25.530  17.048  23.676  0.00  0.00     0.068 H 
ATOM     70  H26 STI d   1      24.054  16.260  23.022  0.00  0.00     0.068 H 
ENDBRANCH  56  67
ENDBRANCH  48  51
ENDBRANCH  42  48
ENDBRANCH   2  38
TORSDOF 9
