REMARK WARNING: 32 MAX_TORS EXCEEDED!!!
REMARK  81 active torsions:
REMARK  status: ('A' for Active; 'I' for Inactive)
REMARK    1  A    between atoms: N_1  and  CA_2 
REMARK    2  A    between atoms: CA_2  and  C_3 
REMARK    3  A    between atoms: CA_2  and  CB_5 
REMARK       I    between atoms: C_3  and  N_6 
REMARK    4  A    between atoms: N_6  and  CA_7 
REMARK    5  A    between atoms: CA_7  and  C_8 
REMARK       I    between atoms: C_8  and  N_10 
REMARK    6  A    between atoms: N_10  and  CA_11 
REMARK    7  A    between atoms: CA_11  and  C_12 
REMARK    8  A    between atoms: CA_11  and  CB_14 
REMARK       I    between atoms: C_12  and  N_17 
REMARK    9  A    between atoms: CB_14  and  CG1_15 
REMARK   10  A    between atoms: CB_14  and  CG2_16 
REMARK   11  A    between atoms: N_17  and  CA_18 
REMARK   12  A    between atoms: CA_18  and  C_19 
REMARK   13  A    between atoms: CA_18  and  CB_21 
REMARK       I    between atoms: C_19  and  N_24 
REMARK   14  A    between atoms: CB_21  and  CG1_22 
REMARK   15  A    between atoms: CB_21  and  CG2_23 
REMARK   16  A    between atoms: N_24  and  CA_25 
REMARK   17  A    between atoms: CA_25  and  C_26 
REMARK   18  A    between atoms: CA_25  and  CB_28 
REMARK       I    between atoms: C_26  and  N_29 
REMARK   19  A    between atoms: N_29  and  CA_30 
REMARK   20  A    between atoms: CA_30  and  C_31 
REMARK   21  A    between atoms: CA_30  and  CB_33 
REMARK       I    between atoms: C_31  and  N_35 
REMARK   22  A    between atoms: CB_33  and  OG_34 
REMARK   23  A    between atoms: N_35  and  CA_36 
REMARK   24  A    between atoms: CA_36  and  C_37 
REMARK   25  A    between atoms: CA_36  and  CB_39 
REMARK       I    between atoms: C_37  and  N_44 
REMARK   26  A    between atoms: CB_39  and  CG_40 
REMARK   27  A    between atoms: CG_40  and  CD_41 
REMARK       I    between atoms: CD_41  and  NE2_43 
REMARK   28  A    between atoms: N_44  and  CA_45 
REMARK   29  A    between atoms: CA_45  and  C_46 
REMARK   30  A    between atoms: CA_45  and  CB_48 
REMARK       I    between atoms: C_46  and  N_52 
REMARK   31  A    between atoms: CB_48  and  CG_49 
REMARK   32  A    between atoms: N_52  and  CA_53 
REMARK   33  A    between atoms: CA_53  and  C_54 
REMARK   34  A    between atoms: CA_53  and  CB_56 
REMARK       I    between atoms: C_54  and  N_61 
REMARK   35  A    between atoms: CB_56  and  CG_57 
REMARK   36  A    between atoms: CG_57  and  CD_58 
REMARK       I    between atoms: CD_58  and  NE2_60 
REMARK   37  A    between atoms: N_61  and  CA_62 
REMARK   38  A    between atoms: CA_62  and  C_63 
REMARK   39  A    between atoms: CA_62  and  CB_65 
REMARK       I    between atoms: C_63  and  N_68 
REMARK   40  A    between atoms: CB_65  and  CG1_66 
REMARK   41  A    between atoms: CB_65  and  CG2_67 
REMARK   42  A    between atoms: N_68  and  CA_69 
REMARK   43  A    between atoms: CA_69  and  C_70 
REMARK   44  A    between atoms: CA_69  and  CB_72 
REMARK       I    between atoms: C_70  and  N_76 
REMARK   45  A    between atoms: CB_72  and  CG_73 
REMARK   46  A    between atoms: N_76  and  CA_77 
REMARK   47  A    between atoms: CA_77  and  C_78 
REMARK   48  A    between atoms: CA_77  and  CB_80 
REMARK       I    between atoms: C_78  and  N_84 
REMARK   49  A    between atoms: CB_80  and  CG_81 
REMARK   50  A    between atoms: N_84  and  CA_85 
REMARK   51  A    between atoms: CA_85  and  C_86 
REMARK   52  A    between atoms: CA_85  and  CB_88 
REMARK       I    between atoms: C_86  and  N_92 
REMARK   53  A    between atoms: CB_88  and  CG_89 
REMARK   54  A    between atoms: CG_89  and  CD1_90 
REMARK   55  A    between atoms: CG_89  and  CD2_91 
REMARK   56  A    between atoms: N_92  and  CA_93 
REMARK   57  A    between atoms: CA_93  and  C_94 
REMARK   58  A    between atoms: CA_93  and  CB_96 
REMARK       I    between atoms: C_94  and  N_100 
REMARK   59  A    between atoms: CB_96  and  CG_97 
REMARK   60  A    between atoms: CG_97  and  CD1_98 
REMARK   61  A    between atoms: CG_97  and  CD2_99 
REMARK   62  A    between atoms: N_100  and  CA_101 
REMARK   63  A    between atoms: CA_101  and  C_102 
REMARK   64  A    between atoms: CA_101  and  CB_104 
REMARK       I    between atoms: C_102  and  N_108 
REMARK   65  A    between atoms: CB_104  and  CG_105 
REMARK   66  A    between atoms: N_108  and  CA_109 
REMARK   67  A    between atoms: CA_109  and  C_110 
REMARK   68  A    between atoms: CA_109  and  CB_112 
REMARK       I    between atoms: C_110  and  N_114 
REMARK   69  A    between atoms: CB_112  and  OG_113 
REMARK   70  A    between atoms: N_114  and  CA_115 
REMARK   71  A    between atoms: CA_115  and  C_116 
REMARK   72  A    between atoms: CA_115  and  CB_118 
REMARK       I    between atoms: C_116  and  N_122 
REMARK   73  A    between atoms: CB_118  and  CG_119 
REMARK   74  A    between atoms: CG_119  and  CD1_120 
REMARK   75  A    between atoms: CG_119  and  CD2_121 
REMARK   76  A    between atoms: N_122  and  CA_123 
REMARK   77  A    between atoms: CA_123  and  C_124 
REMARK       I    between atoms: C_124  and  N_126 
REMARK   78  A    between atoms: N_126  and  CA_127 
REMARK   79  A    between atoms: CA_127  and  C_128 
REMARK   80  A    between atoms: CA_127  and  CB_130 
REMARK   81  A    between atoms: CB_130  and  CG_131 
ROOT
ATOM      1  C   VAL d   1     -12.017  36.918 -19.812  0.00  0.00     0.241 C 
ATOM      2  O   VAL d   1     -11.609  37.972 -20.301  0.00  0.00    -0.271 OA
ATOM      3  N   ASP d   1     -11.257  35.831 -19.670  0.00  0.00    -0.345 N 
ATOM      4  H68 ASP d   1     -11.653  35.022 -19.235  0.00  0.00     0.163 HD
ENDROOT
BRANCH   1   5
ATOM      5  CA  VAL d   1     -13.464  36.789 -19.328  0.00  0.00     0.092 C 
ATOM      6  H60 VAL d   1     -14.044  37.622 -19.752  0.00  0.00     0.088 H 
BRANCH   5   7
ATOM      7  N   VAL d   1     -14.077  35.529 -19.801  0.00  0.00    -0.346 N 
ATOM      8  C   GLN d   1     -14.265  35.278 -21.099  0.00  0.00     0.241 C 
ATOM      9  O   GLN d   1     -13.982  36.083 -21.969  0.00  0.00    -0.271 OA
ATOM     10  H59 VAL d   1     -14.359  34.844 -19.129  0.00  0.00     0.163 HD
BRANCH   8  11
ATOM     11  CA  GLN d   1     -14.839  33.903 -21.479  0.00  0.00     0.090 C 
ATOM     12  H52 GLN d   1     -14.631  33.745 -22.547  0.00  0.00     0.087 H 
BRANCH  11  13
ATOM     13  N   GLN d   1     -14.207  32.815 -20.746  0.00  0.00    -0.346 N 
ATOM     14  C   ASP d   1     -12.889  32.639 -20.760  0.00  0.00     0.241 C 
ATOM     15  O   ASP d   1     -12.132  33.325 -21.439  0.00  0.00    -0.271 OA
ATOM     16  H51 GLN d   1     -14.778  32.185 -20.219  0.00  0.00     0.163 HD
BRANCH  14  17
ATOM     17  CA  ASP d   1     -12.334  31.540 -19.848  0.00  0.00     0.098 C 
ATOM     18  H48 ASP d   1     -11.254  31.716 -19.736  0.00  0.00     0.088 H 
BRANCH  17  19
ATOM     19  N   ASP d   1     -12.929  31.600 -18.518  0.00  0.00    -0.346 N 
ATOM     20  C   GLN d   1     -12.875  32.708 -17.778  0.00  0.00     0.241 C 
ATOM     21  O   GLN d   1     -12.326  33.748 -18.158  0.00  0.00    -0.271 OA
ATOM     22  H47 ASP d   1     -13.389  30.791 -18.152  0.00  0.00     0.163 HD
BRANCH  20  23
ATOM     23  CA  GLN d   1     -13.545  32.643 -16.408  0.00  0.00     0.090 C 
ATOM     24  H40 GLN d   1     -13.675  33.675 -16.050  0.00  0.00     0.087 H 
BRANCH  23  25
ATOM     25  N   GLN d   1     -14.869  32.027 -16.464  0.00  0.00    -0.346 N 
ATOM     26  C   SER d   1     -15.865  32.530 -17.197  0.00  0.00     0.243 C 
ATOM     27  O   SER d   1     -15.790  33.608 -17.810  0.00  0.00    -0.271 OA
ATOM     28  H39 GLN d   1     -15.035  31.196 -15.933  0.00  0.00     0.163 HD
BRANCH  26  29
ATOM     29  CA  SER d   1     -17.122  31.677 -17.265  0.00  0.00     0.109 C 
ATOM     30  H35 SER d   1     -17.298  31.231 -16.275  0.00  0.00     0.090 H 
BRANCH  29  31
ATOM     31  N   SER d   1     -18.290  32.471 -17.627  0.00  0.00    -0.344 N 
ATOM     32  C   ALA d   1     -19.525  32.122 -17.260  0.00  0.00     0.240 C 
ATOM     33  O   ALA d   1     -19.762  31.137 -16.542  0.00  0.00    -0.271 OA
ATOM     34  H34 SER d   1     -18.162  33.303 -18.167  0.00  0.00     0.163 HD
BRANCH  32  35
ATOM     35  CA  ALA d   1     -20.675  33.012 -17.773  0.00  0.00     0.086 C 
ATOM     36  H30 ALA d   1     -21.093  33.533 -16.899  0.00  0.00     0.086 H 
BRANCH  35  37
ATOM     37  N   ALA d   1     -20.249  34.048 -18.731  0.00  0.00    -0.346 N 
ATOM     38  C   VAL d   1     -20.404  35.345 -18.466  0.00  0.00     0.241 C 
ATOM     39  O   VAL d   1     -20.860  35.752 -17.391  0.00  0.00    -0.271 OA
ATOM     40  H29 ALA d   1     -19.835  33.772 -19.598  0.00  0.00     0.163 HD
BRANCH  38  41
ATOM     41  CA  VAL d   1     -20.011  36.345 -19.581  0.00  0.00     0.092 C 
ATOM     42  H21 VAL d   1     -20.075  35.836 -20.554  0.00  0.00     0.088 H 
BRANCH  41  43
ATOM     43  N   VAL d   1     -20.949  37.465 -19.575  0.00  0.00    -0.346 N 
ATOM     44  C   VAL d   1     -22.089  37.439 -20.322  0.00  0.00     0.241 C 
ATOM     45  O   VAL d   1     -22.295  36.643 -21.253  0.00  0.00    -0.271 OA
ATOM     46  H20 VAL d   1     -20.751  38.267 -19.012  0.00  0.00     0.163 HD
BRANCH  44  47
ATOM     47  CA  VAL d   1     -23.072  38.571 -19.998  0.00  0.00     0.092 C 
ATOM     48  H12 VAL d   1     -22.521  39.413 -19.554  0.00  0.00     0.088 H 
BRANCH  47  49
ATOM     49  N   VAL d   1     -23.730  39.037 -21.214  0.00  0.00    -0.346 N 
ATOM     50  C   GLY d   1     -23.450  40.202 -21.799  0.00  0.00     0.236 C 
ATOM     51  O   GLY d   1     -22.601  40.996 -21.378  0.00  0.00    -0.272 OA
ATOM     52  H11 VAL d   1     -24.427  38.453 -21.630  0.00  0.00     0.163 HD
BRANCH  50  53
ATOM     53  CA  GLY d   1     -24.238  40.493 -23.064  0.00  0.00     0.069 C 
ATOM     54  H9  GLY d   1     -25.019  41.238 -22.852  0.00  0.00     0.078 H 
ATOM     55  H10 GLY d   1     -23.563  40.880 -23.841  0.00  0.00     0.078 H 
BRANCH  53  56
ATOM     56  N   GLY d   1     -24.860  39.238 -23.525  0.00  0.00    -0.351 N 
ATOM     57  C   ALA d   1     -24.104  38.289 -24.143  0.00  0.00     0.248 C 
ATOM     58  O   ALA d   1     -22.960  38.530 -24.526  0.00  0.00    -0.271 OA
ATOM     59  H8  GLY d   1     -25.838  39.084 -23.384  0.00  0.00     0.163 HD
BRANCH  57  60
ATOM     60  CA  ALA d   1     -24.695  36.881 -24.353  0.00  0.00     0.172 C 
ATOM     61  H4  ALA d   1     -24.041  36.155 -23.849  0.00  0.00     0.098 H 
BRANCH  60  62
ATOM     62  N   ALA d   1     -26.045  36.758 -23.771  0.00  0.00    -0.067 N 
ATOM     63  H1  ALA d   1     -26.395  35.826 -23.929  0.00  0.00     0.275 HD
ATOM     64  H2  ALA d   1     -26.661  37.427 -24.206  0.00  0.00     0.275 HD
ATOM     65  H3  ALA d   1     -26.001  36.937 -22.780  0.00  0.00     0.275 HD
ENDBRANCH  60  62
BRANCH  60  66
ATOM     66  CB  ALA d   1     -24.719  36.555 -25.847  0.00  0.00    -0.042 C 
ATOM     67  H5  ALA d   1     -23.704  36.653 -26.260  0.00  0.00     0.030 H 
ATOM     68  H6  ALA d   1     -25.394  37.253 -26.364  0.00  0.00     0.030 H 
ATOM     69  H7  ALA d   1     -25.076  35.525 -25.992  0.00  0.00     0.030 H 
ENDBRANCH  60  66
ENDBRANCH  57  60
ENDBRANCH  53  56
ENDBRANCH  50  53
ENDBRANCH  47  49
BRANCH  47  70
ATOM     70  CB  VAL d   1     -24.091  38.042 -18.972  0.00  0.00    -0.033 C 
ATOM     71  H13 VAL d   1     -24.681  37.246 -19.449  0.00  0.00     0.042 H 
BRANCH  70  72
ATOM     72  CG1 VAL d   1     -23.376  37.450 -17.767  0.00  0.00    -0.071 C 
ATOM     73  H14 VAL d   1     -24.119  37.078 -17.046  0.00  0.00     0.028 H 
ATOM     74  H15 VAL d   1     -22.758  38.225 -17.290  0.00  0.00     0.028 H 
ATOM     75  H16 VAL d   1     -22.734  36.619 -18.093  0.00  0.00     0.028 H 
ENDBRANCH  70  72
BRANCH  70  76
ATOM     76  CG2 VAL d   1     -25.042  39.151 -18.545  0.00  0.00    -0.071 C 
ATOM     77  H17 VAL d   1     -25.547  39.563 -19.431  0.00  0.00     0.028 H 
ATOM     78  H18 VAL d   1     -24.474  39.948 -18.043  0.00  0.00     0.028 H 
ATOM     79  H19 VAL d   1     -25.793  38.744 -17.852  0.00  0.00     0.028 H 
ENDBRANCH  70  76
ENDBRANCH  47  70
ENDBRANCH  44  47
ENDBRANCH  41  43
BRANCH  41  80
ATOM     80  CB  VAL d   1     -18.545  36.841 -19.377  0.00  0.00    -0.033 C 
ATOM     81  H22 VAL d   1     -18.460  37.272 -18.368  0.00  0.00     0.042 H 
BRANCH  80  82
ATOM     82  CG1 VAL d   1     -17.577  35.687 -19.493  0.00  0.00    -0.071 C 
ATOM     83  H23 VAL d   1     -16.550  36.054 -19.347  0.00  0.00     0.028 H 
ATOM     84  H24 VAL d   1     -17.666  35.233 -20.491  0.00  0.00     0.028 H 
ATOM     85  H25 VAL d   1     -17.810  34.934 -18.726  0.00  0.00     0.028 H 
ENDBRANCH  80  82
BRANCH  80  86
ATOM     86  CG2 VAL d   1     -18.193  37.921 -20.399  0.00  0.00    -0.071 C 
ATOM     87  H26 VAL d   1     -18.902  38.757 -20.308  0.00  0.00     0.028 H 
ATOM     88  H27 VAL d   1     -18.252  37.499 -21.413  0.00  0.00     0.028 H 
ATOM     89  H28 VAL d   1     -17.172  38.284 -20.212  0.00  0.00     0.028 H 
ENDBRANCH  80  86
ENDBRANCH  41  80
ENDBRANCH  38  41
ENDBRANCH  35  37
BRANCH  35  90
ATOM     90  CB  ALA d   1     -21.781  32.158 -18.377  0.00  0.00    -0.049 C 
ATOM     91  H31 ALA d   1     -22.089  31.390 -17.652  0.00  0.00     0.030 H 
ATOM     92  H32 ALA d   1     -21.411  31.672 -19.291  0.00  0.00     0.030 H 
ATOM     93  H33 ALA d   1     -22.643  32.795 -18.624  0.00  0.00     0.030 H 
ENDBRANCH  35  90
ENDBRANCH  32  35
ENDBRANCH  29  31
BRANCH  29  94
ATOM     94  CB  SER d   1     -16.910  30.559 -18.280  0.00  0.00     0.044 C 
ATOM     95  H36 SER d   1     -17.889  30.188 -18.619  0.00  0.00     0.077 H 
ATOM     96  H37 SER d   1     -16.352  29.739 -17.804  0.00  0.00     0.077 H 
BRANCH  94  97
ATOM     97  OG  SER d   1     -16.168  31.040 -19.414  0.00  0.00    -0.398 OA
ATOM     98  H38 SER d   1     -16.046  30.331 -20.035  0.00  0.00     0.209 HD
ENDBRANCH  94  97
ENDBRANCH  29  94
ENDBRANCH  26  29
ENDBRANCH  23  25
BRANCH  23  99
ATOM     99  CB  GLN d   1     -12.639  31.908 -15.415  0.00  0.00    -0.030 C 
ATOM    100  H41 GLN d   1     -12.335  30.950 -15.861  0.00  0.00     0.037 H 
ATOM    101  H42 GLN d   1     -13.210  31.719 -14.494  0.00  0.00     0.037 H 
BRANCH  99 102
ATOM    102  CG  GLN d   1     -11.376  32.699 -15.052  0.00  0.00     0.011 C 
ATOM    103  H43 GLN d   1     -10.709  32.718 -15.927  0.00  0.00     0.047 H 
ATOM    104  H44 GLN d   1     -10.871  32.192 -14.217  0.00  0.00     0.047 H 
BRANCH 102 105
ATOM    105  CD  GLN d   1     -11.682  34.148 -14.635  0.00  0.00     0.215 C 
ATOM    106  OE1 GLN d   1     -12.524  34.388 -13.770  0.00  0.00    -0.274 OA
ATOM    107  NE2 GLN d   1     -10.994  35.114 -15.261  0.00  0.00    -0.370 N 
ATOM    108  H45 GLN d   1     -11.154  36.073 -15.028  0.00  0.00     0.159 HD
ATOM    109  H46 GLN d   1     -10.321  34.875 -15.961  0.00  0.00     0.159 HD
ENDBRANCH 102 105
ENDBRANCH  99 102
ENDBRANCH  23  99
ENDBRANCH  20  23
ENDBRANCH  17  19
BRANCH  17 110
ATOM    110  CB  ASP d   1     -12.514  30.146 -20.479  0.00  0.00     0.043 C 
ATOM    111  H49 ASP d   1     -12.448  30.241 -21.573  0.00  0.00     0.052 H 
ATOM    112  H50 ASP d   1     -13.506  29.758 -20.203  0.00  0.00     0.052 H 
BRANCH 110 113
ATOM    113  CG  ASP d   1     -11.439  29.146 -20.002  0.00  0.00     0.175 C 
ATOM    114  OD1 ASP d   1     -10.809  29.386 -18.945  0.00  0.00    -0.648 OA
ATOM    115  OD2 ASP d   1     -11.226  28.114 -20.684  0.00  0.00    -0.648 OA
ENDBRANCH 110 113
ENDBRANCH  17 110
ENDBRANCH  14  17
ENDBRANCH  11  13
BRANCH  11 116
ATOM    116  CB  GLN d   1     -16.357  33.872 -21.291  0.00  0.00    -0.030 C 
ATOM    117  H53 GLN d   1     -16.756  34.860 -21.564  0.00  0.00     0.037 H 
ATOM    118  H54 GLN d   1     -16.567  33.673 -20.230  0.00  0.00     0.037 H 
BRANCH 116 119
ATOM    119  CG  GLN d   1     -17.084  32.816 -22.127  0.00  0.00     0.011 C 
ATOM    120  H55 GLN d   1     -16.674  31.827 -21.875  0.00  0.00     0.047 H 
ATOM    121  H56 GLN d   1     -16.904  33.028 -23.191  0.00  0.00     0.047 H 
BRANCH 119 122
ATOM    122  CD  GLN d   1     -18.599  32.792 -21.884  0.00  0.00     0.215 C 
ATOM    123  OE1 GLN d   1     -19.140  33.637 -21.157  0.00  0.00    -0.274 OA
ATOM    124  NE2 GLN d   1     -19.287  31.824 -22.509  0.00  0.00    -0.370 N 
ATOM    125  H57 GLN d   1     -20.278  31.758 -22.389  0.00  0.00     0.159 HD
ATOM    126  H58 GLN d   1     -18.809  31.169 -23.095  0.00  0.00     0.159 HD
ENDBRANCH 119 122
ENDBRANCH 116 119
ENDBRANCH  11 116
ENDBRANCH   8  11
ENDBRANCH   5   7
BRANCH   5 127
ATOM    127  CB  VAL d   1     -13.505  36.915 -17.759  0.00  0.00    -0.033 C 
ATOM    128  H61 VAL d   1     -12.945  36.071 -17.330  0.00  0.00     0.042 H 
BRANCH 127 129
ATOM    129  CG1 VAL d   1     -12.838  38.228 -17.293  0.00  0.00    -0.071 C 
ATOM    130  H62 VAL d   1     -12.880  38.291 -16.196  0.00  0.00     0.028 H 
ATOM    131  H63 VAL d   1     -13.371  39.085 -17.730  0.00  0.00     0.028 H 
ATOM    132  H64 VAL d   1     -11.788  38.243 -17.621  0.00  0.00     0.028 H 
ENDBRANCH 127 129
BRANCH 127 133
ATOM    133  CG2 VAL d   1     -14.925  36.845 -17.264  0.00  0.00    -0.071 C 
ATOM    134  H65 VAL d   1     -15.386  35.906 -17.604  0.00  0.00     0.028 H 
ATOM    135  H66 VAL d   1     -15.495  37.698 -17.662  0.00  0.00     0.028 H 
ATOM    136  H67 VAL d   1     -14.932  36.880 -16.165  0.00  0.00     0.028 H 
ENDBRANCH 127 133
ENDBRANCH   5 127
ENDBRANCH   1   5
BRANCH   3 137
ATOM    137  CA  ASP d   1      -9.871  35.774 -20.124  0.00  0.00     0.098 C 
ATOM    138  H69 ASP d   1      -9.301  36.553 -19.596  0.00  0.00     0.088 H 
BRANCH 137 139
ATOM    139  C   ASP d   1      -9.778  36.034 -21.621  0.00  0.00     0.241 C 
ATOM    140  O   ASP d   1      -8.949  36.816 -22.071  0.00  0.00    -0.271 OA
ATOM    141  N   ASP d   1     -10.630  35.375 -22.388  0.00  0.00    -0.345 N 
ATOM    142  H72 ASP d   1     -11.282  34.743 -21.968  0.00  0.00     0.163 HD
BRANCH 141 143
ATOM    143  CA  ASP d   1     -10.636  35.553 -23.830  0.00  0.00     0.098 C 
ATOM    144  H73 ASP d   1      -9.627  35.334 -24.209  0.00  0.00     0.088 H 
BRANCH 143 145
ATOM    145  C   ASP d   1     -10.978  37.008 -24.189  0.00  0.00     0.241 C 
ATOM    146  O   ASP d   1     -10.322  37.623 -25.028  0.00  0.00    -0.271 OA
ATOM    147  N   LEU d   1     -11.985  37.558 -23.510  0.00  0.00    -0.346 N 
ATOM    148  H76 LEU d   1     -12.487  37.001 -22.849  0.00  0.00     0.163 HD
BRANCH 147 149
ATOM    149  CA  LEU d   1     -12.372  38.943 -23.704  0.00  0.00     0.089 C 
ATOM    150  H77 LEU d   1     -12.707  39.062 -24.745  0.00  0.00     0.087 H 
BRANCH 149 151
ATOM    151  C   LEU d   1     -11.176  39.884 -23.473  0.00  0.00     0.241 C 
ATOM    152  O   LEU d   1     -10.739  40.577 -24.405  0.00  0.00    -0.271 OA
ATOM    153  N   LEU d   1     -10.647  39.891 -22.241  0.00  0.00    -0.346 N 
ATOM    154  H87 LEU d   1     -11.031  39.289 -21.541  0.00  0.00     0.163 HD
BRANCH 153 155
ATOM    155  CA  LEU d   1      -9.520  40.759 -21.896  0.00  0.00     0.089 C 
ATOM    156  H88 LEU d   1      -9.863  41.798 -22.013  0.00  0.00     0.087 H 
BRANCH 155 157
ATOM    157  C   LEU d   1      -8.328  40.567 -22.834  0.00  0.00     0.241 C 
ATOM    158  O   LEU d   1      -7.665  41.534 -23.212  0.00  0.00    -0.271 OA
ATOM    159  N   ASP d   1      -8.077  39.320 -23.222  0.00  0.00    -0.346 N 
ATOM    160  H98 ASP d   1      -8.632  38.577 -22.848  0.00  0.00     0.163 HD
BRANCH 159 161
ATOM    161  CA  ASP d   1      -7.011  38.996 -24.182  0.00  0.00     0.098 C 
ATOM    162  H99 ASP d   1      -6.061  39.379 -23.781  0.00  0.00     0.088 H 
BRANCH 161 163
ATOM    163  C   ASP d   1      -7.255  39.643 -25.539  0.00  0.00     0.241 C 
ATOM    164  O   ASP d   1      -6.356  40.268 -26.099  0.00  0.00    -0.271 OA
ATOM    165  N   SER d   1      -8.486  39.499 -26.046  0.00  0.00    -0.344 N 
ATOM    166 2H10 SER d   1      -9.177  39.020 -25.504  0.00  0.00     0.163 HD
BRANCH 165 167
ATOM    167  CA  SER d   1      -8.860  40.018 -27.367  0.00  0.00     0.109 C 
ATOM    168 3H10 SER d   1      -8.183  39.559 -28.102  0.00  0.00     0.090 H 
BRANCH 167 169
ATOM    169  C   SER d   1      -8.703  41.529 -27.480  0.00  0.00     0.243 C 
ATOM    170  O   SER d   1      -8.723  42.076 -28.579  0.00  0.00    -0.271 OA
ATOM    171  N   LEU d   1      -8.532  42.196 -26.343  0.00  0.00    -0.346 N 
ATOM    172 7H10 LEU d   1      -8.430  41.690 -25.487  0.00  0.00     0.163 HD
BRANCH 171 173
ATOM    173  CA  LEU d   1      -8.491  43.656 -26.324  0.00  0.00     0.089 C 
ATOM    174 8H10 LEU d   1      -8.665  43.995 -27.356  0.00  0.00     0.087 H 
BRANCH 173 175
ATOM    175  C   LEU d   1      -7.147  44.228 -25.888  0.00  0.00     0.240 C 
ATOM    176  O   LEU d   1      -7.020  45.434 -25.698  0.00  0.00    -0.271 OA
ATOM    177  N   GLY d   1      -6.144  43.366 -25.747  0.00  0.00    -0.351 N 
ATOM    178 8H11 GLY d   1      -6.319  42.390 -25.875  0.00  0.00     0.163 HD
BRANCH 177 179
ATOM    179  CA  GLY d   1      -4.788  43.811 -25.408  0.00  0.00     0.069 C 
ATOM    180 9H11 GLY d   1      -4.619  44.791 -25.878  0.00  0.00     0.078 H 
ATOM    181 0H12 GLY d   1      -4.073  43.081 -25.815  0.00  0.00     0.078 H 
BRANCH 179 182
ATOM    182  C   GLY d   1      -4.531  43.948 -23.909  0.00  0.00     0.236 C 
ATOM    183  O   GLY d   1      -3.623  44.675 -23.495  0.00  0.00    -0.272 OA
ATOM    184  N   PHE d   1      -5.322  43.243 -23.095  0.00  0.00    -0.345 N 
ATOM    185 1H12 PHE d   1      -6.068  42.705 -23.488  0.00  0.00     0.163 HD
BRANCH 184 186
ATOM    186  CA  PHE d   1      -5.127  43.237 -21.646  0.00  0.00     0.100 C 
ATOM    187 2H12 PHE d   1      -4.385  44.013 -21.408  0.00  0.00     0.090 H 
BRANCH 186 188
ATOM    188  C   PHE d   1      -4.586  41.910 -21.132  0.00  0.00     0.197 C 
ATOM    189  O   PHE d   1      -4.499  41.697 -19.919  0.00  0.00    -0.646 OA
ATOM    190  OXT PHE d   1      -4.218  41.016 -21.903  0.00  0.00    -0.646 OA
ENDBRANCH 186 188
BRANCH 186 191
ATOM    191  CB  PHE d   1      -6.428  43.593 -20.929  0.00  0.00    -0.013 C 
ATOM    192 3H12 PHE d   1      -6.242  43.587 -19.845  0.00  0.00     0.043 H 
ATOM    193 4H12 PHE d   1      -7.183  42.832 -21.176  0.00  0.00     0.043 H 
BRANCH 191 194
ATOM    194  CG  PHE d   1      -6.968  44.943 -21.314  0.00  0.00    -0.056 A 
ATOM    195  CD1 PHE d   1      -8.055  45.047 -22.198  0.00  0.00    -0.077 A 
ATOM    196  CE1 PHE d   1      -8.541  46.293 -22.577  0.00  0.00    -0.082 A 
ATOM    197 5H12 PHE d   1      -8.519  44.148 -22.588  0.00  0.00     0.084 H 
ATOM    198  CZ  PHE d   1      -7.941  47.459 -22.073  0.00  0.00    -0.083 A 
ATOM    199 7H12 PHE d   1      -9.380  46.365 -23.259  0.00  0.00     0.083 H 
ATOM    200  CE2 PHE d   1      -6.856  47.370 -21.198  0.00  0.00    -0.082 A 
ATOM    201 9H12 PHE d   1      -8.322  48.431 -22.364  0.00  0.00     0.083 H 
ATOM    202  CD2 PHE d   1      -6.370  46.117 -20.826  0.00  0.00    -0.077 A 
ATOM    203 8H12 PHE d   1      -6.394  48.271 -20.810  0.00  0.00     0.083 H 
ATOM    204 6H12 PHE d   1      -5.522  46.048 -20.154  0.00  0.00     0.084 H 
ENDBRANCH 191 194
ENDBRANCH 186 191
ENDBRANCH 184 186
ENDBRANCH 179 182
ENDBRANCH 177 179
ENDBRANCH 173 175
BRANCH 173 205
ATOM    205  CB  LEU d   1      -9.620  44.217 -25.455  0.00  0.00    -0.035 C 
ATOM    206 9H10 LEU d   1      -9.439  45.294 -25.325  0.00  0.00     0.037 H 
ATOM    207 0H11 LEU d   1      -9.570  43.716 -24.477  0.00  0.00     0.037 H 
BRANCH 205 208
ATOM    208  CG  LEU d   1     -11.040  44.046 -25.992  0.00  0.00    -0.059 C 
ATOM    209 1H11 LEU d   1     -11.140  43.011 -26.350  0.00  0.00     0.038 H 
BRANCH 208 210
ATOM    210  CD1 LEU d   1     -12.073  44.255 -24.889  0.00  0.00    -0.073 C 
ATOM    211 2H11 LEU d   1     -13.084  44.126 -25.304  0.00  0.00     0.028 H 
ATOM    212 3H11 LEU d   1     -11.972  45.271 -24.480  0.00  0.00     0.028 H 
ATOM    213 4H11 LEU d   1     -11.909  43.519 -24.088  0.00  0.00     0.028 H 
ENDBRANCH 208 210
BRANCH 208 214
ATOM    214  CD2 LEU d   1     -11.294  44.979 -27.188  0.00  0.00    -0.073 C 
ATOM    215 5H11 LEU d   1     -10.532  44.800 -27.961  0.00  0.00     0.028 H 
ATOM    216 6H11 LEU d   1     -11.239  46.026 -26.855  0.00  0.00     0.028 H 
ATOM    217 7H11 LEU d   1     -12.292  44.778 -27.604  0.00  0.00     0.028 H 
ENDBRANCH 208 214
ENDBRANCH 205 208
ENDBRANCH 173 205
ENDBRANCH 171 173
ENDBRANCH 167 169
BRANCH 167 218
ATOM    218  CB  SER d   1     -10.307  39.608 -27.732  0.00  0.00     0.044 C 
ATOM    219 4H10 SER d   1     -10.489  38.585 -27.371  0.00  0.00     0.077 H 
ATOM    220 5H10 SER d   1     -10.419  39.636 -28.826  0.00  0.00     0.077 H 
BRANCH 218 221
ATOM    221  OG  SER d   1     -11.272  40.482 -27.146  0.00  0.00    -0.398 OA
ATOM    222 6H10 SER d   1     -11.185  40.459 -26.200  0.00  0.00     0.209 HD
ENDBRANCH 218 221
ENDBRANCH 167 218
ENDBRANCH 165 167
ENDBRANCH 161 163
BRANCH 161 223
ATOM    223  CB  ASP d   1      -6.893  37.480 -24.356  0.00  0.00     0.043 C 
ATOM    224 0H10 ASP d   1      -7.641  37.152 -25.093  0.00  0.00     0.052 H 
ATOM    225 1H10 ASP d   1      -7.096  36.998 -23.388  0.00  0.00     0.052 H 
BRANCH 223 226
ATOM    226  CG  ASP d   1      -5.521  37.048 -24.834  0.00  0.00     0.175 C 
ATOM    227  OD1 ASP d   1      -4.645  37.915 -25.080  0.00  0.00    -0.648 OA
ATOM    228  OD2 ASP d   1      -5.308  35.820 -24.948  0.00  0.00    -0.648 OA
ENDBRANCH 223 226
ENDBRANCH 161 223
ENDBRANCH 159 161
ENDBRANCH 155 157
BRANCH 155 229
ATOM    229  CB  LEU d   1      -9.101  40.574 -20.425  0.00  0.00    -0.035 C 
ATOM    230  H89 LEU d   1      -8.142  41.093 -20.282  0.00  0.00     0.037 H 
ATOM    231  H90 LEU d   1      -8.965  39.497 -20.248  0.00  0.00     0.037 H 
BRANCH 229 232
ATOM    232  CG  LEU d   1     -10.086  41.105 -19.359  0.00  0.00    -0.059 C 
ATOM    233  H91 LEU d   1     -10.990  40.480 -19.398  0.00  0.00     0.038 H 
BRANCH 232 234
ATOM    234  CD1 LEU d   1      -9.511  40.996 -17.953  0.00  0.00    -0.073 C 
ATOM    235  H92 LEU d   1     -10.241  41.383 -17.227  0.00  0.00     0.028 H 
ATOM    236  H93 LEU d   1      -8.584  41.584 -17.890  0.00  0.00     0.028 H 
ATOM    237  H94 LEU d   1      -9.293  39.942 -17.727  0.00  0.00     0.028 H 
ENDBRANCH 232 234
BRANCH 232 238
ATOM    238  CD2 LEU d   1     -10.496  42.539 -19.672  0.00  0.00    -0.073 C 
ATOM    239  H95 LEU d   1     -10.907  42.589 -20.691  0.00  0.00     0.028 H 
ATOM    240  H96 LEU d   1      -9.617  43.196 -19.599  0.00  0.00     0.028 H 
ATOM    241  H97 LEU d   1     -11.260  42.867 -18.952  0.00  0.00     0.028 H 
ENDBRANCH 232 238
ENDBRANCH 229 232
ENDBRANCH 155 229
ENDBRANCH 153 155
ENDBRANCH 149 151
BRANCH 149 242
ATOM    242  CB  LEU d   1     -13.543  39.321 -22.775  0.00  0.00    -0.035 C 
ATOM    243  H78 LEU d   1     -13.104  39.679 -21.832  0.00  0.00     0.037 H 
ATOM    244  H79 LEU d   1     -14.116  38.401 -22.587  0.00  0.00     0.037 H 
BRANCH 242 245
ATOM    245  CG  LEU d   1     -14.552  40.395 -23.242  0.00  0.00    -0.059 C 
ATOM    246  H80 LEU d   1     -15.401  39.860 -23.692  0.00  0.00     0.038 H 
BRANCH 245 247
ATOM    247  CD1 LEU d   1     -15.091  41.190 -22.049  0.00  0.00    -0.073 C 
ATOM    248  H81 LEU d   1     -15.806  41.947 -22.405  0.00  0.00     0.028 H 
ATOM    249  H82 LEU d   1     -14.257  41.688 -21.533  0.00  0.00     0.028 H 
ATOM    250  H83 LEU d   1     -15.598  40.507 -21.352  0.00  0.00     0.028 H 
ENDBRANCH 245 247
BRANCH 245 251
ATOM    251  CD2 LEU d   1     -14.003  41.332 -24.315  0.00  0.00    -0.073 C 
ATOM    252  H84 LEU d   1     -13.623  40.739 -25.160  0.00  0.00     0.028 H 
ATOM    253  H85 LEU d   1     -13.185  41.934 -23.892  0.00  0.00     0.028 H 
ATOM    254  H86 LEU d   1     -14.805  41.998 -24.666  0.00  0.00     0.028 H 
ENDBRANCH 245 251
ENDBRANCH 242 245
ENDBRANCH 149 242
ENDBRANCH 147 149
ENDBRANCH 143 145
BRANCH 143 255
ATOM    255  CB  ASP d   1     -11.616  34.576 -24.490  0.00  0.00     0.043 C 
ATOM    256  H74 ASP d   1     -12.643  34.909 -24.279  0.00  0.00     0.052 H 
ATOM    257  H75 ASP d   1     -11.460  33.575 -24.061  0.00  0.00     0.052 H 
BRANCH 255 258
ATOM    258  CG  ASP d   1     -11.432  34.496 -25.980  0.00  0.00     0.175 C 
ATOM    259  OD1 ASP d   1     -12.210  35.148 -26.709  0.00  0.00    -0.648 OA
ATOM    260  OD2 ASP d   1     -10.495  33.801 -26.429  0.00  0.00    -0.648 OA
ENDBRANCH 255 258
ENDBRANCH 143 255
ENDBRANCH 141 143
ENDBRANCH 137 139
BRANCH 137 261
ATOM    261  CB  ASP d   1      -9.251  34.408 -19.802  0.00  0.00     0.043 C 
ATOM    262  H70 ASP d   1      -8.264  34.348 -20.283  0.00  0.00     0.052 H 
ATOM    263  H71 ASP d   1      -9.905  33.621 -20.207  0.00  0.00     0.052 H 
BRANCH 261 264
ATOM    264  CG  ASP d   1      -9.079  34.176 -18.313  0.00  0.00     0.175 C 
ATOM    265  OD1 ASP d   1      -9.434  35.076 -17.509  0.00  0.00    -0.648 OA
ATOM    266  OD2 ASP d   1      -8.575  33.086 -17.945  0.00  0.00    -0.648 OA
ENDBRANCH 261 264
ENDBRANCH 137 261
ENDBRANCH   3 137
TORSDOF 81
