REMARK  10 active torsions:
REMARK  status: ('A' for Active; 'I' for Inactive)
REMARK    1  A    between atoms: CA_2  and  N_1 
REMARK    2  A    between atoms: CA_2  and  C_3 
REMARK    3  A    between atoms: CA_2  and  CB_6 
REMARK    4  A    between atoms: CB_6  and  CG_7 
REMARK    5  A    between atoms: CG_7  and  CD_8 
REMARK    6  A    between atoms: CD_8  and  CE_9 
REMARK    7  A    between atoms: CE_9  and  B_10 
REMARK    8  A    between atoms: B_10  and  O2_11 
REMARK    9  A    between atoms: B_10  and  O1_12 
REMARK   10  A    between atoms: B_10  and  O3_13 
ROOT
ATOM      1  CG  ABH d   1      -1.919  27.726 -38.506  0.00  0.00    -0.063 C 
ATOM      2  H7  ABH d   1      -1.680  26.754 -38.962  0.00  0.00     0.033 H 
ATOM      3  H8  ABH d   1      -1.904  27.630 -37.410  0.00  0.00     0.033 H 
ENDROOT
BRANCH   1   4
ATOM      4  CB  ABH d   1      -3.302  28.189 -38.967  0.00  0.00    -0.029 C 
ATOM      5  H5  ABH d   1      -3.500  29.173 -38.517  0.00  0.00     0.036 H 
ATOM      6  H6  ABH d   1      -3.283  28.284 -40.063  0.00  0.00     0.036 H 
BRANCH   4   7
ATOM      7  CA  ABH d   1      -4.474  27.237 -38.585  0.00  0.00     0.182 C 
ATOM      8  H4  ABH d   1      -5.402  27.551 -39.086  0.00  0.00     0.101 H 
BRANCH   7   9
ATOM      9  N   ABH d   1      -4.639  27.232 -37.097  0.00  0.00    -0.065 N 
ATOM     10  H1  ABH d   1      -4.888  28.157 -36.783  0.00  0.00     0.275 HD
ATOM     11  H2  ABH d   1      -3.773  26.952 -36.664  0.00  0.00     0.275 HD
ATOM     12  H3  ABH d   1      -5.367  26.584 -36.842  0.00  0.00     0.275 HD
ENDBRANCH   7   9
BRANCH   7  13
ATOM     13  C   ABH d   1      -4.089  25.760 -38.976  0.00  0.00     0.204 C 
ATOM     14  O   ABH d   1      -3.851  25.369 -40.094  0.00  0.00    -0.646 OA
ATOM     15  OT  ABH d   1      -4.019  24.945 -37.898  0.00  0.00    -0.646 OA
ENDBRANCH   7  13
ENDBRANCH   4   7
ENDBRANCH   1   4
BRANCH   1  16
ATOM     16  CD  ABH d   1      -0.886  28.782 -38.953  0.00  0.00    -0.068 C 
ATOM     17  H9  ABH d   1      -1.046  29.700 -38.368  0.00  0.00     0.032 H 
ATOM     18  H10 ABH d   1      -1.041  28.996 -40.021  0.00  0.00     0.032 H 
BRANCH  16  19
ATOM     19  CE  ABH d   1       0.545  28.325 -38.754  0.00  0.00    -0.015 C 
ATOM     20  H11 ABH d   1       0.553  27.271 -38.440  0.00  0.00     0.029 H 
ATOM     21  H12 ABH d   1       1.022  28.942 -37.978  0.00  0.00     0.029 H 
ATOM     22  H13 ABH d   1       1.098  28.431 -39.699  0.00  0.00     0.029 H 
BRANCH  19  23
ATOM     23  B   ABH d   1       1.749  29.347 -38.654  0.00  0.00     0.600 B 
BRANCH  23  24
ATOM     24  O2  ABH d   1       2.977  28.615 -38.479  0.00  0.00    -0.410 OA
ATOM     25  H14 ABH d   1       2.918  28.082 -37.695  0.00  0.00     0.188 HD
ENDBRANCH  23  24
BRANCH  23  26
ATOM     26  O1  ABH d   1       1.620  30.160 -37.469  0.00  0.00    -0.410 OA
ATOM     27  H15 ABH d   1       2.368  30.742 -37.403  0.00  0.00     0.188 HD
ENDBRANCH  23  26
BRANCH  23  28
ATOM     28  O3  ABH d   1       1.946  30.245 -39.772  0.00  0.00    -0.410 OA
ATOM     29  H18 ABH d   1       2.150  29.740 -40.550  0.00  0.00     0.188 HD
ENDBRANCH  23  28
ENDBRANCH  19  23
ENDBRANCH  16  19
ENDBRANCH   1  16
TORSDOF 10
