REMARK WARNING: 32 MAX_TORS EXCEEDED!!!
REMARK  36 active torsions:
REMARK  status: ('A' for Active; 'I' for Inactive)
REMARK    1  A    between atoms: N_1  and  CA_2 
REMARK    2  A    between atoms: CA_2  and  C_3 
REMARK    3  A    between atoms: CA_2  and  CB_5 
REMARK       I    between atoms: C_3  and  N_9 
REMARK    4  A    between atoms: CB_5  and  CG_6 
REMARK    5  A    between atoms: N_9  and  CA_10 
REMARK    6  A    between atoms: CA_10  and  C_11 
REMARK    7  A    between atoms: CA_10  and  CB_13 
REMARK       I    between atoms: C_11  and  N_17 
REMARK    8  A    between atoms: CB_13  and  CG_14 
REMARK    9  A    between atoms: CG_14  and  CD1_15 
REMARK   10  A    between atoms: CG_14  and  CD2_16 
REMARK   11  A    between atoms: N_17  and  CA_18 
REMARK   12  A    between atoms: CA_18  and  C_19 
REMARK   13  A    between atoms: CA_18  and  CB_21 
REMARK       I    between atoms: C_19  and  N_25 
REMARK   14  A    between atoms: CB_21  and  CG_22 
REMARK   15  A    between atoms: CG_22  and  CD1_23 
REMARK   16  A    between atoms: CG_22  and  CD2_24 
REMARK   17  A    between atoms: N_25  and  CA_26 
REMARK   18  A    between atoms: CA_26  and  C_27 
REMARK   19  A    between atoms: CA_26  and  CB_29 
REMARK       I    between atoms: C_27  and  N_33 
REMARK   20  A    between atoms: CB_29  and  CG_30 
REMARK   21  A    between atoms: N_33  and  CA_34 
REMARK   22  A    between atoms: CA_34  and  C_35 
REMARK   23  A    between atoms: CA_34  and  CB_37 
REMARK       I    between atoms: C_35  and  N_39 
REMARK   24  A    between atoms: CB_37  and  OG_38 
REMARK   25  A    between atoms: N_39  and  CA_40 
REMARK   26  A    between atoms: CA_40  and  C_41 
REMARK   27  A    between atoms: CA_40  and  CB_43 
REMARK       I    between atoms: C_41  and  N_47 
REMARK   28  A    between atoms: CB_43  and  CG_44 
REMARK   29  A    between atoms: CG_44  and  CD1_45 
REMARK   30  A    between atoms: CG_44  and  CD2_46 
REMARK   31  A    between atoms: N_47  and  CA_48 
REMARK   32  A    between atoms: CA_48  and  C_49 
REMARK       I    between atoms: C_49  and  N_51 
REMARK   33  A    between atoms: N_51  and  CA_52 
REMARK   34  A    between atoms: CA_52  and  C_53 
REMARK   35  A    between atoms: CA_52  and  CB_55 
REMARK   36  A    between atoms: CB_55  and  CG_56 
ROOT
ATOM      1  CA  ASP d   1      -1.740  17.512  -1.982  0.00  0.00     0.098 C 
ATOM      2  H30 ASP d   1      -2.407  17.085  -2.745  0.00  0.00     0.088 H 
ENDROOT
BRANCH   1   3
ATOM      3  N   ASP d   1      -0.427  17.733  -2.613  0.00  0.00    -0.346 N 
ATOM      4  C   LEU d   1      -0.248  18.479  -3.704  0.00  0.00     0.241 C 
ATOM      5  O   LEU d   1      -1.119  19.203  -4.175  0.00  0.00    -0.271 OA
ATOM      6  H29 ASP d   1       0.374  17.300  -2.200  0.00  0.00     0.163 HD
BRANCH   4   7
ATOM      7  CA  LEU d   1       1.147  18.435  -4.338  0.00  0.00     0.089 C 
ATOM      8  H19 LEU d   1       1.195  19.247  -5.079  0.00  0.00     0.087 H 
BRANCH   7   9
ATOM      9  N   LEU d   1       2.218  18.673  -3.367  0.00  0.00    -0.346 N 
ATOM     10  C   LEU d   1       2.113  19.610  -2.421  0.00  0.00     0.241 C 
ATOM     11  O   LEU d   1       1.080  20.257  -2.223  0.00  0.00    -0.271 OA
ATOM     12  H18 LEU d   1       3.050  18.119  -3.414  0.00  0.00     0.163 HD
BRANCH  10  13
ATOM     13  CA  LEU d   1       3.338  19.834  -1.539  0.00  0.00     0.089 C 
ATOM     14  H8  LEU d   1       3.069  20.575  -0.771  0.00  0.00     0.087 H 
BRANCH  13  15
ATOM     15  N   LEU d   1       3.733  18.603  -0.852  0.00  0.00    -0.346 N 
ATOM     16  C   ASP d   1       2.973  18.059   0.094  0.00  0.00     0.249 C 
ATOM     17  O   ASP d   1       1.852  18.498   0.393  0.00  0.00    -0.271 OA
ATOM     18  H7  LEU d   1       4.595  18.161  -1.100  0.00  0.00     0.163 HD
BRANCH  16  19
ATOM     19  CA  ASP d   1       3.553  16.833   0.804  0.00  0.00     0.185 C 
ATOM     20  H4  ASP d   1       2.715  16.202   1.136  0.00  0.00     0.100 H 
BRANCH  19  21
ATOM     21  N   ASP d   1       4.407  16.022  -0.121  0.00  0.00    -0.066 N 
ATOM     22  H1  ASP d   1       4.774  15.224   0.373  0.00  0.00     0.275 HD
ATOM     23  H2  ASP d   1       5.170  16.588  -0.457  0.00  0.00     0.275 HD
ATOM     24  H3  ASP d   1       3.852  15.708  -0.902  0.00  0.00     0.275 HD
ENDBRANCH  19  21
BRANCH  19  25
ATOM     25  CB  ASP d   1       4.355  17.261   2.047  0.00  0.00     0.050 C 
ATOM     26  H5  ASP d   1       4.934  18.162   1.797  0.00  0.00     0.052 H 
ATOM     27  H6  ASP d   1       5.043  16.446   2.317  0.00  0.00     0.052 H 
BRANCH  25  28
ATOM     28  CG  ASP d   1       3.464  17.574   3.263  0.00  0.00     0.175 C 
ATOM     29  OD1 ASP d   1       2.313  18.059   3.095  0.00  0.00    -0.648 OA
ATOM     30  OD2 ASP d   1       3.938  17.347   4.402  0.00  0.00    -0.648 OA
ENDBRANCH  25  28
ENDBRANCH  19  25
ENDBRANCH  16  19
ENDBRANCH  13  15
BRANCH  13  31
ATOM     31  CB  LEU d   1       4.502  20.408  -2.361  0.00  0.00    -0.035 C 
ATOM     32  H9  LEU d   1       4.430  21.504  -2.301  0.00  0.00     0.037 H 
ATOM     33  H10 LEU d   1       4.351  20.087  -3.402  0.00  0.00     0.037 H 
BRANCH  31  34
ATOM     34  CG  LEU d   1       5.949  20.026  -1.974  0.00  0.00    -0.059 C 
ATOM     35  H11 LEU d   1       5.976  18.931  -1.870  0.00  0.00     0.038 H 
BRANCH  34  36
ATOM     36  CD1 LEU d   1       6.892  20.409  -3.093  0.00  0.00    -0.073 C 
ATOM     37  H12 LEU d   1       7.921  20.136  -2.815  0.00  0.00     0.028 H 
ATOM     38  H13 LEU d   1       6.834  21.494  -3.266  0.00  0.00     0.028 H 
ATOM     39  H14 LEU d   1       6.607  19.876  -4.012  0.00  0.00     0.028 H 
ENDBRANCH  34  36
BRANCH  34  40
ATOM     40  CD2 LEU d   1       6.437  20.621  -0.619  0.00  0.00    -0.073 C 
ATOM     41  H15 LEU d   1       5.739  20.332   0.181  0.00  0.00     0.028 H 
ATOM     42  H16 LEU d   1       6.476  21.718  -0.693  0.00  0.00     0.028 H 
ATOM     43  H17 LEU d   1       7.440  20.233  -0.388  0.00  0.00     0.028 H 
ENDBRANCH  34  40
ENDBRANCH  31  34
ENDBRANCH  13  31
ENDBRANCH  10  13
ENDBRANCH   7   9
BRANCH   7  44
ATOM     44  CB  LEU d   1       1.360  17.107  -5.090  0.00  0.00    -0.035 C 
ATOM     45  H20 LEU d   1       0.365  16.766  -5.413  0.00  0.00     0.037 H 
ATOM     46  H21 LEU d   1       1.773  16.395  -4.360  0.00  0.00     0.037 H 
BRANCH  44  47
ATOM     47  CG  LEU d   1       2.276  17.042  -6.337  0.00  0.00    -0.059 C 
ATOM     48  H22 LEU d   1       3.142  17.694  -6.147  0.00  0.00     0.038 H 
BRANCH  47  49
ATOM     49  CD1 LEU d   1       2.806  15.608  -6.563  0.00  0.00    -0.073 C 
ATOM     50  H23 LEU d   1       3.452  15.592  -7.453  0.00  0.00     0.028 H 
ATOM     51  H24 LEU d   1       1.958  14.923  -6.713  0.00  0.00     0.028 H 
ATOM     52  H25 LEU d   1       3.385  15.288  -5.684  0.00  0.00     0.028 H 
ENDBRANCH  47  49
BRANCH  47  53
ATOM     53  CD2 LEU d   1       1.564  17.569  -7.603  0.00  0.00    -0.073 C 
ATOM     54  H26 LEU d   1       1.196  18.589  -7.419  0.00  0.00     0.028 H 
ATOM     55  H27 LEU d   1       0.716  16.912  -7.847  0.00  0.00     0.028 H 
ATOM     56  H28 LEU d   1       2.273  17.581  -8.444  0.00  0.00     0.028 H 
ENDBRANCH  47  53
ENDBRANCH  44  47
ENDBRANCH   7  44
ENDBRANCH   4   7
ENDBRANCH   1   3
BRANCH   1  57
ATOM     57  C   ASP d   1      -2.392  18.792  -1.456  0.00  0.00     0.241 C 
ATOM     58  O   ASP d   1      -3.516  19.139  -1.843  0.00  0.00    -0.271 OA
ATOM     59  N   SER d   1      -1.675  19.468  -0.560  0.00  0.00    -0.344 N 
ATOM     60  H33 SER d   1      -0.794  19.087  -0.279  0.00  0.00     0.163 HD
BRANCH  59  61
ATOM     61  CA  SER d   1      -2.099  20.732   0.036  0.00  0.00     0.109 C 
ATOM     62  H34 SER d   1      -2.902  20.529   0.760  0.00  0.00     0.090 H 
BRANCH  61  63
ATOM     63  C   SER d   1      -2.607  21.737  -0.994  0.00  0.00     0.243 C 
ATOM     64  O   SER d   1      -3.429  22.606  -0.691  0.00  0.00    -0.271 OA
ATOM     65  N   LEU d   1      -2.108  21.621  -2.212  0.00  0.00    -0.346 N 
ATOM     66  H38 LEU d   1      -1.498  20.856  -2.422  0.00  0.00     0.163 HD
BRANCH  65  67
ATOM     67  CA  LEU d   1      -2.426  22.577  -3.246  0.00  0.00     0.089 C 
ATOM     68  H39 LEU d   1      -2.605  23.551  -2.767  0.00  0.00     0.087 H 
BRANCH  67  69
ATOM     69  C   LEU d   1      -3.685  22.205  -4.029  0.00  0.00     0.240 C 
ATOM     70  O   LEU d   1      -4.064  22.903  -4.986  0.00  0.00    -0.271 OA
ATOM     71  N   GLY d   1      -4.336  21.117  -3.615  0.00  0.00    -0.351 N 
ATOM     72  H49 GLY d   1      -4.048  20.669  -2.769  0.00  0.00     0.163 HD
BRANCH  71  73
ATOM     73  CA  GLY d   1      -5.463  20.563  -4.369  0.00  0.00     0.069 C 
ATOM     74  H50 GLY d   1      -6.168  21.375  -4.601  0.00  0.00     0.078 H 
ATOM     75  H51 GLY d   1      -5.966  19.807  -3.749  0.00  0.00     0.078 H 
BRANCH  73  76
ATOM     76  C   GLY d   1      -5.018  19.910  -5.676  0.00  0.00     0.236 C 
ATOM     77  O   GLY d   1      -5.843  19.653  -6.563  0.00  0.00    -0.272 OA
ATOM     78  N   PHE d   1      -3.711  19.652  -5.795  0.00  0.00    -0.345 N 
ATOM     79  H52 PHE d   1      -3.086  19.994  -5.093  0.00  0.00     0.163 HD
BRANCH  78  80
ATOM     80  CA  PHE d   1      -3.161  18.884  -6.920  0.00  0.00     0.100 C 
ATOM     81  H53 PHE d   1      -3.828  19.034  -7.781  0.00  0.00     0.090 H 
BRANCH  80  82
ATOM     82  C   PHE d   1      -3.115  17.373  -6.615  0.00  0.00     0.197 C 
ATOM     83  O   PHE d   1      -2.958  16.540  -7.517  0.00  0.00    -0.646 OA
ATOM     84  OXT PHE d   1      -3.239  16.936  -5.464  0.00  0.00    -0.646 OA
ENDBRANCH  80  82
BRANCH  80  85
ATOM     85  CB  PHE d   1      -1.762  19.382  -7.314  0.00  0.00    -0.013 C 
ATOM     86  H54 PHE d   1      -1.414  18.785  -8.170  0.00  0.00     0.043 H 
ATOM     87  H55 PHE d   1      -1.088  19.225  -6.459  0.00  0.00     0.043 H 
BRANCH  85  88
ATOM     88  CG  PHE d   1      -1.701  20.848  -7.702  0.00  0.00    -0.056 A 
ATOM     89  CD1 PHE d   1      -2.849  21.552  -8.072  0.00  0.00    -0.077 A 
ATOM     90  CE1 PHE d   1      -2.776  22.898  -8.437  0.00  0.00    -0.082 A 
ATOM     91  H56 PHE d   1      -3.808  21.047  -8.076  0.00  0.00     0.084 H 
ATOM     92  CZ  PHE d   1      -1.548  23.546  -8.454  0.00  0.00    -0.083 A 
ATOM     93  H58 PHE d   1      -3.677  23.436  -8.707  0.00  0.00     0.083 H 
ATOM     94  CE2 PHE d   1      -0.394  22.853  -8.106  0.00  0.00    -0.082 A 
ATOM     95  H60 PHE d   1      -1.489  24.590  -8.738  0.00  0.00     0.083 H 
ATOM     96  CD2 PHE d   1      -0.474  21.513  -7.736  0.00  0.00    -0.077 A 
ATOM     97  H59 PHE d   1       0.567  23.355  -8.123  0.00  0.00     0.083 H 
ATOM     98  H57 PHE d   1       0.430  20.978  -7.470  0.00  0.00     0.084 H 
ENDBRANCH  85  88
ENDBRANCH  80  85
ENDBRANCH  78  80
ENDBRANCH  73  76
ENDBRANCH  71  73
ENDBRANCH  67  69
BRANCH  67  99
ATOM     99  CB  LEU d   1      -1.232  22.710  -4.180  0.00  0.00    -0.035 C 
ATOM    100  H40 LEU d   1      -1.518  23.341  -5.034  0.00  0.00     0.037 H 
ATOM    101  H41 LEU d   1      -0.951  21.710  -4.541  0.00  0.00     0.037 H 
BRANCH  99 102
ATOM    102  CG  LEU d   1      -0.032  23.337  -3.486  0.00  0.00    -0.059 C 
ATOM    103  H42 LEU d   1      -0.012  22.990  -2.442  0.00  0.00     0.038 H 
BRANCH 102 104
ATOM    104  CD1 LEU d   1       1.258  22.904  -4.152  0.00  0.00    -0.073 C 
ATOM    105  H43 LEU d   1       2.111  23.368  -3.635  0.00  0.00     0.028 H 
ATOM    106  H44 LEU d   1       1.251  23.221  -5.205  0.00  0.00     0.028 H 
ATOM    107  H45 LEU d   1       1.349  21.809  -4.099  0.00  0.00     0.028 H 
ENDBRANCH 102 104
BRANCH 102 108
ATOM    108  CD2 LEU d   1      -0.177  24.852  -3.484  0.00  0.00    -0.073 C 
ATOM    109  H46 LEU d   1      -1.122  25.129  -2.994  0.00  0.00     0.028 H 
ATOM    110  H47 LEU d   1      -0.179  25.222  -4.520  0.00  0.00     0.028 H 
ATOM    111  H48 LEU d   1       0.665  25.300  -2.936  0.00  0.00     0.028 H 
ENDBRANCH 102 108
ENDBRANCH  99 102
ENDBRANCH  67  99
ENDBRANCH  65  67
ENDBRANCH  61  63
BRANCH  61 112
ATOM    112  CB  SER d   1      -0.914  21.349   0.747  0.00  0.00     0.044 C 
ATOM    113  H35 SER d   1      -0.668  20.752   1.637  0.00  0.00     0.077 H 
ATOM    114  H36 SER d   1      -1.163  22.376   1.052  0.00  0.00     0.077 H 
BRANCH 112 115
ATOM    115  OG  SER d   1       0.199  21.372  -0.128  0.00  0.00    -0.398 OA
ATOM    116  H37 SER d   1       0.412  20.484  -0.390  0.00  0.00     0.209 HD
ENDBRANCH 112 115
ENDBRANCH  61 112
ENDBRANCH  59  61
ENDBRANCH   1  57
BRANCH   1 117
ATOM    117  CB  ASP d   1      -1.610  16.499  -0.825  0.00  0.00     0.043 C 
ATOM    118  H31 ASP d   1      -2.549  16.501  -0.252  0.00  0.00     0.052 H 
ATOM    119  H32 ASP d   1      -0.782  16.816  -0.174  0.00  0.00     0.052 H 
BRANCH 117 120
ATOM    120  CG  ASP d   1      -1.333  15.064  -1.303  0.00  0.00     0.175 C 
ATOM    121  OD1 ASP d   1      -1.416  14.783  -2.524  0.00  0.00    -0.648 OA
ATOM    122  OD2 ASP d   1      -1.037  14.207  -0.436  0.00  0.00    -0.648 OA
ENDBRANCH 117 120
ENDBRANCH   1 117
TORSDOF 36
