REMARK  10 active torsions:
REMARK  status: ('A' for Active; 'I' for Inactive)
REMARK    1  A    between atoms: O3A_8  and  PB_1 
REMARK    2  A    between atoms: PA_5  and  O3A_8 
REMARK    3  A    between atoms: PA_5  and  O5'_9 
REMARK    4  A    between atoms: O5'_9  and  C5'_10 
REMARK    5  A    between atoms: C5'_10  and  C4'_11 
REMARK    6  A    between atoms: C1'_17  and  N9_18 
REMARK    7  A    between atoms: C6_22  and  N6_23 
REMARK    8  A    between atoms: C2F_29  and  N2F_34 
REMARK    9  A    between atoms: C4F_31  and  N4F_35 
REMARK   10  A    between atoms: C6F_33  and  N6F_36 
ROOT
ATOM      1  C4' 128 d   1     -30.268  18.617 -12.920  0.00  0.00     0.089 C 
ATOM      2  O4' 128 d   1     -30.681  19.743 -12.160  0.00  0.00    -0.353 OA
ATOM      3  C3' 128 d   1     -29.016  18.983 -13.726  0.00  0.00     0.098 C 
ATOM      4  O3' 128 d   1     -29.200  18.713 -15.165  0.00  0.00    -0.337 OA
ATOM      5  C2' 128 d   1     -28.859  20.473 -13.570  0.00  0.00     0.112 C 
ATOM      6  O2' 128 d   1     -28.832  20.995 -14.926  0.00  0.00    -0.335 OA
ATOM      7  C1' 128 d   1     -30.100  20.928 -12.817  0.00  0.00     0.140 C 
ATOM      8  C1F 128 d   1     -29.140  19.949 -15.903  0.00  0.00     0.247 A 
ATOM      9  C2F 128 d   1     -27.905  19.891 -16.825  0.00  0.00     0.147 A 
ATOM     10  C3F 128 d   1     -28.008  20.131 -18.207  0.00  0.00    -0.018 A 
ATOM     11  C4F 128 d   1     -29.217  20.418 -18.834  0.00  0.00     0.103 A 
ATOM     12  C5F 128 d   1     -30.380  20.502 -18.120  0.00  0.00    -0.038 A 
ATOM     13  C6F 128 d   1     -30.429  20.274 -16.744  0.00  0.00     0.152 A 
ATOM     14  H3  128 d   1     -31.074  18.255 -13.575  0.00  0.00     0.090 H 
ATOM     15  H4  128 d   1     -28.137  18.442 -13.345  0.00  0.00     0.091 H 
ATOM     16  H5  128 d   1     -27.944  20.744 -13.024  0.00  0.00     0.094 H 
ATOM     17  H6  128 d   1     -30.794  21.410 -13.521  0.00  0.00     0.122 H 
ATOM     18  H11 128 d   1     -27.104  20.091 -18.812  0.00  0.00     0.090 H 
ATOM     19  H12 128 d   1     -31.301  20.756 -18.643  0.00  0.00     0.084 H 
ATOM     20  H13 128 d   1     -30.577  19.195 -16.902  0.00  0.00     0.098 H 
ENDROOT
BRANCH   9  21
ATOM     21  N2F 128 d   1     -26.696  19.608 -16.302  0.00  0.00    -0.114 N 
ATOM     22  O2F 128 d   1     -26.481  19.362 -14.902  0.00  0.00    -0.532 OA
ATOM     23  O3F 128 d   1     -25.543  19.557 -17.122  0.00  0.00    -0.532 OA
ENDBRANCH   9  21
BRANCH  13  24
ATOM     24  N6F 128 d   1     -31.649  20.386 -16.235  0.00  0.00    -0.141 N 
ATOM     25  O6F 128 d   1     -32.769  20.702 -17.035  0.00  0.00    -0.536 OA
ATOM     26  O7F 128 d   1     -31.917  20.204 -14.895  0.00  0.00    -0.536 OA
ENDBRANCH  13  24
BRANCH   1  27
ATOM     27  C5' 128 d   1     -29.832  17.543 -11.885  0.00  0.00     0.058 C 
ATOM     28  H1  128 d   1     -30.628  17.409 -11.138  0.00  0.00     0.079 H 
ATOM     29  H2  128 d   1     -29.650  16.589 -12.401  0.00  0.00     0.079 H 
BRANCH  27  30
ATOM     30  O5' 128 d   1     -28.644  17.965 -11.239  0.00  0.00    -0.287 OA
BRANCH  30  31
ATOM     31  PA  128 d   1     -27.948  17.212  -9.979  0.00  0.00     0.418 P 
ATOM     32  O1A 128 d   1     -29.028  16.782  -9.050  0.00  0.00    -0.624 OA
ATOM     33  O2A 128 d   1     -26.824  18.050  -9.495  0.00  0.00    -0.624 OA
BRANCH  31  34
ATOM     34  O3A 128 d   1     -27.376  15.853 -10.585  0.00  0.00    -0.173 OA
BRANCH  34  35
ATOM     35  PB  128 d   1     -26.076  14.951 -10.165  0.00  0.00     0.431 P 
ATOM     36  O1B 128 d   1     -24.967  15.422 -11.058  0.00  0.00    -0.616 OA
ATOM     37  O2B 128 d   1     -25.892  15.168  -8.598  0.00  0.00    -0.616 OA
ATOM     38  O3B 128 d   1     -26.497  13.465 -10.430  0.00  0.00    -0.616 OA
ENDBRANCH  34  35
ENDBRANCH  31  34
ENDBRANCH  30  31
ENDBRANCH  27  30
ENDBRANCH   1  27
BRANCH   7  39
ATOM     39  N9  128 d   1     -29.893  21.771 -11.624  0.00  0.00    -0.294 N 
ATOM     40  C8  128 d   1     -29.113  21.501 -10.572  0.00  0.00     0.071 A 
ATOM     41  N7  128 d   1     -29.209  22.474  -9.675  0.00  0.00    -0.236 NA
ATOM     42  H7  128 d   1     -28.491  20.613 -10.467  0.00  0.00     0.144 H 
ATOM     43  C5  128 d   1     -30.051  23.384 -10.178  0.00  0.00     0.149 A 
ATOM     44  C6  128 d   1     -30.548  24.589  -9.725  0.00  0.00     0.155 A 
ATOM     45  C4  128 d   1     -30.487  22.921 -11.418  0.00  0.00     0.167 A 
ATOM     46  N1  128 d   1     -31.436  25.253 -10.496  0.00  0.00    -0.222 NA
ATOM     47  C2  128 d   1     -31.819  24.773 -11.680  0.00  0.00     0.091 A 
ATOM     48  N3  128 d   1     -31.381  23.632 -12.147  0.00  0.00    -0.222 NA
ATOM     49  H10 128 d   1     -32.518  25.349 -12.276  0.00  0.00     0.146 H 
BRANCH  44  50
ATOM     50  N6  128 d   1     -30.158  25.058  -8.541  0.00  0.00    -0.382 N 
ATOM     51  H8  128 d   1     -30.525  25.957  -8.197  0.00  0.00     0.157 HD
ATOM     52  H9  128 d   1     -29.489  24.522  -7.970  0.00  0.00     0.157 HD
ENDBRANCH  44  50
ENDBRANCH   7  39
BRANCH  11  53
ATOM     53  N4F 128 d   1     -29.337  20.653 -20.158  0.00  0.00    -0.116 N 
ATOM     54  O4F 128 d   1     -30.597  20.955 -20.701  0.00  0.00    -0.532 OA
ATOM     55  O5F 128 d   1     -28.240  20.621 -20.951  0.00  0.00    -0.532 OA
ENDBRANCH  11  53
TORSDOF 10
