REMARK  8 active torsions:
REMARK  status: ('A' for Active; 'I' for Inactive)
REMARK    1  A    between atoms: C7_6  and  C5_9 
REMARK    2  A    between atoms: C4_15  and  N5_18 
REMARK    3  A    between atoms: N5_18  and  C14_19 
REMARK    4  A    between atoms: C14_19  and  C15_20 
REMARK    5  A    between atoms: C14_19  and  C16_22 
REMARK    6  A    between atoms: C15_20  and  O1_21 
REMARK    7  A    between atoms: C16_22  and  C17_23 
REMARK    8  A    between atoms: C16_22  and  C18_24 
ROOT
ATOM      1  N4  K51 d   1      -7.010 -30.476 -16.116  0.00  0.00    -0.191 NA
ATOM      2  C13 K51 d   1      -7.923 -31.173 -16.292  0.00  0.00     0.099 C 
ATOM      3  C10 K51 d   1      -8.979 -31.849 -16.567  0.00  0.00     0.044 A 
ATOM      4  C11 K51 d   1      -9.411 -32.821 -15.675  0.00  0.00    -0.062 A 
ATOM      5  C12 K51 d   1     -10.555 -33.562 -15.957  0.00  0.00    -0.069 A 
ATOM      6  C7  K51 d   1     -11.267 -33.357 -17.134  0.00  0.00    -0.006 A 
ATOM      7  C8  K51 d   1     -10.838 -32.360 -18.018  0.00  0.00    -0.069 A 
ATOM      8  C9  K51 d   1      -9.687 -31.616 -17.747  0.00  0.00    -0.062 A 
ATOM      9  H1  K51 d   1      -8.858 -33.003 -14.760  0.00  0.00     0.085 H 
ATOM     10  H2  K51 d   1     -10.896 -34.309 -15.249  0.00  0.00     0.085 H 
ATOM     11  H3  K51 d   1     -11.404 -32.163 -18.921  0.00  0.00     0.085 H 
ATOM     12  H4  K51 d   1      -9.346 -30.863 -18.448  0.00  0.00     0.085 H 
ENDROOT
BRANCH   6  13
ATOM     13  C5  K51 d   1     -12.524 -34.140 -17.349  0.00  0.00     0.088 A 
ATOM     14  C6  K51 d   1     -13.378 -34.689 -16.417  0.00  0.00     0.033 A 
ATOM     15  N3  K51 d   1     -14.400 -35.228 -17.124  0.00  0.00    -0.239 NA
ATOM     16  H5  K51 d   1     -13.256 -34.689 -15.335  0.00  0.00     0.118 H 
ATOM     17  C1  K51 d   1     -14.199 -35.000 -18.439  0.00  0.00     0.151 A 
ATOM     18  C2  K51 d   1     -14.934 -35.333 -19.564  0.00  0.00    -0.033 A 
ATOM     19  N2  K51 d   1     -13.060 -34.325 -18.562  0.00  0.00    -0.212 N 
ATOM     20  C3  K51 d   1     -14.463 -34.953 -20.806  0.00  0.00    -0.034 A 
ATOM     21  H6  K51 d   1     -15.868 -35.885 -19.471  0.00  0.00     0.089 H 
ATOM     22  C4  K51 d   1     -13.269 -34.242 -20.915  0.00  0.00     0.144 A 
ATOM     23  H7  K51 d   1     -15.026 -35.210 -21.702  0.00  0.00     0.089 H 
ATOM     24  N1  K51 d   1     -12.566 -33.925 -19.805  0.00  0.00    -0.148 NA
BRANCH  22  25
ATOM     25  N5  K51 d   1     -12.820 -33.865 -22.130  0.00  0.00    -0.366 N 
ATOM     26  H8  K51 d   1     -13.479 -33.825 -22.921  0.00  0.00     0.161 HD
BRANCH  25  27
ATOM     27  C14 K51 d   1     -11.432 -33.516 -22.346  0.00  0.00     0.034 C 
ATOM     28  H9  K51 d   1     -10.828 -33.959 -21.540  0.00  0.00     0.076 H 
BRANCH  27  29
ATOM     29  C15 K51 d   1     -11.248 -31.996 -22.259  0.00  0.00     0.036 C 
ATOM     30  H10 K51 d   1     -10.220 -31.745 -22.561  0.00  0.00     0.077 H 
ATOM     31  H11 K51 d   1     -11.413 -31.677 -21.219  0.00  0.00     0.077 H 
BRANCH  29  32
ATOM     32  O1  K51 d   1     -12.163 -31.295 -23.108  0.00  0.00    -0.399 OA
ATOM     33  H12 K51 d   1     -12.017 -30.360 -23.025  0.00  0.00     0.209 HD
ENDBRANCH  29  32
ENDBRANCH  27  29
BRANCH  27  34
ATOM     34  C16 K51 d   1     -10.996 -34.170 -23.661  0.00  0.00    -0.040 C 
ATOM     35  H13 K51 d   1     -11.903 -34.322 -24.265  0.00  0.00     0.042 H 
BRANCH  34  36
ATOM     36  C17 K51 d   1     -10.404 -35.535 -23.342  0.00  0.00    -0.071 C 
ATOM     37  H14 K51 d   1     -10.084 -36.023 -24.274  0.00  0.00     0.028 H 
ATOM     38  H15 K51 d   1     -11.163 -36.157 -22.845  0.00  0.00     0.028 H 
ATOM     39  H16 K51 d   1      -9.537 -35.412 -22.676  0.00  0.00     0.028 H 
ENDBRANCH  34  36
BRANCH  34  40
ATOM     40  C18 K51 d   1     -10.029 -33.352 -24.518  0.00  0.00    -0.071 C 
ATOM     41  H17 K51 d   1     -10.474 -32.370 -24.738  0.00  0.00     0.028 H 
ATOM     42  H18 K51 d   1      -9.833 -33.885 -25.460  0.00  0.00     0.028 H 
ATOM     43  H19 K51 d   1      -9.084 -33.212 -23.973  0.00  0.00     0.028 H 
ENDBRANCH  34  40
ENDBRANCH  27  34
ENDBRANCH  25  27
ENDBRANCH  22  25
ENDBRANCH   6  13
TORSDOF 8
