REMARK  2 active torsions:
REMARK  status: ('A' for Active; 'I' for Inactive)
REMARK    1  A    between atoms: CAN_6  and  NAJ_9 
REMARK    2  A    between atoms: NAJ_9  and  CAK_10 
ROOT
ATOM      1  NAJ CLU d   1      35.198 -11.217  43.265  0.00  0.00    -0.189 N 
ATOM      2  H4  CLU d   1      34.953 -11.258  44.265  0.00  0.00     0.184 HD
ENDROOT
BRANCH   1   3
ATOM      3  CAN CLU d   1      34.666 -10.193  42.600  0.00  0.00     0.092 A 
ATOM      4  CAM CLU d   1      33.370 -10.268  42.117  0.00  0.00     0.063 A 
ATOM      5  CAE CLU d   1      32.812  -9.189  41.438  0.00  0.00    -0.060 A 
ATOM      6 CL2  CLU d   1      32.405 -11.761  42.360  0.00  0.00    -0.082 Cl
ATOM      7  CAC CLU d   1      33.555  -8.030  41.245  0.00  0.00    -0.080 A 
ATOM      8  H1  CLU d   1      31.798  -9.252  41.060  0.00  0.00     0.086 H 
ATOM      9  CAD CLU d   1      34.851  -7.954  41.737  0.00  0.00    -0.060 A 
ATOM     10  H2  CLU d   1      33.124  -7.189  40.713  0.00  0.00     0.083 H 
ATOM     11  CAL CLU d   1      35.404  -9.035  42.414  0.00  0.00     0.063 A 
ATOM     12  H3  CLU d   1      35.432  -7.051  41.593  0.00  0.00     0.086 H 
ATOM     13 CL1  CLU d   1      37.079  -8.924  43.046  0.00  0.00    -0.082 Cl
ENDBRANCH   1   3
BRANCH   1  14
ATOM     14  CAK CLU d   1      36.032 -12.240  42.824  0.00  0.00     0.674 C 
ATOM     15  NAI CLU d   1      36.435 -12.330  41.558  0.00  0.00    -0.225 N 
ATOM     16  CAG CLU d   1      37.242 -13.525  41.325  0.00  0.00     0.024 C 
ATOM     17  H5  CLU d   1      36.205 -11.639  40.830  0.00  0.00     0.177 HD
ATOM     18  CAF CLU d   1      37.712 -13.853  42.754  0.00  0.00     0.024 C 
ATOM     19  H6  CLU d   1      38.092 -13.314  40.660  0.00  0.00     0.067 H 
ATOM     20  H7  CLU d   1      36.639 -14.342  40.902  0.00  0.00     0.067 H 
ATOM     21  NAH CLU d   1      36.595 -13.306  43.513  0.00  0.00    -0.225 N 
ATOM     22  H8  CLU d   1      38.659 -13.350  42.999  0.00  0.00     0.067 H 
ATOM     23  H9  CLU d   1      37.822 -14.936  42.910  0.00  0.00     0.067 H 
ATOM     24  H10 CLU d   1      36.271 -13.658  44.425  0.00  0.00     0.177 HD
ENDBRANCH   1  14
TORSDOF 2
