REMARK WARNING: 32 MAX_TORS EXCEEDED!!!
REMARK  59 active torsions:
REMARK  status: ('A' for Active; 'I' for Inactive)
REMARK    1  A    between atoms: N_1  and  CA_2 
REMARK    2  A    between atoms: CA_2  and  C_3 
REMARK    3  A    between atoms: CA_2  and  CB_5 
REMARK       I    between atoms: C_3  and  N_6 
REMARK    4  A    between atoms: N_6  and  CA_7 
REMARK    5  A    between atoms: CA_7  and  C_8 
REMARK    6  A    between atoms: CA_7  and  CB_10 
REMARK       I    between atoms: C_8  and  N_17 
REMARK    7  A    between atoms: CB_10  and  CG_11 
REMARK    8  A    between atoms: CG_11  and  CD_12 
REMARK    9  A    between atoms: CD_12  and  NE_13 
REMARK       I    between atoms: NE_13  and  CZ_14 
REMARK       I    between atoms: CZ_14  and  NH1_15 
REMARK       I    between atoms: CZ_14  and  NH2_16 
REMARK   10  A    between atoms: N_17  and  CA_18 
REMARK   11  A    between atoms: CA_18  and  C_19 
REMARK   12  A    between atoms: CA_18  and  CB_21 
REMARK       I    between atoms: C_19  and  N_24 
REMARK   13  A    between atoms: CB_21  and  OG1_22 
REMARK   14  A    between atoms: CB_21  and  CG2_23 
REMARK   15  A    between atoms: N_24  and  CA_25 
REMARK   16  A    between atoms: CA_25  and  CB_26 
REMARK   17  A    between atoms: CA_25  and  C_31 
REMARK   18  A    between atoms: CB_26  and  CG_27 
REMARK   19  A    between atoms: CG_27  and  CD_28 
REMARK   20  A    between atoms: CD_28  and  CE_29 
REMARK   21  A    between atoms: CE_29  and  NZ_30 
REMARK   22  A    between atoms: NZ_30  and  CM1_33 
REMARK   23  A    between atoms: NZ_30  and  CM2_34 
REMARK   24  A    between atoms: NZ_30  and  CM3_35 
REMARK       I    between atoms: C_31  and  N_36 
REMARK   25  A    between atoms: N_36  and  CA_37 
REMARK   26  A    between atoms: CA_37  and  C_38 
REMARK   27  A    between atoms: CA_37  and  CB_40 
REMARK       I    between atoms: C_38  and  N_45 
REMARK   28  A    between atoms: CB_40  and  CG_41 
REMARK   29  A    between atoms: CG_41  and  CD_42 
REMARK       I    between atoms: CD_42  and  NE2_44 
REMARK   30  A    between atoms: N_45  and  CA_46 
REMARK   31  A    between atoms: CA_46  and  C_47 
REMARK   32  A    between atoms: CA_46  and  CB_49 
REMARK       I    between atoms: C_47  and  N_52 
REMARK   33  A    between atoms: CB_49  and  OG1_50 
REMARK   34  A    between atoms: CB_49  and  CG2_51 
REMARK   35  A    between atoms: N_52  and  CA_53 
REMARK   36  A    between atoms: CA_53  and  C_54 
REMARK   37  A    between atoms: CA_53  and  CB_56 
REMARK       I    between atoms: C_54  and  N_57 
REMARK   38  A    between atoms: N_57  and  CA_58 
REMARK   39  A    between atoms: CA_58  and  C_59 
REMARK   40  A    between atoms: CA_58  and  CB_61 
REMARK       I    between atoms: C_59  and  N_68 
REMARK   41  A    between atoms: CB_61  and  CG_62 
REMARK   42  A    between atoms: CG_62  and  CD_63 
REMARK   43  A    between atoms: CD_63  and  NE_64 
REMARK       I    between atoms: NE_64  and  CZ_65 
REMARK       I    between atoms: CZ_65  and  NH1_66 
REMARK   44  A    between atoms: N_68  and  CA_69 
REMARK   45  A    between atoms: CA_69  and  C_70 
REMARK   46  A    between atoms: CA_69  and  CB_72 
REMARK       I    between atoms: C_70  and  N_77 
REMARK   47  A    between atoms: CB_72  and  CG_73 
REMARK   48  A    between atoms: CG_73  and  CD_74 
REMARK   49  A    between atoms: CD_74  and  CE_75 
REMARK   50  A    between atoms: CE_75  and  NZ_76 
REMARK   51  A    between atoms: N_77  and  CA_78 
REMARK   52  A    between atoms: CA_78  and  C_79 
REMARK   53  A    between atoms: CA_78  and  CB_81 
REMARK       I    between atoms: C_79  and  N_83 
REMARK   54  A    between atoms: CB_81  and  OG_82 
REMARK   55  A    between atoms: N_83  and  CA_84 
REMARK   56  A    between atoms: CA_84  and  C_85 
REMARK   57  A    between atoms: CA_84  and  CB_87 
REMARK   58  A    between atoms: CB_87  and  OG1_88 
REMARK   59  A    between atoms: CB_87  and  CG2_89 
ROOT
ATOM      1  C   NON d   1      51.574  20.345  15.594  0.00  0.00     0.241 C 
ATOM      2  O   NON d   1      50.543  20.251  16.261  0.00  0.00    -0.271 OA
ATOM      3  N   NON d   1      52.561  21.182  15.893  0.00  0.00    -0.344 N 
ATOM      4  H55 NON d   1      53.374  21.199  15.311  0.00  0.00     0.163 HD
ENDROOT
BRANCH   1   5
ATOM      5  CA  NON d   1      51.777  19.490  14.350  0.00  0.00     0.090 C 
ATOM      6  H48 NON d   1      52.847  19.278  14.208  0.00  0.00     0.087 H 
BRANCH   5   7
ATOM      7  N   NON d   1      51.045  18.238  14.532  0.00  0.00    -0.346 N 
ATOM      8  C   NON d   1      51.646  17.106  14.884  0.00  0.00     0.241 C 
ATOM      9  O   NON d   1      52.867  17.009  15.069  0.00  0.00    -0.271 OA
ATOM     10  H47 NON d   1      50.056  18.233  14.386  0.00  0.00     0.163 HD
BRANCH   8  11
ATOM     11  CA  NON d   1      50.726  15.892  15.022  0.00  0.00     0.089 C 
ATOM     12  H29 NON d   1      49.862  16.036  14.357  0.00  0.00     0.087 H 
BRANCH  11  13
ATOM     13  N   NON d   1      51.459  14.727  14.558  0.00  0.00    -0.346 N 
ATOM     14  C   NON d   1      50.837  13.668  14.055  0.00  0.00     0.243 C 
ATOM     15  O   NON d   1      49.610  13.573  13.988  0.00  0.00    -0.271 OA
ATOM     16  H28 NON d   1      52.457  14.723  14.619  0.00  0.00     0.163 HD
BRANCH  14  17
ATOM     17  CA  NON d   1      51.753  12.555  13.566  0.00  0.00     0.113 C 
ATOM     18  H22 NON d   1      52.465  12.286  14.361  0.00  0.00     0.091 H 
BRANCH  17  19
ATOM     19  N   NON d   1      50.970  11.378  13.209  0.00  0.00    -0.344 N 
ATOM     20  C   NON d   1      51.364  10.163  13.570  0.00  0.00     0.241 C 
ATOM     21  O   NON d   1      52.380   9.963  14.237  0.00  0.00    -0.271 OA
ATOM     22  H21 NON d   1      50.125  11.488  12.685  0.00  0.00     0.163 HD
BRANCH  20  23
ATOM     23  CA  NON d   1      50.490   8.998  13.096  0.00  0.00     0.089 C 
ATOM     24  H9  NON d   1      49.736   9.374  12.389  0.00  0.00     0.087 H 
BRANCH  23  25
ATOM     25  N   NON d   1      51.361   8.040  12.419  0.00  0.00    -0.346 N 
ATOM     26  C   NON d   1      51.563   8.097  11.106  0.00  0.00     0.248 C 
ATOM     27  O   NON d   1      51.032   8.943  10.385  0.00  0.00    -0.271 OA
ATOM     28  H8  NON d   1      51.814   7.327  12.954  0.00  0.00     0.163 HD
BRANCH  26  29
ATOM     29  CA  NON d   1      52.503   7.045  10.515  0.00  0.00     0.172 C 
ATOM     30  H4  NON d   1      52.395   6.114  11.090  0.00  0.00     0.098 H 
BRANCH  29  31
ATOM     31  N   NON d   1      52.160   6.771   9.090  0.00  0.00    -0.067 N 
ATOM     32  H1  NON d   1      52.790   6.077   8.720  0.00  0.00     0.275 HD
ATOM     33  H2  NON d   1      52.245   7.621   8.555  0.00  0.00     0.275 HD
ATOM     34  H3  NON d   1      51.213   6.431   9.032  0.00  0.00     0.275 HD
ENDBRANCH  29  31
BRANCH  29  35
ATOM     35  CB  NON d   1      53.945   7.521  10.613  0.00  0.00    -0.042 C 
ATOM     36  H5  NON d   1      54.194   7.722  11.665  0.00  0.00     0.030 H 
ATOM     37  H6  NON d   1      54.068   8.442  10.025  0.00  0.00     0.030 H 
ATOM     38  H7  NON d   1      54.616   6.743  10.220  0.00  0.00     0.030 H 
ENDBRANCH  29  35
ENDBRANCH  26  29
ENDBRANCH  23  25
BRANCH  23  39
ATOM     39  CB  NON d   1      49.774   8.318  14.267  0.00  0.00    -0.036 C 
ATOM     40  H10 NON d   1      49.154   7.504  13.863  0.00  0.00     0.036 H 
ATOM     41  H11 NON d   1      49.128   9.064  14.753  0.00  0.00     0.036 H 
BRANCH  39  42
ATOM     42  CG  NON d   1      50.692   7.733  15.320  0.00  0.00    -0.048 C 
ATOM     43  H12 NON d   1      50.844   8.477  16.116  0.00  0.00     0.035 H 
ATOM     44  H13 NON d   1      51.659   7.489  14.857  0.00  0.00     0.035 H 
BRANCH  42  45
ATOM     45  CD  NON d   1      50.099   6.465  15.930  0.00  0.00     0.009 C 
ATOM     46  H14 NON d   1      50.311   5.615  15.265  0.00  0.00     0.064 H 
ATOM     47  H15 NON d   1      49.011   6.591  16.029  0.00  0.00     0.064 H 
BRANCH  45  48
ATOM     48  NE  NON d   1      50.667   6.191  17.245  0.00  0.00    -0.227 N 
ATOM     49  CZ  NON d   1      50.361   6.880  18.341  0.00  0.00     0.665 C 
ATOM     50  NH1 NON d   1      49.488   7.877  18.274  0.00  0.00    -0.235 N 
ATOM     51  NH2 NON d   1      50.935   6.583  19.499  0.00  0.00    -0.235 N 
ATOM     52  H17 NON d   1      49.250   8.411  19.122  0.00  0.00     0.174 HD
ATOM     53  H18 NON d   1      49.048   8.117  17.374  0.00  0.00     0.174 HD
ATOM     54  H19 NON d   1      51.613   5.810  19.554  0.00  0.00     0.174 HD
ATOM     55  H20 NON d   1      50.703   7.126  20.343  0.00  0.00     0.174 HD
ATOM     56  H16 NON d   1      51.344   5.420  17.330  0.00  0.00     0.177 HD
ENDBRANCH  45  48
ENDBRANCH  42  45
ENDBRANCH  39  42
ENDBRANCH  23  39
ENDBRANCH  20  23
ENDBRANCH  17  19
BRANCH  17  57
ATOM     57  CB  NON d   1      52.522  13.082  12.343  0.00  0.00     0.060 C 
ATOM     58  H23 NON d   1      53.093  13.976  12.633  0.00  0.00     0.086 H 
BRANCH  57  59
ATOM     59  OG1 NON d   1      51.586  13.425  11.310  0.00  0.00    -0.393 OA
ATOM     60  H24 NON d   1      52.057  13.751  10.553  0.00  0.00     0.210 HD
ENDBRANCH  57  59
BRANCH  57  61
ATOM     61  CG2 NON d   1      53.482  12.025  11.816  0.00  0.00    -0.050 C 
ATOM     62  H25 NON d   1      54.021  12.422  10.943  0.00  0.00     0.031 H 
ATOM     63  H26 NON d   1      52.916  11.129  11.521  0.00  0.00     0.031 H 
ATOM     64  H27 NON d   1      54.203  11.760  12.603  0.00  0.00     0.031 H 
ENDBRANCH  57  61
ENDBRANCH  17  57
ENDBRANCH  14  17
ENDBRANCH  11  13
BRANCH  11  65
ATOM     65  CB  NON d   1      50.178  15.745  16.449  0.00  0.00    -0.038 C 
ATOM     66  H30 NON d   1      50.093  14.672  16.675  0.00  0.00     0.036 H 
ATOM     67  H31 NON d   1      49.180  16.207  16.482  0.00  0.00     0.036 H 
BRANCH  65  68
ATOM     68  CG  NON d   1      51.040  16.394  17.533  0.00  0.00    -0.061 C 
ATOM     69  H32 NON d   1      51.140  17.466  17.306  0.00  0.00     0.033 H 
ATOM     70  H33 NON d   1      52.033  15.922  17.519  0.00  0.00     0.033 H 
BRANCH  68  71
ATOM     71  CD  NON d   1      50.454  16.248  18.932  0.00  0.00    -0.042 C 
ATOM     72  H34 NON d   1      49.429  15.859  18.844  0.00  0.00     0.035 H 
ATOM     73  H35 NON d   1      50.430  17.240  19.407  0.00  0.00     0.035 H 
BRANCH  71  74
ATOM     74  CE  NON d   1      51.260  15.301  19.821  0.00  0.00     0.084 C 
ATOM     75  H36 NON d   1      52.131  14.941  19.254  0.00  0.00     0.076 H 
ATOM     76  H37 NON d   1      50.623  14.447  20.096  0.00  0.00     0.076 H 
BRANCH  74  77
ATOM     77  NZ  NON d   1      51.747  15.968  21.084  0.00  0.00    -0.079 N 
BRANCH  77  78
ATOM     78  CM1 NON d   1      52.861  15.408  21.881  0.00  0.00     0.067 C 
ATOM     79  H38 NON d   1      53.047  16.051  22.753  0.00  0.00     0.068 H 
ATOM     80  H39 NON d   1      53.768  15.360  21.261  0.00  0.00     0.068 H 
ATOM     81  H40 NON d   1      52.596  14.396  22.221  0.00  0.00     0.068 H 
ENDBRANCH  77  78
BRANCH  77  82
ATOM     82  CM2 NON d   1      50.921  16.894  21.946  0.00  0.00     0.067 C 
ATOM     83  H41 NON d   1      50.094  17.308  21.351  0.00  0.00     0.068 H 
ATOM     84  H42 NON d   1      51.554  17.714  22.315  0.00  0.00     0.068 H 
ATOM     85  H43 NON d   1      50.513  16.334  22.800  0.00  0.00     0.068 H 
ENDBRANCH  77  82
BRANCH  77  86
ATOM     86  CM3 NON d   1      50.916  14.906  21.747  0.00  0.00     0.067 C 
ATOM     87  H44 NON d   1      51.215  13.917  21.368  0.00  0.00     0.068 H 
ATOM     88  H45 NON d   1      49.853  15.079  21.523  0.00  0.00     0.068 H 
ATOM     89  H46 NON d   1      51.072  14.944  22.835  0.00  0.00     0.068 H 
ENDBRANCH  77  86
ENDBRANCH  74  77
ENDBRANCH  71  74
ENDBRANCH  68  71
ENDBRANCH  65  68
ENDBRANCH  11  65
ENDBRANCH   8  11
ENDBRANCH   5   7
BRANCH   5  90
ATOM     90  CB  NON d   1      51.237  20.249  13.137  0.00  0.00    -0.030 C 
ATOM     91  H49 NON d   1      51.758  21.216  13.082  0.00  0.00     0.037 H 
ATOM     92  H50 NON d   1      50.162  20.420  13.295  0.00  0.00     0.037 H 
BRANCH  90  93
ATOM     93  CG  NON d   1      51.407  19.551  11.803  0.00  0.00     0.011 C 
ATOM     94  H51 NON d   1      50.812  20.085  11.047  0.00  0.00     0.047 H 
ATOM     95  H52 NON d   1      51.040  18.518  11.896  0.00  0.00     0.047 H 
BRANCH  93  96
ATOM     96  CD  NON d   1      52.853  19.514  11.345  0.00  0.00     0.215 C 
ATOM     97  OE1 NON d   1      53.683  20.303  11.803  0.00  0.00    -0.274 OA
ATOM     98  NE2 NON d   1      53.159  18.607  10.422  0.00  0.00    -0.370 N 
ATOM     99  H53 NON d   1      54.097  18.536  10.082  0.00  0.00     0.159 HD
ATOM    100  H54 NON d   1      52.451  17.996  10.068  0.00  0.00     0.159 HD
ENDBRANCH  93  96
ENDBRANCH  90  93
ENDBRANCH   5  90
ENDBRANCH   1   5
BRANCH   3 101
ATOM    101  CA  NON d   1      52.496  22.081  17.049  0.00  0.00     0.113 C 
ATOM    102  H56 NON d   1      51.489  22.062  17.490  0.00  0.00     0.091 H 
BRANCH 101 103
ATOM    103  C   NON d   1      52.836  23.470  16.528  0.00  0.00     0.243 C 
ATOM    104  O   NON d   1      53.792  23.620  15.772  0.00  0.00    -0.271 OA
ATOM    105  N   NON d   1      52.056  24.475  16.916  0.00  0.00    -0.346 N 
ATOM    106  H62 NON d   1      51.283  24.291  17.523  0.00  0.00     0.163 HD
BRANCH 105 107
ATOM    107  CA  NON d   1      52.311  25.851  16.468  0.00  0.00     0.086 C 
ATOM    108  H63 NON d   1      52.308  25.884  15.368  0.00  0.00     0.086 H 
BRANCH 107 109
ATOM    109  C   NON d   1      53.691  26.278  16.986  0.00  0.00     0.240 C 
ATOM    110  O   NON d   1      54.463  26.915  16.267  0.00  0.00    -0.271 OA
ATOM    111  N   NON d   1      53.993  25.925  18.233  0.00  0.00    -0.346 N 
ATOM    112  H67 NON d   1      53.319  25.422  18.774  0.00  0.00     0.163 HD
BRANCH 111 113
ATOM    113  CA  NON d   1      55.294  26.257  18.835  0.00  0.00     0.089 C 
ATOM    114  H68 NON d   1      55.439  27.347  18.845  0.00  0.00     0.087 H 
BRANCH 113 115
ATOM    115  C   NON d   1      56.368  25.589  17.967  0.00  0.00     0.241 C 
ATOM    116  O   NON d   1      56.268  24.403  17.660  0.00  0.00    -0.271 OA
ATOM    117  N   NON d   1      57.391  26.348  17.579  0.00  0.00    -0.346 N 
ATOM    118  H80 NON d   1      57.439  27.299  17.884  0.00  0.00     0.163 HD
BRANCH 117 119
ATOM    119  CA  NON d   1      58.451  25.816  16.712  0.00  0.00     0.089 C 
ATOM    120  H81 NON d   1      58.028  24.994  16.116  0.00  0.00     0.087 H 
BRANCH 119 121
ATOM    121  C   NON d   1      59.627  25.266  17.526  0.00  0.00     0.241 C 
ATOM    122  O   NON d   1      60.392  24.444  17.025  0.00  0.00    -0.271 OA
ATOM    123  N   NON d   1      59.783  25.716  18.766  0.00  0.00    -0.344 N 
ATOM    124  H93 NON d   1      59.143  26.391  19.134  0.00  0.00     0.163 HD
BRANCH 123 125
ATOM    125  CA  NON d   1      60.887  25.230  19.599  0.00  0.00     0.109 C 
ATOM    126  H94 NON d   1      60.983  24.142  19.465  0.00  0.00     0.090 H 
BRANCH 125 127
ATOM    127  C   NON d   1      60.590  25.525  21.067  0.00  0.00     0.243 C 
ATOM    128  O   NON d   1      59.681  26.287  21.385  0.00  0.00    -0.271 OA
ATOM    129  N   NON d   1      61.368  24.914  21.956  0.00  0.00    -0.346 N 
ATOM    130  H98 NON d   1      62.095  24.308  21.632  0.00  0.00     0.163 HD
BRANCH 129 131
ATOM    131  CA  NON d   1      61.188  25.106  23.396  0.00  0.00     0.087 C 
ATOM    132  H99 NON d   1      60.148  24.869  23.663  0.00  0.00     0.087 H 
BRANCH 131 133
ATOM    133  C   NON d   1      61.487  26.566  23.744  0.00  0.00     0.112 C 
ATOM    134  O   NON d   1      61.938  27.310  22.847  0.00  0.00    -0.305 OA
ATOM    135 0H10 NON d   1      61.311  26.947  24.749  0.00  0.00     0.146 H 
ENDBRANCH 131 133
BRANCH 131 136
ATOM    136  CB  NON d   1      62.137  24.195  24.205  0.00  0.00     0.058 C 
ATOM    137 1H10 NON d   1      62.028  24.424  25.275  0.00  0.00     0.086 H 
BRANCH 136 138
ATOM    138  OG1 NON d   1      63.492  24.438  23.804  0.00  0.00    -0.393 OA
ATOM    139 2H10 NON d   1      64.074  23.877  24.303  0.00  0.00     0.210 HD
ENDBRANCH 136 138
BRANCH 136 140
ATOM    140  CG2 NON d   1      61.799  22.730  23.974  0.00  0.00    -0.050 C 
ATOM    141 3H10 NON d   1      62.485  22.099  24.558  0.00  0.00     0.031 H 
ATOM    142 4H10 NON d   1      61.904  22.494  22.905  0.00  0.00     0.031 H 
ATOM    143 5H10 NON d   1      60.764  22.538  24.292  0.00  0.00     0.031 H 
ENDBRANCH 136 140
ENDBRANCH 131 136
ENDBRANCH 129 131
ENDBRANCH 125 127
BRANCH 125 144
ATOM    144  CB  NON d   1      62.202  25.898  19.183  0.00  0.00     0.044 C 
ATOM    145  H95 NON d   1      62.443  25.603  18.151  0.00  0.00     0.077 H 
ATOM    146  H96 NON d   1      63.004  25.562  19.857  0.00  0.00     0.077 H 
BRANCH 144 147
ATOM    147  OG  NON d   1      62.105  27.310  19.249  0.00  0.00    -0.398 OA
ATOM    148  H97 NON d   1      62.932  27.696  18.986  0.00  0.00     0.209 HD
ENDBRANCH 144 147
ENDBRANCH 125 144
ENDBRANCH 123 125
ENDBRANCH 119 121
BRANCH 119 149
ATOM    149  CB  NON d   1      58.950  26.906  15.760  0.00  0.00    -0.038 C 
ATOM    150  H82 NON d   1      59.727  26.470  15.115  0.00  0.00     0.036 H 
ATOM    151  H83 NON d   1      59.386  27.716  16.363  0.00  0.00     0.036 H 
BRANCH 149 152
ATOM    152  CG  NON d   1      57.871  27.503  14.868  0.00  0.00    -0.061 C 
ATOM    153  H84 NON d   1      58.310  28.319  14.275  0.00  0.00     0.033 H 
ATOM    154  H85 NON d   1      57.066  27.903  15.502  0.00  0.00     0.033 H 
BRANCH 152 155
ATOM    155  CD  NON d   1      57.284  26.468  13.922  0.00  0.00    -0.043 C 
ATOM    156  H86 NON d   1      56.807  25.671  14.511  0.00  0.00     0.035 H 
ATOM    157  H87 NON d   1      58.092  26.039  13.312  0.00  0.00     0.035 H 
BRANCH 155 158
ATOM    158  CE  NON d   1      56.245  27.098  13.002  0.00  0.00     0.080 C 
ATOM    159  H88 NON d   1      56.713  27.933  12.460  0.00  0.00     0.075 H 
ATOM    160  H89 NON d   1      55.415  27.479  13.615  0.00  0.00     0.075 H 
BRANCH 158 161
ATOM    161  NZ  NON d   1      55.701  26.128  12.009  0.00  0.00    -0.079 N 
ATOM    162  H90 NON d   1      55.021  26.590  11.426  0.00  0.00     0.274 HD
ATOM    163  H91 NON d   1      55.262  25.361  12.494  0.00  0.00     0.274 HD
ATOM    164  H92 NON d   1      56.452  25.777  11.435  0.00  0.00     0.274 HD
ENDBRANCH 158 161
ENDBRANCH 155 158
ENDBRANCH 152 155
ENDBRANCH 149 152
ENDBRANCH 119 149
ENDBRANCH 117 119
ENDBRANCH 113 115
BRANCH 113 165
ATOM    165  CB  NON d   1      55.368  25.719  20.268  0.00  0.00    -0.036 C 
ATOM    166  H69 NON d   1      55.268  24.624  20.231  0.00  0.00     0.036 H 
ATOM    167  H70 NON d   1      54.530  26.145  20.840  0.00  0.00     0.036 H 
BRANCH 165 168
ATOM    168  CG  NON d   1      56.662  26.055  20.996  0.00  0.00    -0.048 C 
ATOM    169  H71 NON d   1      56.680  27.133  21.217  0.00  0.00     0.035 H 
ATOM    170  H72 NON d   1      57.514  25.799  20.349  0.00  0.00     0.035 H 
BRANCH 168 171
ATOM    171  CD  NON d   1      56.778  25.281  22.298  0.00  0.00     0.009 C 
ATOM    172  H73 NON d   1      57.745  25.520  22.764  0.00  0.00     0.064 H 
ATOM    173  H74 NON d   1      56.735  24.205  22.072  0.00  0.00     0.064 H 
BRANCH 171 174
ATOM    174  NE  NON d   1      55.712  25.602  23.245  0.00  0.00    -0.227 N 
ATOM    175  CZ  NON d   1      55.629  26.742  23.922  0.00  0.00     0.665 C 
ATOM    176  NH1 NON d   1      56.552  27.683  23.763  0.00  0.00    -0.235 N 
ATOM    177  NH2 NON d   1      54.624  26.941  24.765  0.00  0.00    -0.235 N 
ATOM    178  H76 NON d   1      56.484  28.565  24.290  0.00  0.00     0.174 HD
ATOM    179  H77 NON d   1      57.336  27.531  23.113  0.00  0.00     0.174 HD
ATOM    180  H78 NON d   1      53.906  26.213  24.891  0.00  0.00     0.174 HD
ATOM    181  H79 NON d   1      54.562  27.823  25.293  0.00  0.00     0.174 HD
ATOM    182  H75 NON d   1      54.976  24.898  23.398  0.00  0.00     0.177 HD
ENDBRANCH 171 174
ENDBRANCH 168 171
ENDBRANCH 165 168
ENDBRANCH 113 165
ENDBRANCH 111 113
ENDBRANCH 107 109
BRANCH 107 183
ATOM    183  CB  NON d   1      51.228  26.787  16.996  0.00  0.00    -0.049 C 
ATOM    184  H64 NON d   1      51.431  27.812  16.654  0.00  0.00     0.030 H 
ATOM    185  H65 NON d   1      51.225  26.761  18.096  0.00  0.00     0.030 H 
ATOM    186  H66 NON d   1      50.247  26.462  16.619  0.00  0.00     0.030 H 
ENDBRANCH 107 183
ENDBRANCH 105 107
ENDBRANCH 101 103
BRANCH 101 187
ATOM    187  CB  NON d   1      53.541  21.704  18.113  0.00  0.00     0.060 C 
ATOM    188  H57 NON d   1      54.535  22.033  17.775  0.00  0.00     0.086 H 
BRANCH 187 189
ATOM    189  OG1 NON d   1      53.544  20.286  18.297  0.00  0.00    -0.393 OA
ATOM    190  H58 NON d   1      54.190  20.054  18.954  0.00  0.00     0.210 HD
ENDBRANCH 187 189
BRANCH 187 191
ATOM    191  CG2 NON d   1      53.216  22.369  19.440  0.00  0.00    -0.050 C 
ATOM    192  H59 NON d   1      53.973  22.087  20.186  0.00  0.00     0.031 H 
ATOM    193  H60 NON d   1      52.224  22.039  19.782  0.00  0.00     0.031 H 
ATOM    194  H61 NON d   1      53.215  23.462  19.312  0.00  0.00     0.031 H 
ENDBRANCH 187 191
ENDBRANCH 101 187
ENDBRANCH   3 101
TORSDOF 59
