REMARK  1 active torsions:
REMARK  status: ('A' for Active; 'I' for Inactive)
REMARK    1  A    between atoms: C6_5  and  N6_6 
ROOT
ATOM      1  N9  ADE d   1     -33.746  30.429 -16.535  0.00  0.00    -0.333 N 
ATOM      2  C8  ADE d   1     -32.438  30.802 -16.564  0.00  0.00     0.066 A 
ATOM      3  N7  ADE d   1     -32.329  32.006 -17.041  0.00  0.00    -0.236 NA
ATOM      4  C5  ADE d   1     -33.557  32.492 -17.338  0.00  0.00     0.149 A 
ATOM      5  C6  ADE d   1     -34.071  33.714 -17.890  0.00  0.00     0.155 A 
ATOM      6  N1  ADE d   1     -35.403  33.835 -18.055  0.00  0.00    -0.222 NA
ATOM      7  C2  ADE d   1     -36.237  32.847 -17.737  0.00  0.00     0.091 A 
ATOM      8  N3  ADE d   1     -35.803  31.694 -17.233  0.00  0.00    -0.222 NA
ATOM      9  C4  ADE d   1     -34.489  31.474 -17.025  0.00  0.00     0.162 A 
ATOM     10  H1  ADE d   1     -34.113  29.525 -16.205  0.00  0.00     0.168 HD
ATOM     11  H2  ADE d   1     -31.605  30.183 -16.236  0.00  0.00     0.143 H 
ATOM     12  H5  ADE d   1     -37.301  32.986 -17.893  0.00  0.00     0.146 H 
ENDROOT
BRANCH   5  13
ATOM     13  N6  ADE d   1     -33.227  34.763 -18.229  0.00  0.00    -0.382 N 
ATOM     14  H3  ADE d   1     -33.617  35.631 -18.624  0.00  0.00     0.157 HD
ATOM     15  H4  ADE d   1     -32.211  34.673 -18.086  0.00  0.00     0.157 HD
ENDBRANCH   5  13
TORSDOF 1
