REMARK WARNING: 32 MAX_TORS EXCEEDED!!!
REMARK  45 active torsions:
REMARK  status: ('A' for Active; 'I' for Inactive)
REMARK    1  A    between atoms: N_1  and  CA_2 
REMARK    2  A    between atoms: CA_2  and  C_3 
REMARK    3  A    between atoms: CA_2  and  CB_5 
REMARK       I    between atoms: C_3  and  N_9 
REMARK    4  A    between atoms: CB_5  and  CG_6 
REMARK    5  A    between atoms: N_9  and  CA_10 
REMARK    6  A    between atoms: CA_10  and  C_11 
REMARK    7  A    between atoms: CA_10  and  CB_13 
REMARK       I    between atoms: C_11  and  N_18 
REMARK    8  A    between atoms: CB_13  and  CG_14 
REMARK    9  A    between atoms: CG_14  and  CD_15 
REMARK   10  A    between atoms: N_18  and  CA_19 
REMARK   11  A    between atoms: CA_19  and  C_20 
REMARK   12  A    between atoms: CA_19  and  CB_22 
REMARK       I    between atoms: C_20  and  N_27 
REMARK   13  A    between atoms: CB_22  and  CG_23 
REMARK   14  A    between atoms: CG_23  and  CD_24 
REMARK   15  A    between atoms: N_27  and  CA_28 
REMARK   16  A    between atoms: CA_28  and  C_29 
REMARK   17  A    between atoms: CA_28  and  CB_31 
REMARK       I    between atoms: C_29  and  N_39 
REMARK   18  A    between atoms: CB_31  and  CG_32 
REMARK   19  A    between atoms: CZ_37  and  OH_38 
REMARK   20  A    between atoms: N_39  and  CA_40 
REMARK   21  A    between atoms: CA_40  and  C_41 
REMARK       I    between atoms: C_41  and  N_43 
REMARK   22  A    between atoms: N_43  and  CA_44 
REMARK   23  A    between atoms: CA_44  and  C_45 
REMARK   24  A    between atoms: CA_44  and  CB_47 
REMARK       I    between atoms: C_45  and  N_55 
REMARK   25  A    between atoms: CB_47  and  CG_48 
REMARK   26  A    between atoms: CZ_53  and  OH_54 
REMARK   27  A    between atoms: N_55  and  CA_56 
REMARK   28  A    between atoms: CA_56  and  C_57 
REMARK   29  A    between atoms: CA_56  and  CB_59 
REMARK       I    between atoms: C_57  and  N_64 
REMARK   30  A    between atoms: CB_59  and  CG_60 
REMARK   31  A    between atoms: CG_60  and  CD_61 
REMARK   32  A    between atoms: N_64  and  CA_65 
REMARK   33  A    between atoms: CA_65  and  C_66 
REMARK   34  A    between atoms: CA_65  and  CB_68 
REMARK       I    between atoms: C_66  and  N_70 
REMARK   35  A    between atoms: CB_68  and  SG_69 
REMARK   36  A    between atoms: N_70  and  CA_71 
REMARK   37  A    between atoms: CA_71  and  C_72 
REMARK   38  A    between atoms: CA_71  and  CB_74 
REMARK       I    between atoms: C_72  and  N_78 
REMARK   39  A    between atoms: CB_74  and  CG_75 
REMARK   40  A    between atoms: CG_75  and  CD1_76 
REMARK   41  A    between atoms: CG_75  and  CD2_77 
REMARK   42  A    between atoms: N_78  and  CA_79 
REMARK   43  A    between atoms: CA_79  and  C_80 
REMARK   44  A    between atoms: CA_79  and  CB_82 
REMARK   45  A    between atoms: CB_82  and  CG_83 
ROOT
ATOM      1  CA  TYR d   1     -31.249  51.417  25.705  0.00  0.00     0.093 C 
ATOM      2  H32 TYR d   1     -31.994  50.622  25.555  0.00  0.00     0.088 H 
ENDROOT
BRANCH   1   3
ATOM      3  N   TYR d   1     -31.847  52.719  25.932  0.00  0.00    -0.346 N 
ATOM      4  C   GLY d   1     -33.174  52.969  25.997  0.00  0.00     0.236 C 
ATOM      5  O   GLY d   1     -33.709  54.084  26.355  0.00  0.00    -0.272 OA
ATOM      6  H31 TYR d   1     -31.227  53.495  26.050  0.00  0.00     0.163 HD
BRANCH   4   7
ATOM      7  CA  GLY d   1     -33.994  51.767  25.738  0.00  0.00     0.069 C 
ATOM      8  H29 GLY d   1     -35.059  52.003  25.878  0.00  0.00     0.078 H 
ATOM      9  H30 GLY d   1     -33.829  51.416  24.709  0.00  0.00     0.078 H 
BRANCH   7  10
ATOM     10  N   GLY d   1     -33.582  50.734  26.690  0.00  0.00    -0.351 N 
ATOM     11  C   TYR d   1     -34.294  50.464  27.809  0.00  0.00     0.241 C 
ATOM     12  O   TYR d   1     -34.123  49.362  28.423  0.00  0.00    -0.271 OA
ATOM     13  H28 GLY d   1     -32.749  50.212  26.508  0.00  0.00     0.163 HD
BRANCH  11  14
ATOM     14  CA  TYR d   1     -35.391  51.553  28.344  0.00  0.00     0.093 C 
ATOM     15  H20 TYR d   1     -35.776  51.150  29.293  0.00  0.00     0.088 H 
BRANCH  14  16
ATOM     16  N   TYR d   1     -34.726  52.897  28.718  0.00  0.00    -0.346 N 
ATOM     17  C   GLU d   1     -35.084  53.953  29.526  0.00  0.00     0.241 C 
ATOM     18  O   GLU d   1     -34.179  54.619  30.088  0.00  0.00    -0.271 OA
ATOM     19  H19 TYR d   1     -33.839  53.029  28.275  0.00  0.00     0.163 HD
BRANCH  17  20
ATOM     20  CA  GLU d   1     -36.589  54.492  29.766  0.00  0.00     0.090 C 
ATOM     21  H14 GLU d   1     -36.626  55.031  28.808  0.00  0.00     0.087 H 
BRANCH  20  22
ATOM     22  N   GLU d   1     -37.973  53.864  29.576  0.00  0.00    -0.346 N 
ATOM     23  C   GLU d   1     -39.031  53.965  30.413  0.00  0.00     0.241 C 
ATOM     24  O   GLU d   1     -38.967  53.654  31.609  0.00  0.00    -0.271 OA
ATOM     25  H13 GLU d   1     -38.109  53.323  28.746  0.00  0.00     0.163 HD
BRANCH  23  26
ATOM     26  CA  GLU d   1     -40.437  54.346  29.831  0.00  0.00     0.090 C 
ATOM     27  H8  GLU d   1     -41.156  53.686  30.339  0.00  0.00     0.087 H 
BRANCH  26  28
ATOM     28  N   GLU d   1     -40.792  55.729  30.212  0.00  0.00    -0.346 N 
ATOM     29  C   ASP d   1     -42.049  56.185  30.261  0.00  0.00     0.249 C 
ATOM     30  O   ASP d   1     -43.034  55.511  29.955  0.00  0.00    -0.271 OA
ATOM     31  H7  GLU d   1     -40.052  56.359  30.446  0.00  0.00     0.163 HD
BRANCH  29  32
ATOM     32  CA  ASP d   1     -42.209  57.619  30.726  0.00  0.00     0.185 C 
ATOM     33  H4  ASP d   1     -41.568  58.263  30.106  0.00  0.00     0.100 H 
BRANCH  32  34
ATOM     34  N   ASP d   1     -43.615  58.102  30.615  0.00  0.00    -0.066 N 
ATOM     35  H1  ASP d   1     -43.669  59.056  30.935  0.00  0.00     0.275 HD
ATOM     36  H2  ASP d   1     -44.215  57.523  31.182  0.00  0.00     0.275 HD
ATOM     37  H3  ASP d   1     -43.912  58.053  29.653  0.00  0.00     0.275 HD
ENDBRANCH  32  34
BRANCH  32  38
ATOM     38  CB  ASP d   1     -41.763  57.713  32.175  0.00  0.00     0.050 C 
ATOM     39  H5  ASP d   1     -41.062  56.892  32.383  0.00  0.00     0.052 H 
ATOM     40  H6  ASP d   1     -42.646  57.614  32.824  0.00  0.00     0.052 H 
BRANCH  38  41
ATOM     41  CG  ASP d   1     -41.092  59.000  32.478  0.00  0.00     0.175 C 
ATOM     42  OD1 ASP d   1     -41.785  59.948  32.898  0.00  0.00    -0.648 OA
ATOM     43  OD2 ASP d   1     -39.865  59.053  32.274  0.00  0.00    -0.648 OA
ENDBRANCH  38  41
ENDBRANCH  32  38
ENDBRANCH  29  32
ENDBRANCH  26  28
BRANCH  26  44
ATOM     44  CB  GLU d   1     -40.655  54.099  28.308  0.00  0.00    -0.029 C 
ATOM     45  H9  GLU d   1     -40.277  53.097  28.056  0.00  0.00     0.037 H 
ATOM     46  H10 GLU d   1     -40.090  54.856  27.744  0.00  0.00     0.037 H 
BRANCH  44  47
ATOM     47  CG  GLU d   1     -42.186  54.186  27.884  0.00  0.00     0.018 C 
ATOM     48  H11 GLU d   1     -42.494  55.239  27.960  0.00  0.00     0.049 H 
ATOM     49  H12 GLU d   1     -42.765  53.582  28.598  0.00  0.00     0.049 H 
BRANCH  47  50
ATOM     50  CD  GLU d   1     -42.534  53.699  26.472  0.00  0.00     0.172 C 
ATOM     51  OE1 GLU d   1     -41.616  53.309  25.715  0.00  0.00    -0.648 OA
ATOM     52  OE2 GLU d   1     -43.745  53.705  26.140  0.00  0.00    -0.648 OA
ENDBRANCH  47  50
ENDBRANCH  44  47
ENDBRANCH  26  44
ENDBRANCH  23  26
ENDBRANCH  20  22
BRANCH  20  53
ATOM     53  CB  GLU d   1     -36.614  55.742  30.719  0.00  0.00    -0.029 C 
ATOM     54  H15 GLU d   1     -37.295  56.477  30.264  0.00  0.00     0.037 H 
ATOM     55  H16 GLU d   1     -35.593  56.150  30.737  0.00  0.00     0.037 H 
BRANCH  53  56
ATOM     56  CG  GLU d   1     -37.051  55.574  32.176  0.00  0.00     0.018 C 
ATOM     57  H17 GLU d   1     -37.719  54.703  32.248  0.00  0.00     0.049 H 
ATOM     58  H18 GLU d   1     -37.593  56.478  32.490  0.00  0.00     0.049 H 
BRANCH  56  59
ATOM     59  CD  GLU d   1     -35.881  55.365  33.099  0.00  0.00     0.172 C 
ATOM     60  OE1 GLU d   1     -35.897  55.938  34.208  0.00  0.00    -0.648 OA
ATOM     61  OE2 GLU d   1     -34.934  54.646  32.700  0.00  0.00    -0.648 OA
ENDBRANCH  56  59
ENDBRANCH  53  56
ENDBRANCH  20  53
ENDBRANCH  17  20
ENDBRANCH  14  16
BRANCH  14  62
ATOM     62  CB  TYR d   1     -36.629  51.643  27.415  0.00  0.00    -0.014 C 
ATOM     63  H21 TYR d   1     -36.328  51.362  26.395  0.00  0.00     0.043 H 
ATOM     64  H22 TYR d   1     -36.999  52.679  27.416  0.00  0.00     0.043 H 
BRANCH  62  65
ATOM     65  CG  TYR d   1     -37.751  50.722  27.866  0.00  0.00    -0.056 A 
ATOM     66  CD1 TYR d   1     -37.994  50.517  29.256  0.00  0.00    -0.074 A 
ATOM     67  CE1 TYR d   1     -39.062  49.646  29.750  0.00  0.00    -0.051 A 
ATOM     68  H23 TYR d   1     -37.363  51.026  29.975  0.00  0.00     0.084 H 
ATOM     69  CZ  TYR d   1     -39.881  48.959  28.840  0.00  0.00     0.065 A 
ATOM     70  H25 TYR d   1     -39.220  49.532  30.816  0.00  0.00     0.087 H 
ATOM     71  CE2 TYR d   1     -39.656  49.142  27.440  0.00  0.00    -0.051 A 
ATOM     72  CD2 TYR d   1     -38.586  50.040  26.951  0.00  0.00    -0.074 A 
ATOM     73  H26 TYR d   1     -40.279  48.615  26.726  0.00  0.00     0.087 H 
ATOM     74  H24 TYR d   1     -38.442  50.176  25.885  0.00  0.00     0.084 H 
BRANCH  69  75
ATOM     75  OH  TYR d   1     -40.893  48.119  29.353  0.00  0.00    -0.361 OA
ATOM     76  H27 TYR d   1     -40.870  48.141  30.302  0.00  0.00     0.217 HD
ENDBRANCH  69  75
ENDBRANCH  62  65
ENDBRANCH  14  62
ENDBRANCH  11  14
ENDBRANCH   7  10
ENDBRANCH   4   7
ENDBRANCH   1   3
BRANCH   1  77
ATOM     77  C   TYR d   1     -30.353  51.140  26.895  0.00  0.00     0.241 C 
ATOM     78  O   TYR d   1     -30.013  52.043  27.677  0.00  0.00    -0.271 OA
ATOM     79  N   GLU d   1     -29.906  49.908  27.024  0.00  0.00    -0.346 N 
ATOM     80  H40 GLU d   1     -30.282  49.179  26.452  0.00  0.00     0.163 HD
BRANCH  79  81
ATOM     81  CA  GLU d   1     -28.829  49.592  28.031  0.00  0.00     0.090 C 
ATOM     82  H41 GLU d   1     -28.746  50.449  28.716  0.00  0.00     0.087 H 
BRANCH  81  83
ATOM     83  C   GLU d   1     -27.480  49.395  27.301  0.00  0.00     0.241 C 
ATOM     84  O   GLU d   1     -27.446  48.902  26.169  0.00  0.00    -0.271 OA
ATOM     85  N   CYS d   1     -26.390  49.759  27.956  0.00  0.00    -0.345 N 
ATOM     86  H46 CYS d   1     -26.481  50.237  28.829  0.00  0.00     0.163 HD
BRANCH  85  87
ATOM     87  CA  CYS d   1     -25.063  49.479  27.434  0.00  0.00     0.097 C 
ATOM     88  H47 CYS d   1     -24.943  50.029  26.489  0.00  0.00     0.088 H 
BRANCH  87  89
ATOM     89  C   CYS d   1     -24.855  47.970  27.115  0.00  0.00     0.241 C 
ATOM     90  O   CYS d   1     -25.324  47.120  27.850  0.00  0.00    -0.271 OA
ATOM     91  N   LEU d   1     -24.233  47.631  25.981  0.00  0.00    -0.346 N 
ATOM     92  H51 LEU d   1     -23.976  48.336  25.320  0.00  0.00     0.163 HD
BRANCH  91  93
ATOM     93  CA  LEU d   1     -23.924  46.198  25.705  0.00  0.00     0.089 C 
ATOM     94  H52 LEU d   1     -24.368  45.576  26.497  0.00  0.00     0.087 H 
BRANCH  93  95
ATOM     95  C   LEU d   1     -22.403  45.974  25.683  0.00  0.00     0.241 C 
ATOM     96  O   LEU d   1     -21.736  46.656  24.919  0.00  0.00    -0.271 OA
ATOM     97  N   ASP d   1     -21.834  45.113  26.516  0.00  0.00    -0.344 N 
ATOM     98  H62 ASP d   1     -22.393  44.554  27.128  0.00  0.00     0.163 HD
BRANCH  97  99
ATOM     99  CA  ASP d   1     -20.348  44.991  26.526  0.00  0.00     0.105 C 
ATOM    100  H63 ASP d   1     -19.985  45.995  26.792  0.00  0.00     0.090 H 
BRANCH  99 101
ATOM    101  C   ASP d   1     -19.669  44.639  25.199  0.00  0.00     0.197 C 
ATOM    102  O   ASP d   1     -20.076  43.706  24.487  0.00  0.00    -0.646 OA
ATOM    103  OXT ASP d   1     -18.643  45.266  24.876  0.00  0.00    -0.646 OA
ENDBRANCH  99 101
BRANCH  99 104
ATOM    104  CB  ASP d   1     -19.816  44.035  27.603  0.00  0.00     0.044 C 
ATOM    105  H64 ASP d   1     -18.743  43.867  27.428  0.00  0.00     0.053 H 
ATOM    106  H65 ASP d   1     -20.355  43.079  27.525  0.00  0.00     0.053 H 
BRANCH 104 107
ATOM    107  CG  ASP d   1     -19.998  44.576  28.978  0.00  0.00     0.175 C 
ATOM    108  OD1 ASP d   1     -19.022  44.580  29.741  0.00  0.00    -0.648 OA
ATOM    109  OD2 ASP d   1     -21.143  45.002  29.294  0.00  0.00    -0.648 OA
ENDBRANCH 104 107
ENDBRANCH  99 104
ENDBRANCH  97  99
ENDBRANCH  93  95
BRANCH  93 110
ATOM    110  CB  LEU d   1     -24.511  45.797  24.368  0.00  0.00    -0.035 C 
ATOM    111  H53 LEU d   1     -24.186  46.522  23.607  0.00  0.00     0.037 H 
ATOM    112  H54 LEU d   1     -25.608  45.813  24.445  0.00  0.00     0.037 H 
BRANCH 110 113
ATOM    113  CG  LEU d   1     -24.069  44.397  23.934  0.00  0.00    -0.059 C 
ATOM    114  H55 LEU d   1     -22.971  44.363  24.000  0.00  0.00     0.038 H 
BRANCH 113 115
ATOM    115  CD1 LEU d   1     -24.607  43.253  24.819  0.00  0.00    -0.073 C 
ATOM    116  H56 LEU d   1     -24.241  42.289  24.435  0.00  0.00     0.028 H 
ATOM    117  H57 LEU d   1     -25.707  43.261  24.800  0.00  0.00     0.028 H 
ATOM    118  H58 LEU d   1     -24.257  43.393  25.852  0.00  0.00     0.028 H 
ENDBRANCH 113 115
BRANCH 113 119
ATOM    119  CD2 LEU d   1     -24.460  44.195  22.482  0.00  0.00    -0.073 C 
ATOM    120  H59 LEU d   1     -24.064  45.024  21.877  0.00  0.00     0.028 H 
ATOM    121  H60 LEU d   1     -25.556  44.171  22.397  0.00  0.00     0.028 H 
ATOM    122  H61 LEU d   1     -24.043  43.244  22.119  0.00  0.00     0.028 H 
ENDBRANCH 113 119
ENDBRANCH 110 113
ENDBRANCH  93 110
ENDBRANCH  91  93
ENDBRANCH  87  89
BRANCH  87 123
ATOM    123  CB  CYS d   1     -24.077  50.008  28.399  0.00  0.00     0.001 C 
ATOM    124  H48 CYS d   1     -24.212  49.525  29.378  0.00  0.00     0.052 H 
ATOM    125  H49 CYS d   1     -24.202  51.096  28.506  0.00  0.00     0.052 H 
BRANCH 123 126
ATOM    126  SG  CYS d   1     -22.438  49.637  27.751  0.00  0.00    -0.180 SA
ATOM    127  H50 CYS d   1     -22.325  50.079  26.852  0.00  0.00     0.101 HD
ENDBRANCH 123 126
ENDBRANCH  87 123
ENDBRANCH  85  87
ENDBRANCH  81  83
BRANCH  81 128
ATOM    128  CB  GLU d   1     -29.098  48.333  28.869  0.00  0.00    -0.029 C 
ATOM    129  H42 GLU d   1     -28.255  48.213  29.565  0.00  0.00     0.037 H 
ATOM    130  H43 GLU d   1     -29.128  47.477  28.179  0.00  0.00     0.037 H 
BRANCH 128 131
ATOM    131  CG  GLU d   1     -30.365  48.301  29.684  0.00  0.00     0.018 C 
ATOM    132  H44 GLU d   1     -30.444  47.308  30.151  0.00  0.00     0.049 H 
ATOM    133  H45 GLU d   1     -31.213  48.453  29.000  0.00  0.00     0.049 H 
BRANCH 131 134
ATOM    134  CD  GLU d   1     -30.459  49.372  30.812  0.00  0.00     0.172 C 
ATOM    135  OE1 GLU d   1     -31.604  49.795  31.131  0.00  0.00    -0.648 OA
ATOM    136  OE2 GLU d   1     -29.419  49.790  31.385  0.00  0.00    -0.648 OA
ENDBRANCH 131 134
ENDBRANCH 128 131
ENDBRANCH  81 128
ENDBRANCH  79  81
ENDBRANCH   1  77
BRANCH   1 137
ATOM    137  CB  TYR d   1     -30.358  51.632  24.474  0.00  0.00    -0.014 C 
ATOM    138  H33 TYR d   1     -29.570  50.864  24.464  0.00  0.00     0.043 H 
ATOM    139  H34 TYR d   1     -29.898  52.629  24.535  0.00  0.00     0.043 H 
BRANCH 137 140
ATOM    140  CG  TYR d   1     -31.168  51.534  23.169  0.00  0.00    -0.056 A 
ATOM    141  CD1 TYR d   1     -31.289  50.297  22.522  0.00  0.00    -0.074 A 
ATOM    142  CE1 TYR d   1     -32.012  50.161  21.305  0.00  0.00    -0.051 A 
ATOM    143  H35 TYR d   1     -30.820  49.423  22.959  0.00  0.00     0.084 H 
ATOM    144  CZ  TYR d   1     -32.620  51.187  20.735  0.00  0.00     0.065 A 
ATOM    145  H37 TYR d   1     -32.066  49.188  20.831  0.00  0.00     0.087 H 
ATOM    146  CE2 TYR d   1     -32.513  52.476  21.333  0.00  0.00    -0.051 A 
ATOM    147  CD2 TYR d   1     -31.751  52.638  22.557  0.00  0.00    -0.074 A 
ATOM    148  H38 TYR d   1     -32.998  53.331  20.876  0.00  0.00     0.087 H 
ATOM    149  H36 TYR d   1     -31.636  53.623  22.996  0.00  0.00     0.084 H 
BRANCH 144 150
ATOM    150  OH  TYR d   1     -33.361  50.850  19.608  0.00  0.00    -0.361 OA
ATOM    151  H39 TYR d   1     -33.255  49.923  19.426  0.00  0.00     0.217 HD
ENDBRANCH 144 150
ENDBRANCH 137 140
ENDBRANCH   1 137
TORSDOF 45
