REMARK  15 active torsions:
REMARK  status: ('A' for Active; 'I' for Inactive)
REMARK    1  A    between atoms: C1_1  and  C2_4 
REMARK    2  A    between atoms: C2_4  and  C3_5 
REMARK    3  A    between atoms: C3_5  and  O3_6 
REMARK    4  A    between atoms: C3_5  and  C4_7 
REMARK       I    between atoms: C4_7  and  N1_9 
REMARK    5  A    between atoms: N1_9  and  C6_10 
REMARK    6  A    between atoms: C6_10  and  C7_11 
REMARK    7  A    between atoms: C6_10  and  C11_15 
REMARK    8  A    between atoms: C7_11  and  C8_12 
REMARK    9  A    between atoms: C8_12  and  C9_13 
REMARK   10  A    between atoms: C8_12  and  C10_14 
REMARK       I    between atoms: C11_15  and  N2_17 
REMARK   11  A    between atoms: N2_17  and  C12_18 
REMARK   12  A    between atoms: C12_18  and  C13_19 
REMARK   13  A    between atoms: C13_19  and  C14_20 
REMARK   14  A    between atoms: C14_20  and  C15_21 
REMARK   15  A    between atoms: C15_21  and  N3_22 
REMARK       I    between atoms: N3_22  and  C16_23 
REMARK       I    between atoms: C16_23  and  N4_24 
ROOT
ATOM      1  C6  E64 d   1      12.451  26.652   8.229  0.00  0.00     0.089 C 
ATOM      2  H6  E64 d   1      11.712  26.493   9.028  0.00  0.00     0.087 H 
ENDROOT
BRANCH   1   3
ATOM      3  N1  E64 d   1      13.690  26.003   8.600  0.00  0.00    -0.346 N 
ATOM      4  C4  E64 d   1      13.881  25.605   9.847  0.00  0.00     0.247 C 
ATOM      5  O4  E64 d   1      12.961  25.276  10.593  0.00  0.00    -0.271 OA
ATOM      6  H5  E64 d   1      14.402  25.855   7.913  0.00  0.00     0.163 HD
BRANCH   4   7
ATOM      7  C3  E64 d   1      15.314  25.594  10.321  0.00  0.00     0.121 C 
ATOM      8  H3  E64 d   1      15.156  24.918  11.174  0.00  0.00     0.098 H 
BRANCH   7   9
ATOM      9  C2  E64 d   1      15.614  26.821  11.176  0.00  0.00     0.048 C 
ATOM     10  H1  E64 d   1      15.807  27.676  10.511  0.00  0.00     0.053 H 
ATOM     11  H2  E64 d   1      14.738  27.036  11.805  0.00  0.00     0.053 H 
BRANCH   9  12
ATOM     12  C1  E64 d   1      16.806  26.623  12.063  0.00  0.00     0.175 C 
ATOM     13  O1  E64 d   1      17.493  27.664  12.412  0.00  0.00    -0.648 OA
ATOM     14  O2  E64 d   1      17.113  25.496  12.439  0.00  0.00    -0.648 OA
ENDBRANCH   9  12
ENDBRANCH   7   9
BRANCH   7  15
ATOM     15  O3  E64 d   1      16.268  24.725   9.703  0.00  0.00    -0.386 OA
ATOM     16  H4  E64 d   1      15.811  24.040   9.229  0.00  0.00     0.210 HD
ENDBRANCH   7  15
ENDBRANCH   4   7
ENDBRANCH   1   3
BRANCH   1  17
ATOM     17  C7  E64 d   1      12.668  28.152   8.050  0.00  0.00    -0.035 C 
ATOM     18  H7  E64 d   1      12.747  28.352   6.971  0.00  0.00     0.037 H 
ATOM     19  H8  E64 d   1      13.616  28.414   8.542  0.00  0.00     0.037 H 
BRANCH  17  20
ATOM     20  C8  E64 d   1      11.581  29.072   8.615  0.00  0.00    -0.059 C 
ATOM     21  H9  E64 d   1      12.032  30.043   8.869  0.00  0.00     0.038 H 
BRANCH  20  22
ATOM     22  C9  E64 d   1      10.512  29.288   7.563  0.00  0.00    -0.073 C 
ATOM     23  H10 E64 d   1       9.730  29.948   7.965  0.00  0.00     0.028 H 
ATOM     24  H11 E64 d   1      10.068  28.320   7.287  0.00  0.00     0.028 H 
ATOM     25  H12 E64 d   1      10.962  29.753   6.673  0.00  0.00     0.028 H 
ENDBRANCH  20  22
BRANCH  20  26
ATOM     26  C10 E64 d   1      10.980  28.470   9.877  0.00  0.00    -0.073 C 
ATOM     27  H13 E64 d   1      11.772  28.322  10.626  0.00  0.00     0.028 H 
ATOM     28  H14 E64 d   1      10.517  27.502   9.637  0.00  0.00     0.028 H 
ATOM     29  H15 E64 d   1      10.217  29.151  10.281  0.00  0.00     0.028 H 
ENDBRANCH  20  26
ENDBRANCH  17  20
ENDBRANCH   1  17
BRANCH   1  30
ATOM     30  C11 E64 d   1      11.926  26.053   6.949  0.00  0.00     0.240 C 
ATOM     31  O5  E64 d   1      11.037  26.615   6.317  0.00  0.00    -0.271 OA
ATOM     32  N2  E64 d   1      12.479  24.904   6.570  0.00  0.00    -0.359 N 
ATOM     33  H16 E64 d   1      13.389  24.684   6.920  0.00  0.00     0.162 HD
BRANCH  32  34
ATOM     34  C12 E64 d   1      11.839  23.943   5.673  0.00  0.00    -0.005 C 
ATOM     35  H17 E64 d   1      12.412  23.900   4.735  0.00  0.00     0.064 H 
ATOM     36  H18 E64 d   1      10.815  24.285   5.462  0.00  0.00     0.064 H 
BRANCH  34  37
ATOM     37  C13 E64 d   1      11.773  22.543   6.270  0.00  0.00    -0.049 C 
ATOM     38  H19 E64 d   1      11.389  22.608   7.298  0.00  0.00     0.035 H 
ATOM     39  H20 E64 d   1      12.784  22.110   6.283  0.00  0.00     0.035 H 
BRANCH  37  40
ATOM     40  C14 E64 d   1      10.855  21.642   5.451  0.00  0.00    -0.048 C 
ATOM     41  H21 E64 d   1      11.331  21.437   4.481  0.00  0.00     0.035 H 
ATOM     42  H22 E64 d   1       9.899  22.162   5.288  0.00  0.00     0.035 H 
BRANCH  40  43
ATOM     43  C15 E64 d   1      10.582  20.319   6.154  0.00  0.00     0.009 C 
ATOM     44  H23 E64 d   1       9.539  20.310   6.502  0.00  0.00     0.064 H 
ATOM     45  H24 E64 d   1      11.257  20.230   7.018  0.00  0.00     0.064 H 
BRANCH  43  46
ATOM     46  N3  E64 d   1      10.794  19.177   5.269  0.00  0.00    -0.227 N 
ATOM     47  C16 E64 d   1       9.864  18.671   4.464  0.00  0.00     0.665 C 
ATOM     48  N4  E64 d   1       9.282  17.523   4.794  0.00  0.00    -0.235 N 
ATOM     49  N5  E64 d   1       9.499  19.277   3.336  0.00  0.00    -0.235 N 
ATOM     50  H26 E64 d   1       8.560  17.117   4.182  0.00  0.00     0.174 HD
ATOM     51  H27 E64 d   1       9.553  17.039   5.662  0.00  0.00     0.174 HD
ATOM     52  H28 E64 d   1       9.939  20.168   3.064  0.00  0.00     0.174 HD
ATOM     53  H29 E64 d   1       8.776  18.855   2.735  0.00  0.00     0.174 HD
ATOM     54  H25 E64 d   1      11.724  18.735   5.268  0.00  0.00     0.177 HD
ENDBRANCH  43  46
ENDBRANCH  40  43
ENDBRANCH  37  40
ENDBRANCH  34  37
ENDBRANCH  32  34
ENDBRANCH   1  30
TORSDOF 15
