REMARK  6 active torsions:
REMARK  status: ('A' for Active; 'I' for Inactive)
REMARK    1  A    between atoms: C1_1  and  O1_7 
REMARK    2  A    between atoms: C3_3  and  O3_8 
REMARK    3  A    between atoms: C4_4  and  O4_9 
REMARK    4  A    between atoms: C5_5  and  C6_6 
REMARK    5  A    between atoms: C6_6  and  O6_11 
REMARK    6  A    between atoms: O6_11  and  P_12 
ROOT
ATOM      1  C1  D6G d   1      25.061   5.570  50.742  0.00  0.00     0.131 C 
ATOM      2  C2  D6G d   1      23.800   4.646  50.974  0.00  0.00     0.007 C 
ATOM      3  C3  D6G d   1      24.026   3.641  52.139  0.00  0.00     0.067 C 
ATOM      4  C4  D6G d   1      25.343   2.839  51.949  0.00  0.00     0.087 C 
ATOM      5  C5  D6G d   1      26.573   3.837  51.701  0.00  0.00     0.089 C 
ATOM      6  O5  D6G d   1      26.269   4.748  50.616  0.00  0.00    -0.351 OA
ATOM      7  H1  D6G d   1      24.907   6.101  49.791  0.00  0.00     0.128 H 
ATOM      8  H2  D6G d   1      23.598   4.082  50.052  0.00  0.00     0.044 H 
ATOM      9  H3  D6G d   1      22.934   5.280  51.214  0.00  0.00     0.044 H 
ATOM     10  H4  D6G d   1      24.100   4.221  53.071  0.00  0.00     0.087 H 
ATOM     11  H5  D6G d   1      25.247   2.172  51.080  0.00  0.00     0.091 H 
ATOM     12  H6  D6G d   1      26.765   4.404  52.624  0.00  0.00     0.090 H 
ENDROOT
BRANCH   5  13
ATOM     13  C6  D6G d   1      27.814   3.088  51.298  0.00  0.00     0.059 C 
ATOM     14  H7  D6G d   1      27.713   2.756  50.254  0.00  0.00     0.079 H 
ATOM     15  H8  D6G d   1      27.936   2.212  51.952  0.00  0.00     0.079 H 
BRANCH  13  16
ATOM     16  O6  D6G d   1      28.946   3.911  51.413  0.00  0.00    -0.280 OA
BRANCH  16  17
ATOM     17  P   D6G d   1      30.489   3.382  51.326  0.00  0.00     0.422 P 
ATOM     18  O1P D6G d   1      30.651   2.433  52.485  0.00  0.00    -0.617 OA
ATOM     19  O2P D6G d   1      31.409   4.545  51.503  0.00  0.00    -0.617 OA
ATOM     20  O3P D6G d   1      30.551   2.805  49.909  0.00  0.00    -0.617 OA
ENDBRANCH  16  17
ENDBRANCH  13  16
ENDBRANCH   5  13
BRANCH   4  21
ATOM     21  O4  D6G d   1      25.540   2.055  53.129  0.00  0.00    -0.390 OA
ATOM     22  H11 D6G d   1      24.797   1.475  53.250  0.00  0.00     0.210 HD
ENDBRANCH   4  21
BRANCH   3  23
ATOM     23  O3  D6G d   1      22.959   2.713  52.273  0.00  0.00    -0.393 OA
ATOM     24  H10 D6G d   1      23.116   2.158  53.028  0.00  0.00     0.210 HD
ENDBRANCH   3  23
BRANCH   1  25
ATOM     25  O1  D6G d   1      25.254   6.561  51.757  0.00  0.00    -0.371 OA
ATOM     26  H9  D6G d   1      25.989   7.115  51.522  0.00  0.00     0.212 HD
ENDBRANCH   1  25
TORSDOF 6
