REMARK  7 active torsions:
REMARK  status: ('A' for Active; 'I' for Inactive)
REMARK    1  A    between atoms: N1_9  and  C1_1 
REMARK    2  A    between atoms: C2_2  and  O2_11 
REMARK    3  A    between atoms: C3_3  and  O3_10 
REMARK    4  A    between atoms: C4_4  and  O4_12 
REMARK    5  A    between atoms: C5_5  and  C6_6 
REMARK    6  A    between atoms: C6_6  and  O6_14 
REMARK    7  A    between atoms: C7_7  and  C8_8 
REMARK       I    between atoms: C7_7  and  N1_9 
ROOT
ATOM      1  C1  NBG d   1      33.936  22.776  27.763  0.00  0.00     0.133 C 
ATOM      2  C2  NBG d   1      33.951  23.093  26.273  0.00  0.00     0.104 C 
ATOM      3  C3  NBG d   1      32.663  22.566  25.616  0.00  0.00     0.091 C 
ATOM      4  C4  NBG d   1      32.443  21.100  25.979  0.00  0.00     0.089 C 
ATOM      5  C5  NBG d   1      32.354  20.962  27.539  0.00  0.00     0.088 C 
ATOM      6  O5  NBG d   1      33.582  21.399  28.109  0.00  0.00    -0.354 OA
ATOM      7  H1  NBG d   1      33.242  23.455  28.281  0.00  0.00     0.122 H 
ATOM      8  H2  NBG d   1      34.819  22.605  25.806  0.00  0.00     0.093 H 
ATOM      9  H3  NBG d   1      31.808  23.158  25.976  0.00  0.00     0.091 H 
ATOM     10  H4  NBG d   1      33.295  20.504  25.620  0.00  0.00     0.091 H 
ATOM     11  H5  NBG d   1      31.522  21.575  27.916  0.00  0.00     0.090 H 
ENDROOT
BRANCH   1  12
ATOM     12  N1  NBG d   1      35.279  23.030  28.147  0.00  0.00    -0.333 N 
ATOM     13  C7  NBG d   1      35.581  23.636  29.291  0.00  0.00     0.215 C 
ATOM     14  O7  NBG d   1      34.726  24.019  30.099  0.00  0.00    -0.274 OA
ATOM     15  H11 NBG d   1      36.020  22.745  27.539  0.00  0.00     0.165 HD
BRANCH  13  16
ATOM     16  C8  NBG d   1      37.103  23.837  29.569  0.00  0.00    -0.003 C 
ATOM     17  H8  NBG d   1      37.235  24.345  30.536  0.00  0.00     0.040 H 
ATOM     18  H9  NBG d   1      37.544  24.451  28.770  0.00  0.00     0.040 H 
ATOM     19  H10 NBG d   1      37.603  22.858  29.598  0.00  0.00     0.040 H 
ENDBRANCH  13  16
ENDBRANCH   1  12
BRANCH   2  20
ATOM     20  O2  NBG d   1      34.052  24.482  26.097  0.00  0.00    -0.389 OA
ATOM     21  H13 NBG d   1      34.072  24.682  25.169  0.00  0.00     0.210 HD
ENDBRANCH   2  20
BRANCH   3  22
ATOM     22  O3  NBG d   1      32.760  22.694  24.207  0.00  0.00    -0.390 OA
ATOM     23  H12 NBG d   1      32.897  23.607  23.982  0.00  0.00     0.210 HD
ENDBRANCH   3  22
BRANCH   5  24
ATOM     24  C6  NBG d   1      32.148  19.535  27.933  0.00  0.00     0.043 C 
ATOM     25  H6  NBG d   1      31.188  19.169  27.540  0.00  0.00     0.078 H 
ATOM     26  H7  NBG d   1      32.156  19.441  29.029  0.00  0.00     0.078 H 
BRANCH  24  27
ATOM     27  O6  NBG d   1      33.212  18.796  27.376  0.00  0.00    -0.398 OA
ATOM     28  H15 NBG d   1      34.036  19.123  27.717  0.00  0.00     0.209 HD
ENDBRANCH  24  27
ENDBRANCH   5  24
BRANCH   4  29
ATOM     29  O4  NBG d   1      31.283  20.651  25.348  0.00  0.00    -0.390 OA
ATOM     30  H14 NBG d   1      30.541  21.162  25.650  0.00  0.00     0.210 HD
ENDBRANCH   4  29
TORSDOF 7
