REMARK  8 active torsions:
REMARK  status: ('A' for Active; 'I' for Inactive)
REMARK    1  A    between atoms: C2_2  and  C10_3 
REMARK       I    between atoms: C2_2  and  N1_11 
REMARK    2  A    between atoms: C10_3  and  C11_4 
REMARK    3  A    between atoms: C14_7  and  O17_8 
REMARK    4  A    between atoms: N1_11  and  C9_12 
REMARK    5  A    between atoms: C8_13  and  C26_14 
REMARK    6  A    between atoms: C26_14  and  C27_15 
REMARK    7  A    between atoms: C6_22  and  C19_25 
REMARK    8  A    between atoms: C22_28  and  O25_29 
ROOT
ATOM      1  C9  CEI d   1     -16.493  -0.517  37.954  0.00  0.00     0.155 A 
ATOM      2  C8  CEI d   1     -15.105  -0.446  37.980  0.00  0.00     0.085 A 
ATOM      3  N7  CEI d   1     -14.391  -1.485  38.463  0.00  0.00    -0.247 NA
ATOM      4  C6  CEI d   1     -15.021  -2.587  38.929  0.00  0.00     0.085 A 
ATOM      5  C5  CEI d   1     -16.415  -2.649  38.909  0.00  0.00     0.033 A 
ATOM      6  N4  CEI d   1     -17.127  -1.621  38.423  0.00  0.00    -0.239 NA
ATOM      7  H16 CEI d   1     -16.923  -3.529  39.287  0.00  0.00     0.118 H 
ENDROOT
BRANCH   1   8
ATOM      8  N1  CEI d   1     -17.271   0.533  37.459  0.00  0.00    -0.310 N 
ATOM      9  C2  CEI d   1     -17.821   1.398  38.315  0.00  0.00     0.227 C 
ATOM     10  O33 CEI d   1     -17.683   1.338  39.529  0.00  0.00    -0.273 OA
ATOM     11  H8  CEI d   1     -17.414   0.635  36.475  0.00  0.00     0.170 HD
BRANCH   9  12
ATOM     12  C10 CEI d   1     -18.662   2.495  37.713  0.00  0.00     0.033 C 
ATOM     13  H1  CEI d   1     -19.418   2.808  38.449  0.00  0.00     0.054 H 
ATOM     14  H2  CEI d   1     -19.164   2.105  36.815  0.00  0.00     0.054 H 
BRANCH  12  15
ATOM     15  C11 CEI d   1     -17.832   3.698  37.325  0.00  0.00    -0.049 A 
ATOM     16  C12 CEI d   1     -16.998   4.329  38.249  0.00  0.00    -0.074 A 
ATOM     17  C13 CEI d   1     -16.255   5.444  37.871  0.00  0.00    -0.051 A 
ATOM     18  H3  CEI d   1     -16.929   3.950  39.262  0.00  0.00     0.084 H 
ATOM     19  C14 CEI d   1     -16.344   5.935  36.570  0.00  0.00     0.065 A 
ATOM     20  H4  CEI d   1     -15.606   5.931  38.590  0.00  0.00     0.087 H 
ATOM     21  C15 CEI d   1     -17.175   5.306  35.650  0.00  0.00    -0.051 A 
ATOM     22  C16 CEI d   1     -17.919   4.191  36.026  0.00  0.00    -0.074 A 
ATOM     23  H6  CEI d   1     -17.244   5.685  34.637  0.00  0.00     0.087 H 
ATOM     24  H7  CEI d   1     -18.567   3.706  35.306  0.00  0.00     0.084 H 
BRANCH  19  25
ATOM     25  O17 CEI d   1     -15.622   7.025  36.187  0.00  0.00    -0.361 OA
ATOM     26  H5  CEI d   1     -15.803   7.219  35.275  0.00  0.00     0.217 HD
ENDBRANCH  19  25
ENDBRANCH  12  15
ENDBRANCH   9  12
ENDBRANCH   1   8
BRANCH   2  27
ATOM     27  C26 CEI d   1     -14.358   0.766  37.470  0.00  0.00     0.003 C 
ATOM     28  H9  CEI d   1     -13.342   0.775  37.892  0.00  0.00     0.049 H 
ATOM     29  H10 CEI d   1     -14.890   1.679  37.774  0.00  0.00     0.049 H 
BRANCH  27  30
ATOM     30  C27 CEI d   1     -14.276   0.709  35.966  0.00  0.00    -0.052 A 
ATOM     31  C28 CEI d   1     -14.806   1.748  35.200  0.00  0.00    -0.076 A 
ATOM     32  C29 CEI d   1     -14.729   1.689  33.809  0.00  0.00    -0.082 A 
ATOM     33  H11 CEI d   1     -15.275   2.597  35.684  0.00  0.00     0.084 H 
ATOM     34  C30 CEI d   1     -14.129   0.593  33.188  0.00  0.00    -0.083 A 
ATOM     35  H12 CEI d   1     -15.136   2.495  33.209  0.00  0.00     0.083 H 
ATOM     36  C31 CEI d   1     -13.599  -0.445  33.953  0.00  0.00    -0.082 A 
ATOM     37  H13 CEI d   1     -14.075   0.548  32.106  0.00  0.00     0.083 H 
ATOM     38  C32 CEI d   1     -13.673  -0.387  35.343  0.00  0.00    -0.076 A 
ATOM     39  H14 CEI d   1     -13.131  -1.294  33.468  0.00  0.00     0.083 H 
ATOM     40  H15 CEI d   1     -13.263  -1.192  35.941  0.00  0.00     0.084 H 
ENDBRANCH  27  30
ENDBRANCH   2  27
BRANCH   4  41
ATOM     41  C19 CEI d   1     -14.215  -3.716  39.475  0.00  0.00    -0.006 A 
ATOM     42  C20 CEI d   1     -13.079  -3.435  40.232  0.00  0.00    -0.068 A 
ATOM     43  C21 CEI d   1     -12.321  -4.479  40.758  0.00  0.00    -0.050 A 
ATOM     44  H17 CEI d   1     -12.786  -2.407  40.411  0.00  0.00     0.085 H 
ATOM     45  C22 CEI d   1     -12.701  -5.801  40.531  0.00  0.00     0.065 A 
ATOM     46  H18 CEI d   1     -11.435  -4.263  41.344  0.00  0.00     0.087 H 
ATOM     47  C23 CEI d   1     -13.839  -6.087  39.780  0.00  0.00    -0.050 A 
ATOM     48  C24 CEI d   1     -14.594  -5.043  39.250  0.00  0.00    -0.068 A 
ATOM     49  H20 CEI d   1     -14.135  -7.116  39.609  0.00  0.00     0.087 H 
ATOM     50  H21 CEI d   1     -15.478  -5.260  38.661  0.00  0.00     0.085 H 
BRANCH  45  51
ATOM     51  O25 CEI d   1     -11.957  -6.814  41.046  0.00  0.00    -0.361 OA
ATOM     52  H19 CEI d   1     -12.346  -7.646  40.803  0.00  0.00     0.217 HD
ENDBRANCH  45  51
ENDBRANCH   4  41
TORSDOF 8
