REMARK  18 active torsions:
REMARK  status: ('A' for Active; 'I' for Inactive)
REMARK    1  A    between atoms: N_1  and  CA_2 
REMARK    2  A    between atoms: CA_2  and  C_3 
REMARK    3  A    between atoms: CA_2  and  CB_5 
REMARK       I    between atoms: C_3  and  N_9 
REMARK    4  A    between atoms: CB_5  and  CG_6 
REMARK    5  A    between atoms: CG_6  and  CD1_7 
REMARK    6  A    between atoms: CG_6  and  CD2_8 
REMARK    7  A    between atoms: N_9  and  CA_10 
REMARK    8  A    between atoms: CA_10  and  C_11 
REMARK    9  A    between atoms: CA_10  and  CB_13 
REMARK       I    between atoms: C_11  and  N_17 
REMARK   10  A    between atoms: CB_13  and  CG_14 
REMARK   11  A    between atoms: CG_14  and  CD1_15 
REMARK   12  A    between atoms: CG_14  and  CD2_16 
REMARK   13  A    between atoms: N_17  and  CA_18 
REMARK   14  A    between atoms: CA_18  and  C_19 
REMARK   15  A    between atoms: CA_18  and  CB_21 
REMARK   16  A    between atoms: CB_21  and  CG_22 
REMARK   17  A    between atoms: CG_22  and  CD_23 
REMARK   18  A    between atoms: CD_23  and  NE_24 
REMARK       I    between atoms: NE_24  and  CZ_25 
REMARK       I    between atoms: CZ_25  and  NH1_26 
ROOT
ATOM      1  CA  LEU d   1       5.898  -5.105  21.226  0.00  0.00     0.089 C 
ATOM      2  H15 LEU d   1       6.665  -4.430  21.634  0.00  0.00     0.087 H 
ENDROOT
BRANCH   1   3
ATOM      3  N   LEU d   1       4.571  -4.473  21.331  0.00  0.00    -0.346 N 
ATOM      4  C   LEU d   1       4.358  -3.223  20.954  0.00  0.00     0.249 C 
ATOM      5  O   LEU d   1       5.226  -2.480  20.484  0.00  0.00    -0.271 OA
ATOM      6  H14 LEU d   1       3.808  -5.005  21.698  0.00  0.00     0.163 HD
BRANCH   4   7
ATOM      7  CA  LEU d   1       2.910  -2.757  21.113  0.00  0.00     0.176 C 
ATOM      8  H4  LEU d   1       2.429  -3.311  21.932  0.00  0.00     0.099 H 
BRANCH   7   9
ATOM      9  N   LEU d   1       2.855  -1.313  21.400  0.00  0.00    -0.066 N 
ATOM     10  H1  LEU d   1       1.894  -1.027  21.501  0.00  0.00     0.275 HD
ATOM     11  H2  LEU d   1       3.279  -0.803  20.641  0.00  0.00     0.275 HD
ATOM     12  H3  LEU d   1       3.354  -1.121  22.254  0.00  0.00     0.275 HD
ENDBRANCH   7   9
BRANCH   7  13
ATOM     13  CB  LEU d   1       2.187  -3.037  19.796  0.00  0.00    -0.028 C 
ATOM     14  H5  LEU d   1       2.454  -4.043  19.440  0.00  0.00     0.037 H 
ATOM     15  H6  LEU d   1       2.491  -2.291  19.048  0.00  0.00     0.037 H 
BRANCH  13  16
ATOM     16  CG  LEU d   1       0.675  -2.959  20.003  0.00  0.00    -0.059 C 
ATOM     17  H7  LEU d   1       0.420  -1.958  20.382  0.00  0.00     0.038 H 
BRANCH  16  18
ATOM     18  CD1 LEU d   1      -0.049  -3.181  18.674  0.00  0.00    -0.073 C 
ATOM     19  H8  LEU d   1      -1.136  -3.123  18.834  0.00  0.00     0.028 H 
ATOM     20  H9  LEU d   1       0.210  -4.173  18.276  0.00  0.00     0.028 H 
ATOM     21  H10 LEU d   1       0.258  -2.406  17.956  0.00  0.00     0.028 H 
ENDBRANCH  16  18
BRANCH  16  22
ATOM     22  CD2 LEU d   1       0.231  -4.002  21.031  0.00  0.00    -0.073 C 
ATOM     23  H11 LEU d   1       0.760  -3.829  21.980  0.00  0.00     0.028 H 
ATOM     24  H12 LEU d   1       0.468  -5.009  20.657  0.00  0.00     0.028 H 
ATOM     25  H13 LEU d   1      -0.853  -3.917  21.195  0.00  0.00     0.028 H 
ENDBRANCH  16  22
ENDBRANCH  13  16
ENDBRANCH   7  13
ENDBRANCH   4   7
ENDBRANCH   1   3
BRANCH   1  26
ATOM     26  C   LEU d   1       6.178  -5.378  19.746  0.00  0.00     0.240 C 
ATOM     27  O   LEU d   1       5.278  -5.727  18.986  0.00  0.00    -0.271 OA
ATOM     28  N   AR7 d   1       7.438  -5.194  19.368  0.00  0.00    -0.352 N 
ATOM     29  H25 AR7 d   1       8.114  -4.901  20.044  0.00  0.00     0.163 HD
BRANCH  28  30
ATOM     30  CA  AR7 d   1       7.859  -5.413  17.976  0.00  0.00     0.043 C 
ATOM     31  H26 AR7 d   1       6.976  -5.613  17.351  0.00  0.00     0.076 H 
BRANCH  30  32
ATOM     32  C   AR7 d   1       8.799  -6.618  17.921  0.00  0.00     0.121 C 
ATOM     33  O   AR7 d   1       9.173  -6.868  16.564  0.00  0.00    -0.230 OA
ATOM     34  H38 AR7 d   1       9.132  -7.196  18.782  0.00  0.00     0.095 H 
ENDBRANCH  30  32
BRANCH  30  35
ATOM     35  CB  AR7 d   1       8.564  -4.155  17.466  0.00  0.00    -0.042 C 
ATOM     36  H27 AR7 d   1       8.945  -4.338  16.451  0.00  0.00     0.036 H 
ATOM     37  H28 AR7 d   1       9.403  -3.912  18.134  0.00  0.00     0.036 H 
BRANCH  35  38
ATOM     38  CG  AR7 d   1       7.585  -2.980  17.435  0.00  0.00    -0.048 C 
ATOM     39  H29 AR7 d   1       7.172  -2.834  18.444  0.00  0.00     0.035 H 
ATOM     40  H30 AR7 d   1       6.769  -3.215  16.736  0.00  0.00     0.035 H 
BRANCH  38  41
ATOM     41  CD  AR7 d   1       8.264  -1.686  16.986  0.00  0.00     0.009 C 
ATOM     42  H31 AR7 d   1       8.777  -1.850  16.027  0.00  0.00     0.064 H 
ATOM     43  H32 AR7 d   1       8.995  -1.369  17.744  0.00  0.00     0.064 H 
BRANCH  41  44
ATOM     44  NE  AR7 d   1       7.234  -0.648  16.826  0.00  0.00    -0.227 N 
ATOM     45  CZ  AR7 d   1       7.554   0.602  16.515  0.00  0.00     0.665 C 
ATOM     46  NH1 AR7 d   1       6.592   1.504  16.341  0.00  0.00    -0.235 N 
ATOM     47  NH2 AR7 d   1       8.828   0.953  16.347  0.00  0.00    -0.235 N 
ATOM     48  H34 AR7 d   1       6.835   2.475  16.100  0.00  0.00     0.174 HD
ATOM     49  H35 AR7 d   1       5.605   1.231  16.448  0.00  0.00     0.174 HD
ATOM     50  H36 AR7 d   1       9.576   0.257  16.481  0.00  0.00     0.174 HD
ATOM     51  H37 AR7 d   1       9.065   1.920  16.083  0.00  0.00     0.174 HD
ATOM     52  H33 AR7 d   1       6.243  -0.897  16.958  0.00  0.00     0.177 HD
ENDBRANCH  41  44
ENDBRANCH  38  41
ENDBRANCH  35  38
ENDBRANCH  30  35
ENDBRANCH  28  30
ENDBRANCH   1  26
BRANCH   1  53
ATOM     53  CB  LEU d   1       5.918  -6.424  21.999  0.00  0.00    -0.035 C 
ATOM     54  H16 LEU d   1       6.883  -6.926  21.836  0.00  0.00     0.037 H 
ATOM     55  H17 LEU d   1       5.103  -7.069  21.638  0.00  0.00     0.037 H 
BRANCH  53  56
ATOM     56  CG  LEU d   1       5.731  -6.162  23.496  0.00  0.00    -0.059 C 
ATOM     57  H18 LEU d   1       4.781  -5.626  23.638  0.00  0.00     0.038 H 
BRANCH  56  58
ATOM     58  CD1 LEU d   1       5.663  -7.486  24.260  0.00  0.00    -0.073 C 
ATOM     59  H19 LEU d   1       5.529  -7.284  25.333  0.00  0.00     0.028 H 
ATOM     60  H20 LEU d   1       6.597  -8.046  24.107  0.00  0.00     0.028 H 
ATOM     61  H21 LEU d   1       4.814  -8.080  23.890  0.00  0.00     0.028 H 
ENDBRANCH  56  58
BRANCH  56  62
ATOM     62  CD2 LEU d   1       6.863  -5.293  24.048  0.00  0.00    -0.073 C 
ATOM     63  H22 LEU d   1       6.902  -4.345  23.492  0.00  0.00     0.028 H 
ATOM     64  H23 LEU d   1       7.820  -5.823  23.936  0.00  0.00     0.028 H 
ATOM     65  H24 LEU d   1       6.681  -5.086  25.113  0.00  0.00     0.028 H 
ENDBRANCH  56  62
ENDBRANCH  53  56
ENDBRANCH   1  53
TORSDOF 18
