REMARK  3 active torsions:
REMARK  status: ('A' for Active; 'I' for Inactive)
REMARK    1  A    between atoms: C1_1  and  C2_2 
REMARK    2  A    between atoms: C1_1  and  P_9 
REMARK       I    between atoms: C2_2  and  N3_3 
REMARK    3  A    between atoms: N3_3  and  O3_4 
ROOT
ATOM      1  C1  PAH d   1      11.840  28.960  36.557  0.00  0.00     0.114 C 
ATOM      2  H1  PAH d   1      11.529  27.911  36.445  0.00  0.00     0.068 H 
ATOM      3  H2  PAH d   1      11.557  29.525  35.656  0.00  0.00     0.068 H 
ENDROOT
BRANCH   1   4
ATOM      4  C2  PAH d   1      13.367  28.983  36.659  0.00  0.00     0.253 C 
ATOM      5  N3  PAH d   1      13.904  29.853  35.844  0.00  0.00    -0.237 N 
ATOM      6  H3  PAH d   1      13.335  30.413  35.241  0.00  0.00     0.197 HD
ATOM      7  O2  PAH d   1      14.073  28.261  37.398  0.00  0.00    -0.271 OA
BRANCH   5   8
ATOM      8  O3  PAH d   1      15.263  29.975  35.840  0.00  0.00    -0.287 OA
ATOM      9  H4  PAH d   1      15.654  29.142  35.604  0.00  0.00     0.244 HD
ENDBRANCH   5   8
ENDBRANCH   1   4
BRANCH   1  10
ATOM     10  P   PAH d   1      10.915  29.663  37.963  0.00  0.00     0.268 P 
ATOM     11  O1P PAH d   1      10.405  31.011  37.564  0.00  0.00    -0.639 OA
ATOM     12  O2P PAH d   1      11.990  29.636  39.032  0.00  0.00    -0.639 OA
ATOM     13  O3P PAH d   1       9.787  28.686  38.170  0.00  0.00    -0.639 OA
ENDBRANCH   1  10
TORSDOF 3
