REMARK WARNING: 32 MAX_TORS EXCEEDED!!!
REMARK  51 active torsions:
REMARK  status: ('A' for Active; 'I' for Inactive)
REMARK    1  A    between atoms: N_1  and  CA_2 
REMARK    2  A    between atoms: CA_2  and  C_3 
REMARK    3  A    between atoms: CA_2  and  CB_5 
REMARK       I    between atoms: C_3  and  N_6 
REMARK    4  A    between atoms: N_6  and  CA_7 
REMARK    5  A    between atoms: CA_7  and  C_8 
REMARK    6  A    between atoms: CA_7  and  CB_10 
REMARK       I    between atoms: C_8  and  N_17 
REMARK    7  A    between atoms: CB_10  and  CG_11 
REMARK    8  A    between atoms: CG_11  and  CD_12 
REMARK    9  A    between atoms: CD_12  and  NE_13 
REMARK       I    between atoms: NE_13  and  CZ_14 
REMARK       I    between atoms: CZ_14  and  NH1_15 
REMARK       I    between atoms: CZ_14  and  NH2_16 
REMARK   10  A    between atoms: N_17  and  CA_18 
REMARK   11  A    between atoms: CA_18  and  C_19 
REMARK   12  A    between atoms: CA_18  and  CB_21 
REMARK       I    between atoms: C_19  and  N_24 
REMARK   13  A    between atoms: CB_21  and  OG1_22 
REMARK   14  A    between atoms: CB_21  and  CG2_23 
REMARK   15  A    between atoms: N_24  and  CA_25 
REMARK   16  A    between atoms: CA_25  and  C_26 
REMARK   17  A    between atoms: CA_25  and  CB_28 
REMARK       I    between atoms: C_26  and  N_33 
REMARK   18  A    between atoms: CB_28  and  CG_29 
REMARK   19  A    between atoms: CG_29  and  CD_30 
REMARK   20  A    between atoms: CD_30  and  CE_31 
REMARK   21  A    between atoms: CE_31  and  NZ_32 
REMARK   22  A    between atoms: N_33  and  CA_34 
REMARK   23  A    between atoms: CA_34  and  C_35 
REMARK   24  A    between atoms: CA_34  and  CB_37 
REMARK       I    between atoms: C_35  and  N_42 
REMARK   25  A    between atoms: CB_37  and  CG_38 
REMARK   26  A    between atoms: CG_38  and  CD_39 
REMARK       I    between atoms: CD_39  and  NE2_41 
REMARK   27  A    between atoms: N_42  and  CA_43 
REMARK   28  A    between atoms: CA_43  and  C_44 
REMARK   29  A    between atoms: CA_43  and  CB_46 
REMARK       I    between atoms: C_44  and  N_49 
REMARK   30  A    between atoms: CB_46  and  OG1_47 
REMARK   31  A    between atoms: CB_46  and  CG2_48 
REMARK   32  A    between atoms: N_49  and  CA_50 
REMARK   33  A    between atoms: CA_50  and  C_51 
REMARK   34  A    between atoms: CA_50  and  CB_53 
REMARK       I    between atoms: C_51  and  N_54 
REMARK   35  A    between atoms: N_54  and  CA_55 
REMARK   36  A    between atoms: CA_55  and  C_56 
REMARK   37  A    between atoms: CA_55  and  CB_58 
REMARK       I    between atoms: C_56  and  N_65 
REMARK   38  A    between atoms: CB_58  and  CG_59 
REMARK   39  A    between atoms: CG_59  and  CD_60 
REMARK   40  A    between atoms: CD_60  and  NE_61 
REMARK       I    between atoms: NE_61  and  CZ_62 
REMARK       I    between atoms: CZ_62  and  NH1_63 
REMARK   41  A    between atoms: N_65  and  CA_66 
REMARK   42  A    between atoms: CA_66  and  C_67 
REMARK   43  A    between atoms: CA_66  and  CB_69 
REMARK       I    between atoms: C_67  and  N_74 
REMARK   44  A    between atoms: CB_69  and  CG_70 
REMARK   45  A    between atoms: CG_70  and  CD_71 
REMARK   46  A    between atoms: CD_71  and  CE_72 
REMARK   47  A    between atoms: CE_72  and  NZ_73 
REMARK   48  A    between atoms: N_74  and  CA_75 
REMARK   49  A    between atoms: CA_75  and  C_76 
REMARK   50  A    between atoms: CA_75  and  CB_78 
REMARK   51  A    between atoms: CB_78  and  OG_79 
ROOT
ATOM      1  CA  GLN d   1      58.504   2.826  37.859  0.00  0.00     0.090 C 
ATOM      2  H42 GLN d   1      58.292   3.569  37.076  0.00  0.00     0.087 H 
ENDROOT
BRANCH   1   3
ATOM      3  N   GLN d   1      59.385   1.800  37.342  0.00  0.00    -0.346 N 
ATOM      4  C   LYS d   1      59.993   1.933  36.171  0.00  0.00     0.241 C 
ATOM      5  O   LYS d   1      59.806   2.886  35.410  0.00  0.00    -0.271 OA
ATOM      6  H41 GLN d   1      59.539   0.972  37.881  0.00  0.00     0.163 HD
BRANCH   4   7
ATOM      7  CA  LYS d   1      60.909   0.804  35.770  0.00  0.00     0.089 C 
ATOM      8  H29 LYS d   1      60.515  -0.160  36.124  0.00  0.00     0.087 H 
BRANCH   7   9
ATOM      9  N   LYS d   1      60.923   0.843  34.326  0.00  0.00    -0.346 N 
ATOM     10  C   THR d   1      60.968  -0.267  33.608  0.00  0.00     0.243 C 
ATOM     11  O   THR d   1      61.067  -1.394  34.098  0.00  0.00    -0.271 OA
ATOM     12  H28 LYS d   1      60.898   1.727  33.860  0.00  0.00     0.163 HD
BRANCH  10  13
ATOM     13  CA  THR d   1      60.892  -0.059  32.116  0.00  0.00     0.113 C 
ATOM     14  H22 THR d   1      61.584   0.733  31.792  0.00  0.00     0.091 H 
BRANCH  13  15
ATOM     15  N   THR d   1      61.260  -1.315  31.482  0.00  0.00    -0.344 N 
ATOM     16  C   ARG d   1      62.339  -1.413  30.716  0.00  0.00     0.241 C 
ATOM     17  O   ARG d   1      63.064  -0.451  30.429  0.00  0.00    -0.271 OA
ATOM     18  H21 THR d   1      60.688  -2.122  31.626  0.00  0.00     0.163 HD
BRANCH  16  19
ATOM     19  CA  ARG d   1      62.635  -2.807  30.184  0.00  0.00     0.089 C 
ATOM     20  H9  ARG d   1      61.675  -3.330  30.061  0.00  0.00     0.087 H 
BRANCH  19  21
ATOM     21  N   ARG d   1      63.324  -2.841  28.890  0.00  0.00    -0.346 N 
ATOM     22  C   ALA d   1      62.832  -3.527  27.865  0.00  0.00     0.248 C 
ATOM     23  O   ALA d   1      61.768  -4.131  27.919  0.00  0.00    -0.271 OA
ATOM     24  H8  ARG d   1      64.181  -2.338  28.777  0.00  0.00     0.163 HD
BRANCH  22  25
ATOM     25  CA  ALA d   1      63.642  -3.528  26.586  0.00  0.00     0.172 C 
ATOM     26  H4  ALA d   1      64.701  -3.711  26.819  0.00  0.00     0.098 H 
BRANCH  25  27
ATOM     27  N   ALA d   1      63.119  -4.626  25.728  0.00  0.00    -0.067 N 
ATOM     28  H1  ALA d   1      63.639  -4.654  24.865  0.00  0.00     0.275 HD
ATOM     29  H2  ALA d   1      62.145  -4.461  25.528  0.00  0.00     0.275 HD
ATOM     30  H3  ALA d   1      63.219  -5.506  26.210  0.00  0.00     0.275 HD
ENDBRANCH  25  27
BRANCH  25  31
ATOM     31  CB  ALA d   1      63.513  -2.194  25.867  0.00  0.00    -0.042 C 
ATOM     32  H5  ALA d   1      63.902  -1.391  26.511  0.00  0.00     0.030 H 
ATOM     33  H6  ALA d   1      62.454  -2.001  25.640  0.00  0.00     0.030 H 
ATOM     34  H7  ALA d   1      64.089  -2.225  24.930  0.00  0.00     0.030 H 
ENDBRANCH  25  31
ENDBRANCH  22  25
ENDBRANCH  19  21
BRANCH  19  35
ATOM     35  CB  ARG d   1      63.473  -3.548  31.235  0.00  0.00    -0.036 C 
ATOM     36  H10 ARG d   1      62.911  -3.558  32.181  0.00  0.00     0.036 H 
ATOM     37  H11 ARG d   1      64.416  -3.000  31.374  0.00  0.00     0.036 H 
BRANCH  35  38
ATOM     38  CG  ARG d   1      63.804  -4.976  30.865  0.00  0.00    -0.048 C 
ATOM     39  H12 ARG d   1      64.429  -4.981  29.960  0.00  0.00     0.035 H 
ATOM     40  H13 ARG d   1      62.872  -5.527  30.671  0.00  0.00     0.035 H 
BRANCH  38  41
ATOM     41  CD  ARG d   1      64.555  -5.647  31.995  0.00  0.00     0.009 C 
ATOM     42  H14 ARG d   1      64.753  -6.692  31.716  0.00  0.00     0.064 H 
ATOM     43  H15 ARG d   1      63.930  -5.621  32.900  0.00  0.00     0.064 H 
BRANCH  41  44
ATOM     44  NE  ARG d   1      65.826  -4.989  32.283  0.00  0.00    -0.227 N 
ATOM     45  CZ  ARG d   1      66.306  -4.801  33.510  0.00  0.00     0.665 C 
ATOM     46  NH1 ARG d   1      65.621  -5.217  34.569  0.00  0.00    -0.235 N 
ATOM     47  NH2 ARG d   1      67.472  -4.195  33.683  0.00  0.00    -0.235 N 
ATOM     48  H17 ARG d   1      65.997  -5.069  35.516  0.00  0.00     0.174 HD
ATOM     49  H18 ARG d   1      64.714  -5.688  34.443  0.00  0.00     0.174 HD
ATOM     50  H19 ARG d   1      68.009  -3.869  32.867  0.00  0.00     0.174 HD
ATOM     51  H20 ARG d   1      67.841  -4.050  34.634  0.00  0.00     0.174 HD
ATOM     52  H16 ARG d   1      66.386  -4.649  31.488  0.00  0.00     0.177 HD
ENDBRANCH  41  44
ENDBRANCH  38  41
ENDBRANCH  35  38
ENDBRANCH  19  35
ENDBRANCH  16  19
ENDBRANCH  13  15
BRANCH  13  53
ATOM     53  CB  THR d   1      59.451   0.362  31.827  0.00  0.00     0.060 C 
ATOM     54  H23 THR d   1      59.218   1.256  32.424  0.00  0.00     0.086 H 
BRANCH  53  55
ATOM     55  OG1 THR d   1      58.554  -0.692  32.201  0.00  0.00    -0.393 OA
ATOM     56  H24 THR d   1      58.760  -1.474  31.702  0.00  0.00     0.210 HD
ENDBRANCH  53  55
BRANCH  53  57
ATOM     57  CG2 THR d   1      59.274   0.697  30.371  0.00  0.00    -0.050 C 
ATOM     58  H25 THR d   1      58.231   0.996  30.188  0.00  0.00     0.031 H 
ATOM     59  H26 THR d   1      59.515  -0.185  29.760  0.00  0.00     0.031 H 
ATOM     60  H27 THR d   1      59.946   1.525  30.101  0.00  0.00     0.031 H 
ENDBRANCH  53  57
ENDBRANCH  13  53
ENDBRANCH  10  13
ENDBRANCH   7   9
BRANCH   7  61
ATOM     61  CB  LYS d   1      62.306   1.021  36.351  0.00  0.00    -0.038 C 
ATOM     62  H30 LYS d   1      62.987   0.297  35.879  0.00  0.00     0.036 H 
ATOM     63  H31 LYS d   1      62.258   0.827  37.433  0.00  0.00     0.036 H 
BRANCH  61  64
ATOM     64  CG  LYS d   1      62.880   2.399  36.150  0.00  0.00    -0.061 C 
ATOM     65  H32 LYS d   1      62.174   3.150  36.535  0.00  0.00     0.033 H 
ATOM     66  H33 LYS d   1      63.051   2.572  35.077  0.00  0.00     0.033 H 
BRANCH  64  67
ATOM     67  CD  LYS d   1      64.195   2.512  36.896  0.00  0.00    -0.043 C 
ATOM     68  H34 LYS d   1      64.887   1.746  36.516  0.00  0.00     0.035 H 
ATOM     69  H35 LYS d   1      64.013   2.342  37.967  0.00  0.00     0.035 H 
BRANCH  67  70
ATOM     70  CE  LYS d   1      64.825   3.874  36.716  0.00  0.00     0.080 C 
ATOM     71  H36 LYS d   1      64.086   4.650  36.963  0.00  0.00     0.075 H 
ATOM     72  H37 LYS d   1      65.143   3.990  35.669  0.00  0.00     0.075 H 
BRANCH  70  73
ATOM     73  NZ  LYS d   1      66.011   4.024  37.609  0.00  0.00    -0.079 N 
ATOM     74  H38 LYS d   1      66.418   4.936  37.476  0.00  0.00     0.274 HD
ATOM     75  H39 LYS d   1      66.692   3.316  37.384  0.00  0.00     0.274 HD
ATOM     76  H40 LYS d   1      65.724   3.921  38.570  0.00  0.00     0.274 HD
ENDBRANCH  70  73
ENDBRANCH  67  70
ENDBRANCH  64  67
ENDBRANCH  61  64
ENDBRANCH   7  61
ENDBRANCH   4   7
ENDBRANCH   1   3
BRANCH   1  77
ATOM     77  C   GLN d   1      59.240   3.489  39.020  0.00  0.00     0.241 C 
ATOM     78  O   GLN d   1      59.589   2.832  40.006  0.00  0.00    -0.271 OA
ATOM     79  N   THR d   1      59.492   4.789  38.893  0.00  0.00    -0.344 N 
ATOM     80  H49 THR d   1      59.184   5.268  38.071  0.00  0.00     0.163 HD
BRANCH  79  81
ATOM     81  CA  THR d   1      60.207   5.533  39.926  0.00  0.00     0.113 C 
ATOM     82  H50 THR d   1      60.318   4.896  40.816  0.00  0.00     0.091 H 
BRANCH  81  83
ATOM     83  C   THR d   1      59.413   6.780  40.283  0.00  0.00     0.243 C 
ATOM     84  O   THR d   1      58.995   7.516  39.401  0.00  0.00    -0.271 OA
ATOM     85  N   ALA d   1      59.216   7.022  41.574  0.00  0.00    -0.346 N 
ATOM     86  H56 ALA d   1      59.597   6.396  42.255  0.00  0.00     0.163 HD
BRANCH  85  87
ATOM     87  CA  ALA d   1      58.455   8.184  42.017  0.00  0.00     0.086 C 
ATOM     88  H57 ALA d   1      58.183   8.774  41.129  0.00  0.00     0.086 H 
BRANCH  87  89
ATOM     89  C   ALA d   1      59.263   9.073  42.942  0.00  0.00     0.240 C 
ATOM     90  O   ALA d   1      59.302   8.855  44.156  0.00  0.00    -0.271 OA
ATOM     91  N   ARG d   1      59.909  10.074  42.364  0.00  0.00    -0.346 N 
ATOM     92  H61 ARG d   1      59.861  10.184  41.371  0.00  0.00     0.163 HD
BRANCH  91  93
ATOM     93  CA  ARG d   1      60.686  11.013  43.151  0.00  0.00     0.089 C 
ATOM     94  H62 ARG d   1      61.174  10.480  43.980  0.00  0.00     0.087 H 
BRANCH  93  95
ATOM     95  C   ARG d   1      59.711  12.044  43.726  0.00  0.00     0.241 C 
ATOM     96  O   ARG d   1      58.637  12.279  43.159  0.00  0.00    -0.271 OA
ATOM     97  N   LYS d   1      60.074  12.637  44.859  0.00  0.00    -0.346 N 
ATOM     98  H74 LYS d   1      60.969  12.426  45.252  0.00  0.00     0.163 HD
BRANCH  97  99
ATOM     99  CA  LYS d   1      59.204  13.588  45.548  0.00  0.00     0.089 C 
ATOM    100  H75 LYS d   1      58.187  13.174  45.479  0.00  0.00     0.087 H 
BRANCH  99 101
ATOM    101  C   LYS d   1      59.114  15.005  44.995  0.00  0.00     0.241 C 
ATOM    102  O   LYS d   1      60.066  15.518  44.400  0.00  0.00    -0.271 OA
ATOM    103  N   SER d   1      57.963  15.640  45.229  0.00  0.00    -0.343 N 
ATOM    104  H87 SER d   1      57.256  15.165  45.752  0.00  0.00     0.163 HD
BRANCH 103 105
ATOM    105  CA  SER d   1      57.685  16.996  44.758  0.00  0.00     0.116 C 
ATOM    106  H88 SER d   1      58.545  17.349  44.170  0.00  0.00     0.093 H 
BRANCH 105 107
ATOM    107  C   SER d   1      57.454  17.950  45.925  0.00  0.00     0.198 C 
ATOM    108  O   SER d   1      56.922  17.513  46.969  0.00  0.00    -0.646 OA
ATOM    109  OXT SER d   1      57.773  19.138  45.766  0.00  0.00    -0.646 OA
ENDBRANCH 105 107
BRANCH 105 110
ATOM    110  CB  SER d   1      56.430  16.999  43.873  0.00  0.00     0.045 C 
ATOM    111  H89 SER d   1      56.243  18.023  43.519  0.00  0.00     0.077 H 
ATOM    112  H90 SER d   1      55.571  16.654  44.467  0.00  0.00     0.077 H 
BRANCH 110 113
ATOM    113  OG  SER d   1      56.592  16.141  42.749  0.00  0.00    -0.398 OA
ATOM    114  H91 SER d   1      56.750  15.254  43.050  0.00  0.00     0.209 HD
ENDBRANCH 110 113
ENDBRANCH 105 110
ENDBRANCH 103 105
ENDBRANCH  99 101
BRANCH  99 115
ATOM    115  CB  LYS d   1      59.587  13.633  47.035  0.00  0.00    -0.038 C 
ATOM    116  H76 LYS d   1      58.901  14.324  47.547  0.00  0.00     0.036 H 
ATOM    117  H77 LYS d   1      60.617  14.012  47.114  0.00  0.00     0.036 H 
BRANCH 115 118
ATOM    118  CG  LYS d   1      59.519  12.280  47.743  0.00  0.00    -0.061 C 
ATOM    119  H78 LYS d   1      60.087  11.541  47.159  0.00  0.00     0.033 H 
ATOM    120  H79 LYS d   1      58.468  11.964  47.812  0.00  0.00     0.033 H 
BRANCH 118 121
ATOM    121  CD  LYS d   1      60.106  12.360  49.147  0.00  0.00    -0.043 C 
ATOM    122  H80 LYS d   1      59.347  12.776  49.827  0.00  0.00     0.035 H 
ATOM    123  H81 LYS d   1      60.984  13.022  49.128  0.00  0.00     0.035 H 
BRANCH 121 124
ATOM    124  CE  LYS d   1      60.532  10.992  49.662  0.00  0.00     0.080 C 
ATOM    125  H82 LYS d   1      61.281  10.571  48.975  0.00  0.00     0.075 H 
ATOM    126  H83 LYS d   1      59.651  10.334  49.692  0.00  0.00     0.075 H 
BRANCH 124 127
ATOM    127  NZ  LYS d   1      61.125  11.070  51.036  0.00  0.00    -0.079 N 
ATOM    128  H84 LYS d   1      61.393  10.147  51.339  0.00  0.00     0.274 HD
ATOM    129  H85 LYS d   1      60.444  11.449  51.675  0.00  0.00     0.274 HD
ATOM    130  H86 LYS d   1      61.937  11.667  51.018  0.00  0.00     0.274 HD
ENDBRANCH 124 127
ENDBRANCH 121 124
ENDBRANCH 118 121
ENDBRANCH 115 118
ENDBRANCH  99 115
ENDBRANCH  97  99
ENDBRANCH  93  95
BRANCH  93 131
ATOM    131  CB  ARG d   1      61.770  11.657  42.284  0.00  0.00    -0.036 C 
ATOM    132  H63 ARG d   1      62.261  12.450  42.867  0.00  0.00     0.036 H 
ATOM    133  H64 ARG d   1      61.294  12.097  41.396  0.00  0.00     0.036 H 
BRANCH 131 134
ATOM    134  CG  ARG d   1      62.837  10.657  41.822  0.00  0.00    -0.048 C 
ATOM    135  H65 ARG d   1      63.552  11.177  41.167  0.00  0.00     0.035 H 
ATOM    136  H66 ARG d   1      62.346   9.848  41.260  0.00  0.00     0.035 H 
BRANCH 134 137
ATOM    137  CD  ARG d   1      63.604  10.044  43.007  0.00  0.00     0.009 C 
ATOM    138  H67 ARG d   1      64.163   9.165  42.653  0.00  0.00     0.064 H 
ATOM    139  H68 ARG d   1      62.882   9.734  43.776  0.00  0.00     0.064 H 
BRANCH 137 140
ATOM    140  NE  ARG d   1      64.542  10.994  43.596  0.00  0.00    -0.227 N 
ATOM    141  CZ  ARG d   1      65.847  11.014  43.336  0.00  0.00     0.665 C 
ATOM    142  NH1 ARG d   1      66.627  11.923  43.904  0.00  0.00    -0.235 N 
ATOM    143  NH2 ARG d   1      66.375  10.105  42.531  0.00  0.00    -0.235 N 
ATOM    144  H70 ARG d   1      67.637  11.935  43.700  0.00  0.00     0.174 HD
ATOM    145  H71 ARG d   1      66.224  12.617  44.549  0.00  0.00     0.174 HD
ATOM    146  H72 ARG d   1      65.772   9.397  42.088  0.00  0.00     0.174 HD
ATOM    147  H73 ARG d   1      67.389  10.106  42.348  0.00  0.00     0.174 HD
ATOM    148  H69 ARG d   1      64.171  11.693  44.255  0.00  0.00     0.177 HD
ENDBRANCH 137 140
ENDBRANCH 134 137
ENDBRANCH 131 134
ENDBRANCH  93 131
ENDBRANCH  91  93
ENDBRANCH  87  89
BRANCH  87 149
ATOM    149  CB  ALA d   1      57.174   7.733  42.707  0.00  0.00    -0.049 C 
ATOM    150  H58 ALA d   1      56.606   8.615  43.038  0.00  0.00     0.030 H 
ATOM    151  H59 ALA d   1      57.426   7.111  43.578  0.00  0.00     0.030 H 
ATOM    152  H60 ALA d   1      56.565   7.147  42.003  0.00  0.00     0.030 H 
ENDBRANCH  87 149
ENDBRANCH  85  87
ENDBRANCH  81  83
BRANCH  81 153
ATOM    153  CB  THR d   1      61.602   5.973  39.437  0.00  0.00     0.060 C 
ATOM    154  H51 THR d   1      61.483   6.612  38.549  0.00  0.00     0.086 H 
BRANCH 153 155
ATOM    155  OG1 THR d   1      62.385   4.819  39.085  0.00  0.00    -0.393 OA
ATOM    156  H52 THR d   1      63.242   5.099  38.785  0.00  0.00     0.210 HD
ENDBRANCH 153 155
BRANCH 153 157
ATOM    157  CG2 THR d   1      62.314   6.755  40.513  0.00  0.00    -0.050 C 
ATOM    158  H53 THR d   1      63.306   7.061  40.149  0.00  0.00     0.031 H 
ATOM    159  H54 THR d   1      62.430   6.126  41.408  0.00  0.00     0.031 H 
ATOM    160  H55 THR d   1      61.725   7.649  40.767  0.00  0.00     0.031 H 
ENDBRANCH 153 157
ENDBRANCH  81 153
ENDBRANCH  79  81
ENDBRANCH   1  77
BRANCH   1 161
ATOM    161  CB  GLN d   1      57.189   2.207  38.334  0.00  0.00    -0.030 C 
ATOM    162  H43 GLN d   1      57.389   1.615  39.239  0.00  0.00     0.037 H 
ATOM    163  H44 GLN d   1      56.807   1.548  37.541  0.00  0.00     0.037 H 
BRANCH 161 164
ATOM    164  CG  GLN d   1      56.125   3.237  38.658  0.00  0.00     0.011 C 
ATOM    165  H45 GLN d   1      56.568   4.006  39.308  0.00  0.00     0.047 H 
ATOM    166  H46 GLN d   1      55.303   2.736  39.191  0.00  0.00     0.047 H 
BRANCH 164 167
ATOM    167  CD  GLN d   1      55.557   3.917  37.420  0.00  0.00     0.215 C 
ATOM    168  OE1 GLN d   1      55.180   5.095  37.460  0.00  0.00    -0.274 OA
ATOM    169  NE2 GLN d   1      55.466   3.171  36.325  0.00  0.00    -0.370 N 
ATOM    170  H47 GLN d   1      55.100   3.564  35.481  0.00  0.00     0.159 HD
ATOM    171  H48 GLN d   1      55.763   2.216  36.344  0.00  0.00     0.159 HD
ENDBRANCH 164 167
ENDBRANCH 161 164
ENDBRANCH   1 161
TORSDOF 51
