REMARK WARNING: 32 MAX_TORS EXCEEDED!!!
REMARK  61 active torsions:
REMARK  status: ('A' for Active; 'I' for Inactive)
REMARK    1  A    between atoms: N_1  and  CA_2 
REMARK    2  A    between atoms: CA_2  and  C_3 
REMARK    3  A    between atoms: CA_2  and  CB_5 
REMARK       I    between atoms: C_3  and  N_9 
REMARK    4  A    between atoms: CB_5  and  CG_6 
REMARK       I    between atoms: CG_6  and  ND2_8 
REMARK    5  A    between atoms: N_9  and  CA_10 
REMARK    6  A    between atoms: CA_10  and  C_11 
REMARK    7  A    between atoms: CA_10  and  CB_13 
REMARK       I    between atoms: C_11  and  N_20 
REMARK    8  A    between atoms: CB_13  and  CG_14 
REMARK    9  A    between atoms: N_20  and  CA_21 
REMARK   10  A    between atoms: CA_21  and  C_22 
REMARK   11  A    between atoms: CA_21  and  CB_24 
REMARK       I    between atoms: C_22  and  N_27 
REMARK   12  A    between atoms: CB_24  and  OG1_25 
REMARK   13  A    between atoms: CB_24  and  CG2_26 
REMARK   14  A    between atoms: N_27  and  CA_28 
REMARK   15  A    between atoms: CA_28  and  C_29 
REMARK   16  A    between atoms: CA_28  and  CB_31 
REMARK       I    between atoms: C_29  and  N_35 
REMARK   17  A    between atoms: CB_31  and  CG_32 
REMARK   18  A    between atoms: CG_32  and  CD1_33 
REMARK   19  A    between atoms: CG_32  and  CD2_34 
REMARK   20  A    between atoms: N_35  and  CA_36 
REMARK   21  A    between atoms: CA_36  and  C_37 
REMARK   22  A    between atoms: CA_36  and  CB_39 
REMARK       I    between atoms: C_37  and  N_44 
REMARK   23  A    between atoms: CB_39  and  CG_40 
REMARK   24  A    between atoms: CG_40  and  CD_41 
REMARK   25  A    between atoms: CD_41  and  CE_42 
REMARK   26  A    between atoms: CE_42  and  NZ_43 
REMARK   27  A    between atoms: N_44  and  CA_45 
REMARK   28  A    between atoms: CA_45  and  C_46 
REMARK   29  A    between atoms: CA_45  and  CB_48 
REMARK       I    between atoms: C_46  and  N_55 
REMARK   30  A    between atoms: CB_48  and  CG_49 
REMARK   31  A    between atoms: N_55  and  CA_56 
REMARK   32  A    between atoms: CA_56  and  C_57 
REMARK   33  A    between atoms: CA_56  and  CB_59 
REMARK       I    between atoms: C_57  and  N_69 
REMARK   34  A    between atoms: CB_59  and  CG_60 
REMARK   35  A    between atoms: N_69  and  CA_70 
REMARK   36  A    between atoms: CA_70  and  C_71 
REMARK   37  A    between atoms: CA_70  and  CB_73 
REMARK       I    between atoms: C_71  and  N_77 
REMARK   38  A    between atoms: CB_73  and  CG_74 
REMARK   39  A    between atoms: N_77  and  CA_78 
REMARK   40  A    between atoms: CA_78  and  C_79 
REMARK   41  A    between atoms: CA_78  and  CB_81 
REMARK       I    between atoms: C_79  and  N_85 
REMARK   42  A    between atoms: CB_81  and  CG1_82 
REMARK   43  A    between atoms: CB_81  and  CG2_83 
REMARK   44  A    between atoms: CG1_82  and  CD1_84 
REMARK   45  A    between atoms: N_85  and  CA_86 
REMARK   46  A    between atoms: CA_86  and  C_87 
REMARK   47  A    between atoms: CA_86  and  CB_89 
REMARK       I    between atoms: C_87  and  N_96 
REMARK   48  A    between atoms: CB_89  and  CG_90 
REMARK   49  A    between atoms: N_96  and  CA_97 
REMARK   50  A    between atoms: CA_97  and  C_98 
REMARK   51  A    between atoms: CA_97  and  CB_100 
REMARK       I    between atoms: C_98  and  N_107 
REMARK   52  A    between atoms: CB_100  and  CG_101 
REMARK   53  A    between atoms: CG_101  and  CD_102 
REMARK   54  A    between atoms: CD_102  and  NE_103 
REMARK       I    between atoms: NE_103  and  CZ_104 
REMARK       I    between atoms: CZ_104  and  NH1_105 
REMARK   55  A    between atoms: N_107  and  CA_108 
REMARK   56  A    between atoms: CA_108  and  C_109 
REMARK   57  A    between atoms: CA_108  and  CB_111 
REMARK   58  A    between atoms: CB_111  and  CG_112 
REMARK   59  A    between atoms: CG_112  and  CD_113 
REMARK   60  A    between atoms: CD_113  and  CE_114 
REMARK   61  A    between atoms: CE_114  and  NZ_115 
ROOT
ATOM      1  CA  TRP d   1       4.589 -11.615  27.297  0.00  0.00     0.093 C 
ATOM      2  H59 TRP d   1       4.492 -12.159  28.248  0.00  0.00     0.088 H 
ENDROOT
BRANCH   1   3
ATOM      3  N   TRP d   1       3.317 -11.713  26.597  0.00  0.00    -0.346 N 
ATOM      4  C   PHE d   1       2.216 -11.253  27.188  0.00  0.00     0.241 C 
ATOM      5  O   PHE d   1       2.248 -10.722  28.292  0.00  0.00    -0.271 OA
ATOM      6  H58 TRP d   1       3.270 -12.120  25.685  0.00  0.00     0.163 HD
BRANCH   4   7
ATOM      7  CA  PHE d   1       0.886 -11.408  26.444  0.00  0.00     0.093 C 
ATOM      8  H50 PHE d   1       0.149 -10.729  26.898  0.00  0.00     0.088 H 
BRANCH   7   9
ATOM      9  N   PHE d   1       1.025 -11.050  25.039  0.00  0.00    -0.346 N 
ATOM     10  C   LYS d   1       1.155  -9.769  24.695  0.00  0.00     0.241 C 
ATOM     11  O   LYS d   1       1.112  -8.866  25.525  0.00  0.00    -0.271 OA
ATOM     12  H49 PHE d   1       1.023 -11.761  24.336  0.00  0.00     0.163 HD
BRANCH  10  13
ATOM     13  CA  LYS d   1       1.350  -9.462  23.216  0.00  0.00     0.089 C 
ATOM     14  H37 LYS d   1       1.812  -8.470  23.102  0.00  0.00     0.087 H 
BRANCH  13  15
ATOM     15  N   LYS d   1       2.241 -10.478  22.652  0.00  0.00    -0.346 N 
ATOM     16  C   LEU d   1       3.487 -10.613  23.098  0.00  0.00     0.241 C 
ATOM     17  O   LEU d   1       3.954  -9.892  23.980  0.00  0.00    -0.271 OA
ATOM     18  H36 LYS d   1       1.909 -11.077  21.923  0.00  0.00     0.163 HD
BRANCH  16  19
ATOM     19  CA  LEU d   1       4.342 -11.729  22.491  0.00  0.00     0.089 C 
ATOM     20  H26 LEU d   1       4.971 -12.132  23.299  0.00  0.00     0.087 H 
BRANCH  19  21
ATOM     21  N   LEU d   1       3.556 -12.834  21.960  0.00  0.00    -0.346 N 
ATOM     22  C   THR d   1       3.104 -13.793  22.761  0.00  0.00     0.243 C 
ATOM     23  O   THR d   1       3.308 -13.798  23.976  0.00  0.00    -0.271 OA
ATOM     24  H25 LEU d   1       3.354 -12.871  20.981  0.00  0.00     0.163 HD
BRANCH  22  25
ATOM     25  CA  THR d   1       2.309 -14.915  22.106  0.00  0.00     0.113 C 
ATOM     26  H19 THR d   1       1.927 -15.551  22.918  0.00  0.00     0.091 H 
BRANCH  25  27
ATOM     27  N   THR d   1       1.148 -14.484  21.334  0.00  0.00    -0.344 N 
ATOM     28  C   PHE d   1       0.248 -13.668  21.868  0.00  0.00     0.241 C 
ATOM     29  O   PHE d   1       0.391 -13.163  22.976  0.00  0.00    -0.271 OA
ATOM     30  H18 THR d   1       1.030 -14.806  20.395  0.00  0.00     0.163 HD
BRANCH  28  31
ATOM     31  CA  PHE d   1      -0.977 -13.323  21.038  0.00  0.00     0.093 C 
ATOM     32  H10 PHE d   1      -0.864 -12.253  20.809  0.00  0.00     0.088 H 
BRANCH  31  33
ATOM     33  N   PHE d   1      -1.205 -13.952  19.740  0.00  0.00    -0.346 N 
ATOM     34  C   ASN d   1      -0.745 -13.388  18.624  0.00  0.00     0.249 C 
ATOM     35  O   ASN d   1      -0.033 -12.383  18.630  0.00  0.00    -0.271 OA
ATOM     36  H9  PHE d   1      -1.711 -14.813  19.688  0.00  0.00     0.163 HD
BRANCH  34  37
ATOM     37  CA  ASN d   1      -1.108 -14.065  17.307  0.00  0.00     0.183 C 
ATOM     38  H4  ASN d   1      -2.028 -14.650  17.451  0.00  0.00     0.099 H 
BRANCH  37  39
ATOM     39  N   ASN d   1      -1.351 -13.027  16.263  0.00  0.00    -0.066 N 
ATOM     40  H1  ASN d   1      -1.591 -13.476  15.393  0.00  0.00     0.275 HD
ATOM     41  H2  ASN d   1      -0.517 -12.475  16.138  0.00  0.00     0.275 HD
ATOM     42  H3  ASN d   1      -2.109 -12.430  16.553  0.00  0.00     0.275 HD
ENDBRANCH  37  39
BRANCH  37  43
ATOM     43  CB  ASN d   1       0.005 -15.006  16.852  0.00  0.00     0.044 C 
ATOM     44  H5  ASN d   1       0.901 -14.410  16.625  0.00  0.00     0.051 H 
ATOM     45  H6  ASN d   1      -0.326 -15.532  15.944  0.00  0.00     0.051 H 
BRANCH  43  46
ATOM     46  CG  ASN d   1       0.359 -16.031  17.904  0.00  0.00     0.217 C 
ATOM     47  OD1 ASN d   1       1.273 -15.825  18.705  0.00  0.00    -0.274 OA
ATOM     48  ND2 ASN d   1      -0.382 -17.132  17.931  0.00  0.00    -0.370 N 
ATOM     49  H7  ASN d   1      -0.193 -17.845  18.606  0.00  0.00     0.159 HD
ATOM     50  H8  ASN d   1      -1.129 -17.248  17.276  0.00  0.00     0.159 HD
ENDBRANCH  43  46
ENDBRANCH  37  43
ENDBRANCH  34  37
ENDBRANCH  31  33
BRANCH  31  51
ATOM     51  CB  PHE d   1      -2.244 -13.461  21.914  0.00  0.00    -0.014 C 
ATOM     52  H11 PHE d   1      -3.083 -13.001  21.370  0.00  0.00     0.043 H 
ATOM     53  H12 PHE d   1      -2.069 -12.912  22.851  0.00  0.00     0.043 H 
BRANCH  51  54
ATOM     54  CG  PHE d   1      -2.647 -14.895  22.277  0.00  0.00    -0.056 A 
ATOM     55  CD1 PHE d   1      -3.995 -15.268  22.217  0.00  0.00    -0.077 A 
ATOM     56  CE1 PHE d   1      -4.423 -16.512  22.649  0.00  0.00    -0.082 A 
ATOM     57  H13 PHE d   1      -4.721 -14.566  21.823  0.00  0.00     0.084 H 
ATOM     58  CZ  PHE d   1      -3.508 -17.421  23.155  0.00  0.00    -0.083 A 
ATOM     59  H15 PHE d   1      -5.473 -16.774  22.591  0.00  0.00     0.083 H 
ATOM     60  CE2 PHE d   1      -2.154 -17.078  23.223  0.00  0.00    -0.082 A 
ATOM     61  H17 PHE d   1      -3.840 -18.395  23.497  0.00  0.00     0.083 H 
ATOM     62  CD2 PHE d   1      -1.730 -15.820  22.782  0.00  0.00    -0.077 A 
ATOM     63  H16 PHE d   1      -1.434 -17.786  23.617  0.00  0.00     0.083 H 
ATOM     64  H14 PHE d   1      -0.679 -15.560  22.833  0.00  0.00     0.084 H 
ENDBRANCH  51  54
ENDBRANCH  31  51
ENDBRANCH  28  31
ENDBRANCH  25  27
BRANCH  25  65
ATOM     65  CB  THR d   1       3.255 -15.776  21.239  0.00  0.00     0.060 C 
ATOM     66  H20 THR d   1       3.592 -15.188  20.373  0.00  0.00     0.086 H 
BRANCH  65  67
ATOM     67  OG1 THR d   1       2.552 -16.943  20.793  0.00  0.00    -0.393 OA
ATOM     68  H21 THR d   1       1.798 -16.680  20.279  0.00  0.00     0.210 HD
ENDBRANCH  65  67
BRANCH  65  69
ATOM     69  CG2 THR d   1       4.464 -16.232  22.048  0.00  0.00    -0.050 C 
ATOM     70  H22 THR d   1       5.122 -16.842  21.412  0.00  0.00     0.031 H 
ATOM     71  H23 THR d   1       4.126 -16.831  22.907  0.00  0.00     0.031 H 
ATOM     72  H24 THR d   1       5.016 -15.352  22.409  0.00  0.00     0.031 H 
ENDBRANCH  65  69
ENDBRANCH  25  65
ENDBRANCH  22  25
ENDBRANCH  19  21
BRANCH  19  73
ATOM     73  CB  LEU d   1       5.268 -11.183  21.406  0.00  0.00    -0.035 C 
ATOM     74  H27 LEU d   1       5.792 -10.305  21.811  0.00  0.00     0.037 H 
ATOM     75  H28 LEU d   1       4.651 -10.878  20.548  0.00  0.00     0.037 H 
BRANCH  73  76
ATOM     76  CG  LEU d   1       6.320 -12.182  20.908  0.00  0.00    -0.059 C 
ATOM     77  H29 LEU d   1       5.810 -13.019  20.409  0.00  0.00     0.038 H 
BRANCH  76  78
ATOM     78  CD1 LEU d   1       7.217 -11.479  19.905  0.00  0.00    -0.073 C 
ATOM     79  H30 LEU d   1       7.978 -12.183  19.538  0.00  0.00     0.028 H 
ATOM     80  H31 LEU d   1       7.711 -10.625  20.391  0.00  0.00     0.028 H 
ATOM     81  H32 LEU d   1       6.611 -11.120  19.060  0.00  0.00     0.028 H 
ENDBRANCH  76  78
BRANCH  76  82
ATOM     82  CD2 LEU d   1       7.141 -12.734  22.064  0.00  0.00    -0.073 C 
ATOM     83  H33 LEU d   1       6.474 -13.239  22.779  0.00  0.00     0.028 H 
ATOM     84  H34 LEU d   1       7.663 -11.909  22.570  0.00  0.00     0.028 H 
ATOM     85  H35 LEU d   1       7.878 -13.454  21.679  0.00  0.00     0.028 H 
ENDBRANCH  76  82
ENDBRANCH  73  76
ENDBRANCH  19  73
ENDBRANCH  16  19
ENDBRANCH  13  15
BRANCH  13  86
ATOM     86  CB  LYS d   1      -0.006  -9.463  22.514  0.00  0.00    -0.038 C 
ATOM     87  H38 LYS d   1      -0.693  -8.826  23.091  0.00  0.00     0.036 H 
ATOM     88  H39 LYS d   1      -0.387 -10.495  22.502  0.00  0.00     0.036 H 
BRANCH  86  89
ATOM     89  CG  LYS d   1       0.028  -8.953  21.085  0.00  0.00    -0.061 C 
ATOM     90  H40 LYS d   1       0.608  -9.652  20.464  0.00  0.00     0.033 H 
ATOM     91  H41 LYS d   1       0.505  -7.962  21.065  0.00  0.00     0.033 H 
BRANCH  89  92
ATOM     92  CD  LYS d   1      -1.384  -8.842  20.530  0.00  0.00    -0.043 C 
ATOM     93  H42 LYS d   1      -1.977  -8.198  21.196  0.00  0.00     0.035 H 
ATOM     94  H43 LYS d   1      -1.832  -9.846  20.496  0.00  0.00     0.035 H 
BRANCH  92  95
ATOM     95  CE  LYS d   1      -1.404  -8.248  19.128  0.00  0.00     0.080 C 
ATOM     96  H44 LYS d   1      -0.869  -7.287  19.143  0.00  0.00     0.075 H 
ATOM     97  H45 LYS d   1      -2.449  -8.081  18.829  0.00  0.00     0.075 H 
BRANCH  95  98
ATOM     98  NZ  LYS d   1      -0.757  -9.140  18.129  0.00  0.00    -0.079 N 
ATOM     99  H46 LYS d   1      -0.793  -8.708  17.219  0.00  0.00     0.274 HD
ATOM    100  H47 LYS d   1      -1.244 -10.022  18.102  0.00  0.00     0.274 HD
ATOM    101  H48 LYS d   1       0.204  -9.294  18.389  0.00  0.00     0.274 HD
ENDBRANCH  95  98
ENDBRANCH  92  95
ENDBRANCH  89  92
ENDBRANCH  86  89
ENDBRANCH  13  86
ENDBRANCH  10  13
ENDBRANCH   7   9
BRANCH   7 102
ATOM    102  CB  PHE d   1       0.387 -12.853  26.610  0.00  0.00    -0.014 C 
ATOM    103  H51 PHE d   1       0.780 -13.248  27.558  0.00  0.00     0.043 H 
ATOM    104  H52 PHE d   1       0.776 -13.452  25.774  0.00  0.00     0.043 H 
BRANCH 102 105
ATOM    105  CG  PHE d   1      -1.112 -12.983  26.628  0.00  0.00    -0.056 A 
ATOM    106  CD1 PHE d   1      -1.862 -12.434  27.664  0.00  0.00    -0.077 A 
ATOM    107  CE1 PHE d   1      -3.254 -12.550  27.674  0.00  0.00    -0.082 A 
ATOM    108  H53 PHE d   1      -1.361 -11.911  28.471  0.00  0.00     0.084 H 
ATOM    109  CZ  PHE d   1      -3.899 -13.213  26.647  0.00  0.00    -0.083 A 
ATOM    110  H55 PHE d   1      -3.828 -12.120  28.487  0.00  0.00     0.083 H 
ATOM    111  CE2 PHE d   1      -3.161 -13.767  25.607  0.00  0.00    -0.082 A 
ATOM    112  H57 PHE d   1      -4.979 -13.301  26.652  0.00  0.00     0.083 H 
ATOM    113  CD2 PHE d   1      -1.772 -13.648  25.607  0.00  0.00    -0.077 A 
ATOM    114  H56 PHE d   1      -3.663 -14.289  24.800  0.00  0.00     0.083 H 
ATOM    115  H54 PHE d   1      -1.199 -14.082  24.796  0.00  0.00     0.084 H 
ENDBRANCH 102 105
ENDBRANCH   7 102
ENDBRANCH   4   7
ENDBRANCH   1   3
BRANCH   1 116
ATOM    116  C   TRP d   1       4.934 -10.164  27.628  0.00  0.00     0.241 C 
ATOM    117  O   TRP d   1       5.424  -9.880  28.716  0.00  0.00    -0.271 OA
ATOM    118  N   ASP d   1       4.636  -9.255  26.704  0.00  0.00    -0.345 N 
ATOM    119  H68 ASP d   1       4.203  -9.550  25.852  0.00  0.00     0.163 HD
BRANCH 118 120
ATOM    120  CA  ASP d   1       4.925  -7.836  26.902  0.00  0.00     0.098 C 
ATOM    121  H69 ASP d   1       6.015  -7.732  27.005  0.00  0.00     0.088 H 
BRANCH 120 122
ATOM    122  C   ASP d   1       4.281  -7.258  28.155  0.00  0.00     0.241 C 
ATOM    123  O   ASP d   1       4.809  -6.315  28.737  0.00  0.00    -0.271 OA
ATOM    124  N   ILE d   1       3.160  -7.828  28.576  0.00  0.00    -0.346 N 
ATOM    125  H72 ILE d   1       2.786  -8.606  28.072  0.00  0.00     0.163 HD
BRANCH 124 126
ATOM    126  CA  ILE d   1       2.464  -7.341  29.759  0.00  0.00     0.092 C 
ATOM    127  H73 ILE d   1       2.274  -6.266  29.623  0.00  0.00     0.088 H 
BRANCH 126 128
ATOM    128  C   ILE d   1       3.264  -7.526  31.042  0.00  0.00     0.241 C 
ATOM    129  O   ILE d   1       3.173  -6.713  31.971  0.00  0.00    -0.271 OA
ATOM    130  N   PHE d   1       4.072  -8.579  31.079  0.00  0.00    -0.346 N 
ATOM    131  H83 PHE d   1       4.151  -9.156  30.266  0.00  0.00     0.163 HD
BRANCH 130 132
ATOM    132  CA  PHE d   1       4.849  -8.924  32.265  0.00  0.00     0.093 C 
ATOM    133  H84 PHE d   1       4.304  -8.527  33.134  0.00  0.00     0.088 H 
BRANCH 132 134
ATOM    134  C   PHE d   1       6.252  -8.369  32.329  0.00  0.00     0.241 C 
ATOM    135  O   PHE d   1       6.903  -8.475  33.366  0.00  0.00    -0.271 OA
ATOM    136  N   ARG d   1       6.720  -7.775  31.241  0.00  0.00    -0.346 N 
ATOM    137  H92 ARG d   1       6.133  -7.691  30.436  0.00  0.00     0.163 HD
BRANCH 136 138
ATOM    138  CA  ARG d   1       8.080  -7.241  31.197  0.00  0.00     0.089 C 
ATOM    139  H93 ARG d   1       8.757  -8.044  31.524  0.00  0.00     0.087 H 
BRANCH 138 140
ATOM    140  C   ARG d   1       8.315  -6.044  32.116  0.00  0.00     0.241 C 
ATOM    141  O   ARG d   1       7.508  -5.115  32.168  0.00  0.00    -0.271 OA
ATOM    142  N   LYS d   1       9.436  -6.080  32.833  0.00  0.00    -0.345 N 
ATOM    143 5H10 LYS d   1      10.041  -6.871  32.739  0.00  0.00     0.163 HD
BRANCH 142 144
ATOM    144  CA  LYS d   1       9.817  -5.012  33.751  0.00  0.00     0.096 C 
ATOM    145 6H10 LYS d   1       9.220  -4.117  33.522  0.00  0.00     0.089 H 
BRANCH 144 146
ATOM    146  C   LYS d   1      11.298  -4.679  33.576  0.00  0.00     0.196 C 
ATOM    147  O   LYS d   1      11.633  -3.477  33.562  0.00  0.00    -0.646 OA
ATOM    148  OXT LYS d   1      12.109  -5.624  33.467  0.00  0.00    -0.646 OA
ENDBRANCH 144 146
BRANCH 144 149
ATOM    149  CB  LYS d   1       9.548  -5.429  35.201  0.00  0.00    -0.037 C 
ATOM    150 7H10 LYS d   1       8.486  -5.699  35.292  0.00  0.00     0.036 H 
ATOM    151 8H10 LYS d   1       9.765  -4.571  35.854  0.00  0.00     0.036 H 
BRANCH 149 152
ATOM    152  CG  LYS d   1      10.383  -6.609  35.669  0.00  0.00    -0.061 C 
ATOM    153 9H10 LYS d   1      11.447  -6.369  35.529  0.00  0.00     0.033 H 
ATOM    154 0H11 LYS d   1      10.123  -7.490  35.064  0.00  0.00     0.033 H 
BRANCH 152 155
ATOM    155  CD  LYS d   1      10.141  -6.930  37.134  0.00  0.00    -0.043 C 
ATOM    156 1H11 LYS d   1       9.079  -7.178  37.279  0.00  0.00     0.035 H 
ATOM    157 2H11 LYS d   1      10.399  -6.051  37.743  0.00  0.00     0.035 H 
BRANCH 155 158
ATOM    158  CE  LYS d   1      10.992  -8.109  37.574  0.00  0.00     0.080 C 
ATOM    159 3H11 LYS d   1      12.051  -7.859  37.416  0.00  0.00     0.075 H 
ATOM    160 4H11 LYS d   1      10.726  -8.984  36.963  0.00  0.00     0.075 H 
BRANCH 158 161
ATOM    161  NZ  LYS d   1      10.790  -8.449  39.010  0.00  0.00    -0.079 N 
ATOM    162 5H11 LYS d   1      11.373  -9.234  39.255  0.00  0.00     0.274 HD
ATOM    163 6H11 LYS d   1       9.823  -8.687  39.166  0.00  0.00     0.274 HD
ATOM    164 7H11 LYS d   1      11.037  -7.656  39.581  0.00  0.00     0.274 HD
ENDBRANCH 158 161
ENDBRANCH 155 158
ENDBRANCH 152 155
ENDBRANCH 149 152
ENDBRANCH 144 149
ENDBRANCH 142 144
ENDBRANCH 138 140
BRANCH 138 165
ATOM    165  CB  ARG d   1       8.447  -6.862  29.758  0.00  0.00    -0.036 C 
ATOM    166  H94 ARG d   1       7.818  -6.013  29.452  0.00  0.00     0.036 H 
ATOM    167  H95 ARG d   1       8.239  -7.725  29.109  0.00  0.00     0.036 H 
BRANCH 165 168
ATOM    168  CG  ARG d   1       9.908  -6.466  29.576  0.00  0.00    -0.048 C 
ATOM    169  H96 ARG d   1      10.548  -7.284  29.939  0.00  0.00     0.035 H 
ATOM    170  H97 ARG d   1      10.107  -5.557  30.162  0.00  0.00     0.035 H 
BRANCH 168 171
ATOM    171  CD  ARG d   1      10.236  -6.193  28.113  0.00  0.00     0.009 C 
ATOM    172  H98 ARG d   1       9.991  -7.088  27.522  0.00  0.00     0.064 H 
ATOM    173  H99 ARG d   1      11.311  -5.979  28.025  0.00  0.00     0.064 H 
BRANCH 171 174
ATOM    174  NE  ARG d   1       9.486  -5.058  27.580  0.00  0.00    -0.227 N 
ATOM    175  CZ  ARG d   1       9.656  -3.796  27.965  0.00  0.00     0.665 C 
ATOM    176  NH1 ARG d   1      10.556  -3.494  28.892  0.00  0.00    -0.235 N 
ATOM    177  NH2 ARG d   1       8.924  -2.832  27.421  0.00  0.00    -0.235 N 
ATOM    178 1H10 ARG d   1      10.684  -2.515  29.186  0.00  0.00     0.174 HD
ATOM    179 2H10 ARG d   1      11.127  -4.238  29.317  0.00  0.00     0.174 HD
ATOM    180 3H10 ARG d   1       8.224  -3.061  26.701  0.00  0.00     0.174 HD
ATOM    181 4H10 ARG d   1       9.056  -1.855  27.719  0.00  0.00     0.174 HD
ATOM    182 0H10 ARG d   1       8.777  -5.248  26.857  0.00  0.00     0.177 HD
ENDBRANCH 171 174
ENDBRANCH 168 171
ENDBRANCH 165 168
ENDBRANCH 138 165
ENDBRANCH 136 138
ENDBRANCH 132 134
BRANCH 132 183
ATOM    183  CB  PHE d   1       4.916 -10.449  32.388  0.00  0.00    -0.014 C 
ATOM    184  H85 PHE d   1       5.455 -10.701  33.313  0.00  0.00     0.043 H 
ATOM    185  H86 PHE d   1       5.468 -10.845  31.523  0.00  0.00     0.043 H 
BRANCH 183 186
ATOM    186  CG  PHE d   1       3.577 -11.098  32.431  0.00  0.00    -0.056 A 
ATOM    187  CD1 PHE d   1       2.814 -11.076  33.596  0.00  0.00    -0.077 A 
ATOM    188  CE1 PHE d   1       1.544 -11.624  33.625  0.00  0.00    -0.082 A 
ATOM    189  H87 PHE d   1       3.221 -10.623  34.493  0.00  0.00     0.084 H 
ATOM    190  CZ  PHE d   1       1.020 -12.206  32.482  0.00  0.00    -0.083 A 
ATOM    191  H89 PHE d   1       0.961 -11.598  34.538  0.00  0.00     0.083 H 
ATOM    192  CE2 PHE d   1       1.776 -12.238  31.310  0.00  0.00    -0.082 A 
ATOM    193  H91 PHE d   1       0.025 -12.636  32.498  0.00  0.00     0.083 H 
ATOM    194  CD2 PHE d   1       3.044 -11.687  31.291  0.00  0.00    -0.077 A 
ATOM    195  H90 PHE d   1       1.370 -12.695  30.415  0.00  0.00     0.083 H 
ATOM    196  H88 PHE d   1       3.628 -11.715  30.378  0.00  0.00     0.084 H 
ENDBRANCH 183 186
ENDBRANCH 132 183
ENDBRANCH 130 132
ENDBRANCH 126 128
BRANCH 126 197
ATOM    197  CB  ILE d   1       1.127  -8.066  29.909  0.00  0.00    -0.030 C 
ATOM    198  H74 ILE d   1       1.314  -9.149  29.959  0.00  0.00     0.043 H 
BRANCH 197 199
ATOM    199  CG1 ILE d   1       0.260  -7.776  28.689  0.00  0.00    -0.063 C 
ATOM    200  H75 ILE d   1       0.851  -7.982  27.785  0.00  0.00     0.033 H 
ATOM    201  H76 ILE d   1      -0.024  -6.713  28.708  0.00  0.00     0.033 H 
BRANCH 199 202
ATOM    202  CD1 ILE d   1      -1.006  -8.610  28.635  0.00  0.00    -0.076 C 
ATOM    203  H80 ILE d   1      -1.579  -8.349  27.733  0.00  0.00     0.027 H 
ATOM    204  H81 ILE d   1      -1.616  -8.409  29.528  0.00  0.00     0.027 H 
ATOM    205  H82 ILE d   1      -0.741  -9.677  28.605  0.00  0.00     0.027 H 
ENDBRANCH 199 202
ENDBRANCH 197 199
BRANCH 197 206
ATOM    206  CG2 ILE d   1       0.430  -7.638  31.195  0.00  0.00    -0.071 C 
ATOM    207  H77 ILE d   1       1.079  -7.860  32.055  0.00  0.00     0.028 H 
ATOM    208  H78 ILE d   1      -0.517  -8.188  31.299  0.00  0.00     0.028 H 
ATOM    209  H79 ILE d   1       0.225  -6.558  31.159  0.00  0.00     0.028 H 
ENDBRANCH 197 206
ENDBRANCH 126 197
ENDBRANCH 124 126
ENDBRANCH 120 122
BRANCH 120 210
ATOM    210  CB  ASP d   1       4.474  -7.014  25.688  0.00  0.00     0.043 C 
ATOM    211  H70 ASP d   1       4.452  -5.952  25.972  0.00  0.00     0.052 H 
ATOM    212  H71 ASP d   1       3.463  -7.338  25.401  0.00  0.00     0.052 H 
BRANCH 210 213
ATOM    213  CG  ASP d   1       5.396  -7.177  24.486  0.00  0.00     0.175 C 
ATOM    214  OD1 ASP d   1       6.535  -7.662  24.656  0.00  0.00    -0.648 OA
ATOM    215  OD2 ASP d   1       4.980  -6.799  23.368  0.00  0.00    -0.648 OA
ENDBRANCH 210 213
ENDBRANCH 120 210
ENDBRANCH 118 120
ENDBRANCH   1 116
BRANCH   1 216
ATOM    216  CB  TRP d   1       5.708 -12.287  26.484  0.00  0.00    -0.012 C 
ATOM    217  H60 TRP d   1       5.955 -11.638  25.631  0.00  0.00     0.044 H 
ATOM    218  H61 TRP d   1       5.335 -13.253  26.113  0.00  0.00     0.044 H 
BRANCH 216 219
ATOM    219  CG  TRP d   1       6.968 -12.535  27.274  0.00  0.00    -0.028 A 
ATOM    220  CD1 TRP d   1       7.116 -12.472  28.629  0.00  0.00    -0.015 A 
ATOM    221  NE1 TRP d   1       8.414 -12.787  28.981  0.00  0.00    -0.365 N 
ATOM    222  H62 TRP d   1       6.325 -12.211  29.331  0.00  0.00     0.112 H 
ATOM    223  CE2 TRP d   1       9.124 -13.060  27.843  0.00  0.00     0.042 A 
ATOM    224  H63 TRP d   1       8.786 -12.812  29.941  0.00  0.00     0.165 HD
ATOM    225  CD2 TRP d   1       8.247 -12.912  26.749  0.00  0.00    -0.002 A 
ATOM    226  CZ2 TRP d   1      10.467 -13.428  27.685  0.00  0.00    -0.056 A 
ATOM    227  CE3 TRP d   1       8.734 -13.143  25.458  0.00  0.00    -0.070 A 
ATOM    228  CZ3 TRP d   1      10.070 -13.513  25.302  0.00  0.00    -0.082 A 
ATOM    229  H64 TRP d   1       8.086 -13.037  24.596  0.00  0.00     0.084 H 
ATOM    230  CH2 TRP d   1      10.917 -13.650  26.411  0.00  0.00    -0.081 A 
ATOM    231  H66 TRP d   1      10.460 -13.698  24.307  0.00  0.00     0.083 H 
ATOM    232  H67 TRP d   1      11.951 -13.938  26.256  0.00  0.00     0.083 H 
ATOM    233  H65 TRP d   1      11.125 -13.533  28.540  0.00  0.00     0.086 H 
ENDBRANCH 216 219
ENDBRANCH   1 216
TORSDOF 61
