REMARK WARNING: 32 MAX_TORS EXCEEDED!!!
REMARK  49 active torsions:
REMARK  status: ('A' for Active; 'I' for Inactive)
REMARK    1  A    between atoms: CA_2  and  N_1 
REMARK    2  A    between atoms: CA_2  and  CB_5 
REMARK    3  A    between atoms: C_3  and  CA_2 
REMARK       I    between atoms: N_9  and  C_3 
REMARK    4  A    between atoms: CB_5  and  CG_6 
REMARK       I    between atoms: CG_6  and  ND2_8 
REMARK    5  A    between atoms: CA_10  and  N_9 
REMARK    6  A    between atoms: CA_10  and  CB_13 
REMARK    7  A    between atoms: C_11  and  CA_10 
REMARK       I    between atoms: N_20  and  C_11 
REMARK    8  A    between atoms: CB_13  and  CG_14 
REMARK    9  A    between atoms: CA_21  and  N_20 
REMARK   10  A    between atoms: CA_21  and  CB_24 
REMARK   11  A    between atoms: C_22  and  CA_21 
REMARK       I    between atoms: N_27  and  C_22 
REMARK   12  A    between atoms: CB_24  and  CG2_26 
REMARK   13  A    between atoms: CB_24  and  OG1_25 
REMARK   14  A    between atoms: CA_28  and  N_27 
REMARK   15  A    between atoms: CA_28  and  CB_31 
REMARK   16  A    between atoms: C_29  and  CA_28 
REMARK       I    between atoms: N_35  and  C_29 
REMARK   17  A    between atoms: CB_31  and  CG_32 
REMARK   18  A    between atoms: CG_32  and  CD1_33 
REMARK   19  A    between atoms: CG_32  and  CD2_34 
REMARK   20  A    between atoms: CA_36  and  N_35 
REMARK   21  A    between atoms: CA_36  and  CB_39 
REMARK   22  A    between atoms: C_37  and  CA_36 
REMARK       I    between atoms: N_44  and  C_37 
REMARK   23  A    between atoms: CB_39  and  CG_40 
REMARK   24  A    between atoms: CG_40  and  CD_41 
REMARK   25  A    between atoms: CD_41  and  CE_42 
REMARK   26  A    between atoms: CE_42  and  NZ_43 
REMARK   27  A    between atoms: CA_45  and  N_44 
REMARK   28  A    between atoms: CA_45  and  CB_48 
REMARK   29  A    between atoms: C_46  and  CA_45 
REMARK       I    between atoms: N_55  and  C_46 
REMARK   30  A    between atoms: CB_48  and  CG_49 
REMARK   31  A    between atoms: CA_56  and  N_55 
REMARK   32  A    between atoms: CA_56  and  CB_59 
REMARK   33  A    between atoms: C_57  and  CA_56 
REMARK       I    between atoms: N_69  and  C_57 
REMARK   34  A    between atoms: CB_59  and  CG_60 
REMARK   35  A    between atoms: CA_70  and  N_69 
REMARK   36  A    between atoms: CA_70  and  CB_73 
REMARK   37  A    between atoms: C_71  and  CA_70 
REMARK       I    between atoms: N_77  and  C_71 
REMARK   38  A    between atoms: CB_73  and  CG_74 
REMARK   39  A    between atoms: CA_78  and  N_77 
REMARK   40  A    between atoms: CA_78  and  CB_81 
REMARK   41  A    between atoms: C_79  and  CA_78 
REMARK       I    between atoms: C_79  and  N_85 
REMARK   42  A    between atoms: CB_81  and  CG2_83 
REMARK   43  A    between atoms: CB_81  and  CG1_82 
REMARK   44  A    between atoms: CG1_82  and  CD1_84 
REMARK   45  A    between atoms: N_85  and  CA_86 
REMARK   46  A    between atoms: CA_86  and  CB_89 
REMARK   47  A    between atoms: CA_86  and  C_87 
REMARK   48  A    between atoms: C_87  and  O1_96 
REMARK   49  A    between atoms: CB_89  and  CG_90 
ROOT
ATOM      1  CA  PHE d   1      77.038  51.613 -36.327  0.00  0.00     0.093 C 
ATOM      2  H50 PHE d   1      76.201  52.325 -36.276  0.00  0.00     0.088 H 
ENDROOT
BRANCH   1   3
ATOM      3  N   PHE d   1      76.831  50.755 -37.490  0.00  0.00    -0.346 N 
ATOM      4  C   LYS d   1      76.353  51.162 -38.666  0.00  0.00     0.241 C 
ATOM      5  O   LYS d   1      76.028  52.326 -38.923  0.00  0.00    -0.271 OA
ATOM      6  H49 PHE d   1      77.066  49.787 -37.397  0.00  0.00     0.163 HD
BRANCH   4   7
ATOM      7  CA  LYS d   1      76.201  50.046 -39.696  0.00  0.00     0.089 C 
ATOM      8  H37 LYS d   1      76.141  50.485 -40.703  0.00  0.00     0.087 H 
BRANCH   7   9
ATOM      9  N   LYS d   1      77.352  49.114 -39.656  0.00  0.00    -0.346 N 
ATOM     10  C   LEU d   1      78.577  49.459 -39.240  0.00  0.00     0.241 C 
ATOM     11  O   LEU d   1      78.910  50.610 -38.963  0.00  0.00    -0.271 OA
ATOM     12  H36 LYS d   1      77.205  48.172 -39.957  0.00  0.00     0.163 HD
BRANCH  10  13
ATOM     13  CA  LEU d   1      79.603  48.341 -39.124  0.00  0.00     0.089 C 
ATOM     14  H26 LEU d   1      80.569  48.811 -38.890  0.00  0.00     0.087 H 
BRANCH  13  15
ATOM     15  N   LEU d   1      79.314  47.391 -38.053  0.00  0.00    -0.346 N 
ATOM     16  C   THR d   1      79.544  47.659 -36.765  0.00  0.00     0.243 C 
ATOM     17  O   THR d   1      79.897  48.775 -36.351  0.00  0.00    -0.271 OA
ATOM     18  H25 LEU d   1      78.927  46.501 -38.295  0.00  0.00     0.163 HD
BRANCH  16  19
ATOM     19  CA  THR d   1      79.247  46.508 -35.786  0.00  0.00     0.113 C 
ATOM     20  H19 THR d   1      79.187  46.948 -34.779  0.00  0.00     0.091 H 
BRANCH  19  21
ATOM     21  N   THR d   1      77.929  45.909 -36.088  0.00  0.00    -0.344 N 
ATOM     22  C   PHE d   1      76.909  46.612 -36.597  0.00  0.00     0.241 C 
ATOM     23  O   PHE d   1      77.019  47.785 -36.954  0.00  0.00    -0.271 OA
ATOM     24  H18 THR d   1      77.793  44.935 -35.904  0.00  0.00     0.163 HD
BRANCH  22  25
ATOM     25  CA  PHE d   1      75.558  45.898 -36.755  0.00  0.00     0.093 C 
ATOM     26  H10 PHE d   1      75.294  45.961 -37.821  0.00  0.00     0.088 H 
BRANCH  25  27
ATOM     27  N   PHE d   1      75.615  44.478 -36.429  0.00  0.00    -0.346 N 
ATOM     28  C   ASN d   1      75.407  43.537 -37.345  0.00  0.00     0.249 C 
ATOM     29  O   ASN d   1      74.992  43.774 -38.485  0.00  0.00    -0.271 OA
ATOM     30  H9  PHE d   1      75.817  44.204 -35.489  0.00  0.00     0.163 HD
BRANCH  28  31
ATOM     31  CA  ASN d   1      75.710  42.109 -36.893  0.00  0.00     0.183 C 
ATOM     32  H4  ASN d   1      75.573  41.436 -37.752  0.00  0.00     0.099 H 
BRANCH  31  33
ATOM     33  N   ASN d   1      77.125  41.992 -36.423  0.00  0.00    -0.066 N 
ATOM     34  H1  ASN d   1      77.304  41.044 -36.130  0.00  0.00     0.275 HD
ATOM     35  H2  ASN d   1      77.274  42.618 -35.647  0.00  0.00     0.275 HD
ATOM     36  H3  ASN d   1      77.750  42.235 -37.175  0.00  0.00     0.275 HD
ENDBRANCH  31  33
BRANCH  31  37
ATOM     37  CB  ASN d   1      74.735  41.687 -35.784  0.00  0.00     0.044 C 
ATOM     38  H5  ASN d   1      73.708  41.786 -36.165  0.00  0.00     0.051 H 
ATOM     39  H6  ASN d   1      74.873  42.357 -34.923  0.00  0.00     0.051 H 
BRANCH  37  40
ATOM     40  CG  ASN d   1      74.944  40.250 -35.319  0.00  0.00     0.217 C 
ATOM     41  ND2 ASN d   1      74.634  39.992 -34.053  0.00  0.00    -0.370 N 
ATOM     42  H7  ASN d   1      74.749  39.068 -33.688  0.00  0.00     0.159 HD
ATOM     43  H8  ASN d   1      74.286  40.722 -33.465  0.00  0.00     0.159 HD
ATOM     44  OD1 ASN d   1      75.366  39.385 -36.087  0.00  0.00    -0.274 OA
ENDBRANCH  37  40
ENDBRANCH  31  37
ENDBRANCH  28  31
ENDBRANCH  25  27
BRANCH  25  45
ATOM     45  CB  PHE d   1      74.436  46.630 -35.972  0.00  0.00    -0.014 C 
ATOM     46  H11 PHE d   1      73.469  46.242 -36.325  0.00  0.00     0.043 H 
ATOM     47  H12 PHE d   1      74.507  47.703 -36.204  0.00  0.00     0.043 H 
BRANCH  45  48
ATOM     48  CG  PHE d   1      74.477  46.474 -34.441  0.00  0.00    -0.056 A 
ATOM     49  CD1 PHE d   1      73.282  46.430 -33.725  0.00  0.00    -0.077 A 
ATOM     50  CE1 PHE d   1      73.272  46.315 -32.337  0.00  0.00    -0.082 A 
ATOM     51  H13 PHE d   1      72.341  46.486 -34.260  0.00  0.00     0.084 H 
ATOM     52  CZ  PHE d   1      74.460  46.250 -31.641  0.00  0.00    -0.083 A 
ATOM     53  H15 PHE d   1      72.329  46.277 -31.804  0.00  0.00     0.083 H 
ATOM     54  CE2 PHE d   1      75.659  46.300 -32.327  0.00  0.00    -0.082 A 
ATOM     55  H17 PHE d   1      74.454  46.160 -30.561  0.00  0.00     0.083 H 
ATOM     56  CD2 PHE d   1      75.669  46.419 -33.718  0.00  0.00    -0.077 A 
ATOM     57  H16 PHE d   1      76.595  46.247 -31.783  0.00  0.00     0.083 H 
ATOM     58  H14 PHE d   1      76.616  46.469 -34.243  0.00  0.00     0.084 H 
ENDBRANCH  45  48
ENDBRANCH  25  45
ENDBRANCH  22  25
ENDBRANCH  19  21
BRANCH  19  59
ATOM     59  CB  THR d   1      80.395  45.402 -35.738  0.00  0.00     0.060 C 
ATOM     60  H20 THR d   1      80.169  44.723 -34.903  0.00  0.00     0.086 H 
BRANCH  59  61
ATOM     61  CG2 THR d   1      80.448  44.582 -37.011  0.00  0.00    -0.050 C 
ATOM     62  H22 THR d   1      81.251  43.835 -36.933  0.00  0.00     0.031 H 
ATOM     63  H23 THR d   1      80.646  45.245 -37.866  0.00  0.00     0.031 H 
ATOM     64  H24 THR d   1      79.485  44.071 -37.158  0.00  0.00     0.031 H 
ENDBRANCH  59  61
BRANCH  59  65
ATOM     65  OG1 THR d   1      81.684  45.990 -35.503  0.00  0.00    -0.393 OA
ATOM     66  H21 THR d   1      81.655  46.505 -34.705  0.00  0.00     0.210 HD
ENDBRANCH  59  65
ENDBRANCH  19  59
ENDBRANCH  16  19
ENDBRANCH  13  15
BRANCH  13  67
ATOM     67  CB  LEU d   1      79.752  47.605 -40.456  0.00  0.00    -0.035 C 
ATOM     68  H27 LEU d   1      79.364  48.238 -41.268  0.00  0.00     0.037 H 
ATOM     69  H28 LEU d   1      79.181  46.665 -40.419  0.00  0.00     0.037 H 
BRANCH  67  70
ATOM     70  CG  LEU d   1      81.223  47.293 -40.717  0.00  0.00    -0.059 C 
ATOM     71  H29 LEU d   1      81.660  46.906 -39.785  0.00  0.00     0.038 H 
BRANCH  70  72
ATOM     72  CD1 LEU d   1      81.346  46.219 -41.770  0.00  0.00    -0.073 C 
ATOM     73  H30 LEU d   1      82.409  46.002 -41.950  0.00  0.00     0.028 H 
ATOM     74  H31 LEU d   1      80.879  46.566 -42.704  0.00  0.00     0.028 H 
ATOM     75  H32 LEU d   1      80.839  45.306 -41.424  0.00  0.00     0.028 H 
ENDBRANCH  70  72
BRANCH  70  76
ATOM     76  CD2 LEU d   1      82.002  48.564 -41.110  0.00  0.00    -0.073 C 
ATOM     77  H33 LEU d   1      81.889  49.322 -40.321  0.00  0.00     0.028 H 
ATOM     78  H34 LEU d   1      81.606  48.959 -42.057  0.00  0.00     0.028 H 
ATOM     79  H35 LEU d   1      83.067  48.318 -41.233  0.00  0.00     0.028 H 
ENDBRANCH  70  76
ENDBRANCH  67  70
ENDBRANCH  13  67
ENDBRANCH  10  13
ENDBRANCH   7   9
BRANCH   7  80
ATOM     80  CB  LYS d   1      74.883  49.317 -39.376  0.00  0.00    -0.038 C 
ATOM     81  H38 LYS d   1      74.061  50.027 -39.548  0.00  0.00     0.036 H 
ATOM     82  H39 LYS d   1      74.909  49.036 -38.313  0.00  0.00     0.036 H 
BRANCH  80  83
ATOM     83  CG  LYS d   1      74.575  48.053 -40.179  0.00  0.00    -0.061 C 
ATOM     84  H40 LYS d   1      75.478  47.426 -40.222  0.00  0.00     0.033 H 
ATOM     85  H41 LYS d   1      74.279  48.339 -41.199  0.00  0.00     0.033 H 
BRANCH  83  86
ATOM     86  CD  LYS d   1      73.441  47.252 -39.536  0.00  0.00    -0.043 C 
ATOM     87  H42 LYS d   1      72.486  47.759 -39.739  0.00  0.00     0.035 H 
ATOM     88  H43 LYS d   1      73.608  47.206 -38.450  0.00  0.00     0.035 H 
BRANCH  86  89
ATOM     89  CE  LYS d   1      73.373  45.834 -40.085  0.00  0.00     0.080 C 
ATOM     90  H44 LYS d   1      74.397  45.475 -40.267  0.00  0.00     0.075 H 
ATOM     91  H45 LYS d   1      72.816  45.848 -41.033  0.00  0.00     0.075 H 
BRANCH  89  92
ATOM     92  NZ  LYS d   1      72.698  44.898 -39.147  0.00  0.00    -0.079 N 
ATOM     93  H46 LYS d   1      72.676  43.975 -39.551  0.00  0.00     0.274 HD
ATOM     94  H47 LYS d   1      71.755  45.213 -38.978  0.00  0.00     0.274 HD
ATOM     95  H48 LYS d   1      73.205  44.872 -38.276  0.00  0.00     0.274 HD
ENDBRANCH  89  92
ENDBRANCH  86  89
ENDBRANCH  83  86
ENDBRANCH  80  83
ENDBRANCH   7  80
ENDBRANCH   4   7
ENDBRANCH   1   3
BRANCH   1  96
ATOM     96  CB  PHE d   1      77.035  50.740 -35.073  0.00  0.00    -0.014 C 
ATOM     97  H51 PHE d   1      77.922  50.994 -34.474  0.00  0.00     0.043 H 
ATOM     98  H52 PHE d   1      77.093  49.687 -35.386  0.00  0.00     0.043 H 
BRANCH  96  99
ATOM     99  CG  PHE d   1      75.824  50.906 -34.210  0.00  0.00    -0.056 A 
ATOM    100  CD1 PHE d   1      75.484  52.165 -33.706  0.00  0.00    -0.077 A 
ATOM    101  CE1 PHE d   1      74.383  52.327 -32.866  0.00  0.00    -0.082 A 
ATOM    102  H53 PHE d   1      76.085  53.027 -33.972  0.00  0.00     0.084 H 
ATOM    103  CZ  PHE d   1      73.616  51.208 -32.511  0.00  0.00    -0.083 A 
ATOM    104  H55 PHE d   1      74.122  53.310 -32.490  0.00  0.00     0.083 H 
ATOM    105  CE2 PHE d   1      73.962  49.931 -33.008  0.00  0.00    -0.082 A 
ATOM    106  H57 PHE d   1      72.759  51.322 -31.857  0.00  0.00     0.083 H 
ATOM    107  CD2 PHE d   1      75.066  49.796 -33.843  0.00  0.00    -0.077 A 
ATOM    108  H56 PHE d   1      73.371  49.063 -32.740  0.00  0.00     0.083 H 
ATOM    109  H54 PHE d   1      75.340  48.815 -34.213  0.00  0.00     0.084 H 
ENDBRANCH  96  99
ENDBRANCH   1  96
BRANCH   1 110
ATOM    110  C   PHE d   1      78.348  52.419 -36.351  0.00  0.00     0.241 C 
ATOM    111  O   PHE d   1      78.344  53.639 -36.072  0.00  0.00    -0.271 OA
ATOM    112  N   TRP d   1      79.465  51.736 -36.640  0.00  0.00    -0.346 N 
ATOM    113  H58 TRP d   1      79.420  50.743 -36.748  0.00  0.00     0.163 HD
BRANCH 112 114
ATOM    114  CA  TRP d   1      80.755  52.424 -36.801  0.00  0.00     0.093 C 
ATOM    115  H59 TRP d   1      81.064  52.824 -35.824  0.00  0.00     0.088 H 
BRANCH 114 116
ATOM    116  CB  TRP d   1      81.860  51.493 -37.311  0.00  0.00    -0.012 C 
ATOM    117  H60 TRP d   1      81.588  51.147 -38.319  0.00  0.00     0.044 H 
ATOM    118  H61 TRP d   1      81.931  50.630 -36.633  0.00  0.00     0.044 H 
BRANCH 116 119
ATOM    119  CG  TRP d   1      83.229  52.169 -37.382  0.00  0.00    -0.028 A 
ATOM    120  CD1 TRP d   1      83.574  53.411 -36.901  0.00  0.00    -0.015 A 
ATOM    121  NE1 TRP d   1      84.900  53.662 -37.139  0.00  0.00    -0.365 N 
ATOM    122  H62 TRP d   1      82.891  54.097 -36.402  0.00  0.00     0.112 H 
ATOM    123  CE2 TRP d   1      85.449  52.573 -37.762  0.00  0.00     0.042 A 
ATOM    124  H63 TRP d   1      85.401  54.527 -36.890  0.00  0.00     0.165 HD
ATOM    125  CD2 TRP d   1      84.428  51.615 -37.929  0.00  0.00    -0.002 A 
ATOM    126  CZ2 TRP d   1      86.757  52.351 -38.194  0.00  0.00    -0.056 A 
ATOM    127  CE3 TRP d   1      84.739  50.404 -38.552  0.00  0.00    -0.070 A 
ATOM    128  CZ3 TRP d   1      86.040  50.188 -38.981  0.00  0.00    -0.082 A 
ATOM    129  H64 TRP d   1      83.977  49.647 -38.697  0.00  0.00     0.084 H 
ATOM    130  CH2 TRP d   1      87.030  51.154 -38.800  0.00  0.00    -0.081 A 
ATOM    131  H66 TRP d   1      86.292  49.252 -39.466  0.00  0.00     0.083 H 
ATOM    132  H67 TRP d   1      88.037  50.953 -39.147  0.00  0.00     0.083 H 
ATOM    133  H65 TRP d   1      87.529  53.099 -38.055  0.00  0.00     0.086 H 
ENDBRANCH 116 119
ENDBRANCH 114 116
BRANCH 114 134
ATOM    134  C   TRP d   1      80.564  53.574 -37.774  0.00  0.00     0.241 C 
ATOM    135  O   TRP d   1      80.865  54.729 -37.449  0.00  0.00    -0.271 OA
ATOM    136  N   ASP d   1      80.024  53.250 -38.947  0.00  0.00    -0.345 N 
ATOM    137  H68 ASP d   1      79.928  52.283 -39.184  0.00  0.00     0.163 HD
BRANCH 136 138
ATOM    138  CA  ASP d   1      79.569  54.255 -39.895  0.00  0.00     0.098 C 
ATOM    139  H69 ASP d   1      80.432  54.870 -40.188  0.00  0.00     0.088 H 
BRANCH 138 140
ATOM    140  CB  ASP d   1      78.995  53.592 -41.159  0.00  0.00     0.043 C 
ATOM    141  H70 ASP d   1      78.749  54.379 -41.887  0.00  0.00     0.052 H 
ATOM    142  H71 ASP d   1      78.080  53.047 -40.884  0.00  0.00     0.052 H 
BRANCH 140 143
ATOM    143  CG  ASP d   1      79.963  52.617 -41.809  0.00  0.00     0.175 C 
ATOM    144  OD1 ASP d   1      81.031  52.351 -41.223  0.00  0.00    -0.648 OA
ATOM    145  OD2 ASP d   1      79.648  52.105 -42.904  0.00  0.00    -0.648 OA
ENDBRANCH 140 143
ENDBRANCH 138 140
BRANCH 138 146
ATOM    146  C   ASP d   1      78.515  55.173 -39.243  0.00  0.00     0.241 C 
ATOM    147  O   ASP d   1      77.422  55.349 -39.775  0.00  0.00    -0.271 OA
ATOM    148  N   ILE d   1      78.830  55.690 -38.053  0.00  0.00    -0.346 N 
ATOM    149  H72 ILE d   1      79.481  55.194 -37.478  0.00  0.00     0.163 HD
BRANCH 148 150
ATOM    150  CA  ILE d   1      78.272  56.946 -37.545  0.00  0.00     0.092 C 
ATOM    151  H73 ILE d   1      77.811  57.474 -38.392  0.00  0.00     0.088 H 
BRANCH 150 152
ATOM    152  CB  ILE d   1      77.151  56.703 -36.476  0.00  0.00    -0.030 C 
ATOM    153  H74 ILE d   1      77.570  56.081 -35.671  0.00  0.00     0.043 H 
BRANCH 152 154
ATOM    154  CG2 ILE d   1      76.642  58.032 -35.860  0.00  0.00    -0.071 C 
ATOM    155  H77 ILE d   1      77.485  58.572 -35.404  0.00  0.00     0.028 H 
ATOM    156  H78 ILE d   1      75.887  57.814 -35.090  0.00  0.00     0.028 H 
ATOM    157  H79 ILE d   1      76.192  58.653 -36.649  0.00  0.00     0.028 H 
ENDBRANCH 152 154
BRANCH 152 158
ATOM    158  CG1 ILE d   1      75.970  55.970 -37.102  0.00  0.00    -0.063 C 
ATOM    159  H75 ILE d   1      76.269  54.926 -37.280  0.00  0.00     0.033 H 
ATOM    160  H76 ILE d   1      75.736  56.453 -38.062  0.00  0.00     0.033 H 
BRANCH 158 161
ATOM    161  CD1 ILE d   1      74.692  55.965 -36.241  0.00  0.00    -0.076 C 
ATOM    162  H80 ILE d   1      73.897  55.417 -36.768  0.00  0.00     0.027 H 
ATOM    163  H81 ILE d   1      74.367  57.000 -36.061  0.00  0.00     0.027 H 
ATOM    164  H82 ILE d   1      74.900  55.474 -35.279  0.00  0.00     0.027 H 
ENDBRANCH 158 161
ENDBRANCH 152 158
ENDBRANCH 150 152
BRANCH 150 165
ATOM    165  C   ILE d   1      79.407  57.847 -36.984  0.00  0.00     0.241 C 
ATOM    166  O   ILE d   1      79.166  59.002 -36.624  0.00  0.00    -0.271 OA
ATOM    167  N   PHE d   1      80.647  57.349 -36.961  0.00  0.00    -0.345 N 
ATOM    168  H83 PHE d   1      80.843  56.505 -37.460  0.00  0.00     0.163 HD
BRANCH 167 169
ATOM    169  CA  PHE d   1      81.726  58.010 -36.222  0.00  0.00     0.097 C 
ATOM    170  H84 PHE d   1      81.385  59.024 -35.968  0.00  0.00     0.089 H 
BRANCH 169 171
ATOM    171  CB  PHE d   1      81.974  57.247 -34.930  0.00  0.00    -0.013 C 
ATOM    172  H85 PHE d   1      82.754  57.772 -34.360  0.00  0.00     0.043 H 
ATOM    173  H86 PHE d   1      82.324  56.236 -35.184  0.00  0.00     0.043 H 
BRANCH 171 174
ATOM    174  CG  PHE d   1      80.757  57.124 -34.066  0.00  0.00    -0.056 A 
ATOM    175  CD1 PHE d   1      80.472  58.089 -33.100  0.00  0.00    -0.077 A 
ATOM    176  CE1 PHE d   1      79.350  57.980 -32.295  0.00  0.00    -0.082 A 
ATOM    177  H87 PHE d   1      81.138  58.936 -32.978  0.00  0.00     0.084 H 
ATOM    178  CZ  PHE d   1      78.494  56.907 -32.456  0.00  0.00    -0.083 A 
ATOM    179  H89 PHE d   1      79.144  58.733 -31.542  0.00  0.00     0.083 H 
ATOM    180  CE2 PHE d   1      78.767  55.935 -33.423  0.00  0.00    -0.082 A 
ATOM    181  H91 PHE d   1      77.611  56.819 -31.833  0.00  0.00     0.083 H 
ATOM    182  CD2 PHE d   1      79.890  56.051 -34.222  0.00  0.00    -0.077 A 
ATOM    183  H90 PHE d   1      78.099  55.090 -33.547  0.00  0.00     0.083 H 
ATOM    184  H88 PHE d   1      80.095  55.299 -34.975  0.00  0.00     0.084 H 
ENDBRANCH 171 174
ENDBRANCH 169 171
BRANCH 169 185
ATOM    185  C   PHE d   1      83.030  58.149 -37.009  0.00  0.00     0.163 C 
ATOM    186  O   PHE d   1      84.006  57.407 -36.822  0.00  0.00    -0.648 OA
BRANCH 185 187
ATOM    187  O1  PHE d   1      83.121  59.104 -37.931  0.00  0.00    -0.775 OA
ATOM    188  H92 PHE d   1      83.832  59.692 -37.706  0.00  0.00     0.167 HD
ENDBRANCH 185 187
ENDBRANCH 169 185
ENDBRANCH 167 169
ENDBRANCH 150 165
ENDBRANCH 148 150
ENDBRANCH 138 146
ENDBRANCH 136 138
ENDBRANCH 114 134
ENDBRANCH 112 114
ENDBRANCH   1 110
TORSDOF 49
