REMARK  5 active torsions:
REMARK  status: ('A' for Active; 'I' for Inactive)
REMARK    1  A    between atoms: C09_9  and  N10_10 
REMARK    2  A    between atoms: N10_10  and  C11_11 
REMARK    3  A    between atoms: N17_17  and  C18_18 
REMARK    4  A    between atoms: C20_20  and  N27_26 
REMARK       I    between atoms: N27_26  and  C28_27 
REMARK    5  A    between atoms: C28_27  and  C30_29 
ROOT
ATOM      1  N01 P63 d   1      19.964   9.469  20.123  0.00  0.00    -0.162 NA
ATOM      2  C02 P63 d   1      20.229   9.776  18.826  0.00  0.00     0.047 A 
ATOM      3  C03 P63 d   1      21.205   8.889  18.332  0.00  0.00     0.112 A 
ATOM      4  C04 P63 d   1      21.513   8.016  19.443  0.00  0.00     0.210 A 
ATOM      5  N05 P63 d   1      20.740   8.413  20.493  0.00  0.00    -0.041 N 
ATOM      6  N06 P63 d   1      22.346   6.974  19.612  0.00  0.00    -0.040 NA
ATOM      7  C07 P63 d   1      22.382   6.367  20.793  0.00  0.00     0.744 A 
ATOM      8  N08 P63 d   1      21.630   6.747  21.822  0.00  0.00     0.131 NA
ATOM      9  C09 P63 d   1      20.818   7.786  21.646  0.00  0.00     0.745 A 
ATOM     10  N17 P63 d   1      23.215   5.310  21.006  0.00  0.00    -0.188 N 
ATOM     11  C25 P63 d   1      21.724   8.857  16.997  0.00  0.00     0.105 C 
ATOM     12  N26 P63 d   1      22.128   8.901  15.911  0.00  0.00    -0.191 NA
ATOM     13  H1  P63 d   1      19.761  10.580  18.259  0.00  0.00     0.120 H 
ATOM     14  H8  P63 d   1      23.300   5.013  21.988  0.00  0.00     0.184 HD
ENDROOT
BRANCH   9  15
ATOM     15  N10 P63 d   1      20.067   8.311  22.641  0.00  0.00    -0.188 N 
ATOM     16  H2  P63 d   1      19.402   9.054  22.382  0.00  0.00     0.184 HD
BRANCH  15  17
ATOM     17  C11 P63 d   1      20.108   7.950  23.951  0.00  0.00     0.049 C 
ATOM     18  C12 P63 d   1      19.757   8.925  24.888  0.00  0.00    -0.057 C 
ATOM     19  C13 P63 d   1      19.539   8.523  26.207  0.00  0.00    -0.081 C 
ATOM     20  H3  P63 d   1      19.657   9.965  24.599  0.00  0.00     0.086 H 
ATOM     21  C14 P63 d   1      19.698   7.190  26.602  0.00  0.00    -0.083 C 
ATOM     22  H4  P63 d   1      19.239   9.261  26.942  0.00  0.00     0.083 H 
ATOM     23  C15 P63 d   1      20.195   6.252  25.693  0.00  0.00    -0.081 C 
ATOM     24  H5  P63 d   1      19.437   6.886  27.609  0.00  0.00     0.083 H 
ATOM     25  C16 P63 d   1      20.398   6.649  24.370  0.00  0.00    -0.057 C 
ATOM     26  H6  P63 d   1      20.418   5.239  26.008  0.00  0.00     0.083 H 
ATOM     27  H7  P63 d   1      20.788   5.934  23.654  0.00  0.00     0.086 H 
ENDBRANCH  15  17
ENDBRANCH   9  15
BRANCH  10  28
ATOM     28  C18 P63 d   1      23.952   4.587  20.119  0.00  0.00     0.051 A 
ATOM     29  C19 P63 d   1      24.157   4.941  18.787  0.00  0.00    -0.031 A 
ATOM     30  C20 P63 d   1      24.993   4.222  17.935  0.00  0.00     0.036 A 
ATOM     31  H9  P63 d   1      23.644   5.813  18.397  0.00  0.00     0.090 H 
ATOM     32  C21 P63 d   1      25.658   3.111  18.440  0.00  0.00    -0.057 A 
ATOM     33  C22 P63 d   1      25.449   2.714  19.758  0.00  0.00    -0.079 A 
ATOM     34  H10 P63 d   1      26.340   2.554  17.808  0.00  0.00     0.086 H 
ATOM     35  C23 P63 d   1      24.593   3.441  20.585  0.00  0.00    -0.057 A 
ATOM     36  H11 P63 d   1      25.954   1.836  20.143  0.00  0.00     0.083 H 
ATOM     37  H12 P63 d   1      24.424   3.110  21.603  0.00  0.00     0.086 H 
BRANCH  30  38
ATOM     38  N27 P63 d   1      24.996   4.409  16.591  0.00  0.00    -0.327 N 
ATOM     39  C28 P63 d   1      25.127   5.561  15.895  0.00  0.00     0.218 C 
ATOM     40  O29 P63 d   1      25.242   5.567  14.675  0.00  0.00    -0.274 OA
ATOM     41  H13 P63 d   1      24.886   3.582  16.040  0.00  0.00     0.169 HD
BRANCH  39  42
ATOM     42  C30 P63 d   1      25.138   6.888  16.653  0.00  0.00    -0.003 C 
ATOM     43  H14 P63 d   1      25.251   7.717  15.939  0.00  0.00     0.040 H 
ATOM     44  H15 P63 d   1      25.978   6.898  17.363  0.00  0.00     0.040 H 
ATOM     45  H16 P63 d   1      24.192   7.004  17.203  0.00  0.00     0.040 H 
ENDBRANCH  39  42
ENDBRANCH  30  38
ENDBRANCH  10  28
TORSDOF 5
