REMARK  6 active torsions:
REMARK  status: ('A' for Active; 'I' for Inactive)
REMARK    1  A    between atoms: C5_4  and  C6_2 
REMARK    2  A    between atoms: C6_2  and  P1_11 
REMARK    3  A    between atoms: C5_4  and  C4_5 
REMARK    4  A    between atoms: C2_6  and  C5_4 
REMARK    5  A    between atoms: C3_7  and  C2_6 
REMARK    6  A    between atoms: C3_7  and  C1_10 
ROOT
ATOM      1  C5  G88 d   1      16.099  44.715  41.768  0.00  0.00     0.043 C 
ATOM      2  H3  G88 d   1      15.823  43.661  41.922  0.00  0.00     0.057 H 
ENDROOT
BRANCH   1   3
ATOM      3  C6  G88 d   1      16.674  45.280  43.119  0.00  0.00     0.051 C 
ATOM      4  H1  G88 d   1      15.835  45.583  43.763  0.00  0.00     0.055 H 
ATOM      5  H2  G88 d   1      17.302  46.156  42.899  0.00  0.00     0.055 H 
BRANCH   3   6
ATOM      6  P1  G88 d   1      17.687  44.035  44.012  0.00  0.00     0.260 P 
ATOM      7  O7  G88 d   1      18.743  44.775  44.762  0.00  0.00    -0.640 OA
ATOM      8  O2  G88 d   1      18.441  43.188  42.929  0.00  0.00    -0.640 OA
ATOM      9  O1  G88 d   1      16.790  43.196  44.841  0.00  0.00    -0.640 OA
ENDBRANCH   3   6
ENDBRANCH   1   3
BRANCH   1  10
ATOM     10  C4  G88 d   1      17.172  44.780  40.673  0.00  0.00     0.177 C 
ATOM     11  O4  G88 d   1      17.098  43.979  39.690  0.00  0.00    -0.648 OA
ATOM     12  O3  G88 d   1      18.107  45.622  40.761  0.00  0.00    -0.648 OA
ENDBRANCH   1  10
BRANCH   1  13
ATOM     13  C2  G88 d   1      14.817  45.499  41.334  0.00  0.00    -0.043 C 
ATOM     14  H4  G88 d   1      14.048  45.415  42.116  0.00  0.00     0.035 H 
ATOM     15  H5  G88 d   1      14.429  45.083  40.392  0.00  0.00     0.035 H 
BRANCH  13  16
ATOM     16  C3  G88 d   1      15.191  46.974  41.133  0.00  0.00     0.017 C 
ATOM     17  H6  G88 d   1      16.083  47.029  40.491  0.00  0.00     0.049 H 
ATOM     18  H7  G88 d   1      15.416  47.419  42.113  0.00  0.00     0.049 H 
BRANCH  16  19
ATOM     19  C1  G88 d   1      14.061  47.772  40.477  0.00  0.00     0.172 C 
ATOM     20  O6  G88 d   1      13.257  47.230  39.655  0.00  0.00    -0.648 OA
ATOM     21  O5  G88 d   1      13.973  49.003  40.790  0.00  0.00    -0.648 OA
ENDBRANCH  16  19
ENDBRANCH  13  16
ENDBRANCH   1  13
TORSDOF 6
