REMARK  9 active torsions:
REMARK  status: ('A' for Active; 'I' for Inactive)
REMARK    1  A    between atoms: C11_6  and  C10_7 
REMARK    2  A    between atoms: N2_11  and  C8_12 
REMARK    3  A    between atoms: C8_12  and  C7_13 
REMARK       I    between atoms: C7_13  and  N1_15 
REMARK    4  A    between atoms: N1_15  and  C1_16 
REMARK    5  A    between atoms: C5_18  and  C6_19 
REMARK    6  A    between atoms: C6_19  and  O6_20 
REMARK    7  A    between atoms: C4_21  and  O4_22 
REMARK    8  A    between atoms: C3_23  and  O3_24 
REMARK    9  A    between atoms: C2_25  and  O2_26 
ROOT
ATOM      1  C7  DL8 d   1      34.914  23.454  29.188  0.00  0.00     0.239 C 
ATOM      2  O7  DL8 d   1      33.942  23.878  29.818  0.00  0.00    -0.272 OA
ATOM      3  N1  DL8 d   1      34.834  22.844  28.008  0.00  0.00    -0.331 N 
ATOM      4  H9  DL8 d   1      35.675  22.549  27.555  0.00  0.00     0.165 HD
ENDROOT
BRANCH   3   5
ATOM      5  C1  DL8 d   1      33.536  22.591  27.350  0.00  0.00     0.133 C 
ATOM      6  O5  DL8 d   1      33.277  21.179  27.585  0.00  0.00    -0.354 OA
ATOM      7  C5  DL8 d   1      32.053  20.701  26.991  0.00  0.00     0.088 C 
ATOM      8  C4  DL8 d   1      32.162  20.869  25.461  0.00  0.00     0.089 C 
ATOM      9  H11 DL8 d   1      31.202  21.294  27.356  0.00  0.00     0.090 H 
ATOM     10  C3  DL8 d   1      32.405  22.347  25.095  0.00  0.00     0.091 C 
ATOM     11  H15 DL8 d   1      33.021  20.279  25.108  0.00  0.00     0.091 H 
ATOM     12  C2  DL8 d   1      33.622  22.906  25.850  0.00  0.00     0.104 C 
ATOM     13  H17 DL8 d   1      31.514  22.933  25.365  0.00  0.00     0.091 H 
ATOM     14  H19 DL8 d   1      34.526  22.428  25.445  0.00  0.00     0.093 H 
ATOM     15  H10 DL8 d   1      32.745  23.206  27.804  0.00  0.00     0.122 H 
BRANCH   7  16
ATOM     16  C6  DL8 d   1      31.863  19.238  27.415  0.00  0.00     0.043 C 
ATOM     17  H12 DL8 d   1      30.914  18.859  27.009  0.00  0.00     0.078 H 
ATOM     18  H13 DL8 d   1      31.843  19.174  28.513  0.00  0.00     0.078 H 
BRANCH  16  19
ATOM     19  O6  DL8 d   1      32.952  18.446  26.908  0.00  0.00    -0.398 OA
ATOM     20  H14 DL8 d   1      33.771  18.774  27.260  0.00  0.00     0.209 HD
ENDBRANCH  16  19
ENDBRANCH   7  16
BRANCH   8  21
ATOM     21  O4  DL8 d   1      30.980  20.375  24.818  0.00  0.00    -0.390 OA
ATOM     22  H16 DL8 d   1      30.225  20.860  25.130  0.00  0.00     0.210 HD
ENDBRANCH   8  21
BRANCH  10  23
ATOM     23  O3  DL8 d   1      32.638  22.461  23.687  0.00  0.00    -0.390 OA
ATOM     24  H18 DL8 d   1      32.787  23.372  23.465  0.00  0.00     0.210 HD
ENDBRANCH  10  23
BRANCH  12  25
ATOM     25  O2  DL8 d   1      33.733  24.321  25.661  0.00  0.00    -0.389 OA
ATOM     26  H20 DL8 d   1      32.948  24.745  25.988  0.00  0.00     0.210 HD
ENDBRANCH  12  25
ENDBRANCH   3   5
BRANCH   1  27
ATOM     27  C8  DL8 d   1      36.356  23.588  29.709  0.00  0.00     0.091 C 
ATOM     28  H7  DL8 d   1      36.754  22.581  29.904  0.00  0.00     0.082 H 
ATOM     29  H8  DL8 d   1      36.965  24.080  28.936  0.00  0.00     0.082 H 
BRANCH  27  30
ATOM     30  N2  DL8 d   1      36.445  24.377  30.950  0.00  0.00    -0.252 N 
ATOM     31  C9  DL8 d   1      37.336  25.342  31.132  0.00  0.00     0.031 A 
ATOM     32  C10 DL8 d   1      37.085  25.790  32.356  0.00  0.00     0.108 A 
ATOM     33  H6  DL8 d   1      38.099  25.688  30.436  0.00  0.00     0.118 H 
ATOM     34  N4  DL8 d   1      36.066  25.061  32.816  0.00  0.00    -0.130 NA
ATOM     35  N3  DL8 d   1      35.731  24.241  31.951  0.00  0.00    -0.065 NA
BRANCH  32  36
ATOM     36  C11 DL8 d   1      37.750  26.816  33.025  0.00  0.00    -0.004 A 
ATOM     37  C12 DL8 d   1      37.477  27.069  34.371  0.00  0.00    -0.071 A 
ATOM     38  C13 DL8 d   1      38.145  28.095  35.041  0.00  0.00    -0.082 A 
ATOM     39  H1  DL8 d   1      36.745  26.467  34.897  0.00  0.00     0.084 H 
ATOM     40  C14 DL8 d   1      39.083  28.875  34.364  0.00  0.00    -0.083 A 
ATOM     41  H2  DL8 d   1      37.935  28.286  36.087  0.00  0.00     0.083 H 
ATOM     42  C15 DL8 d   1      39.358  28.622  33.022  0.00  0.00    -0.082 A 
ATOM     43  H3  DL8 d   1      39.597  29.677  34.882  0.00  0.00     0.083 H 
ATOM     44  C16 DL8 d   1      38.693  27.594  32.355  0.00  0.00    -0.071 A 
ATOM     45  H4  DL8 d   1      40.090  29.225  32.496  0.00  0.00     0.083 H 
ATOM     46  H5  DL8 d   1      38.910  27.399  31.311  0.00  0.00     0.084 H 
ENDBRANCH  32  36
ENDBRANCH  27  30
ENDBRANCH   1  27
TORSDOF 9
