REMARK  10 active torsions:
REMARK  status: ('A' for Active; 'I' for Inactive)
REMARK    1  A    between atoms: O3B_8  and  PG_1 
REMARK    2  A    between atoms: PB_5  and  O3B_8 
REMARK    3  A    between atoms: O3A_12  and  PB_5 
REMARK    4  A    between atoms: PA_9  and  O3A_12 
REMARK    5  A    between atoms: PA_9  and  O5'_13 
REMARK    6  A    between atoms: O5'_13  and  C5'_14 
REMARK    7  A    between atoms: C5'_14  and  C4'_15 
REMARK    8  A    between atoms: C3'_17  and  O3'_18 
REMARK    9  A    between atoms: C2'_19  and  O2'_20 
REMARK   10  A    between atoms: C1'_21  and  N9_22 
ROOT
ATOM      1  C4' ATP d   1      10.196  16.978  68.095  0.00  0.00     0.089 C 
ATOM      2  O4' ATP d   1      11.501  16.733  68.631  0.00  0.00    -0.353 OA
ATOM      3  C3' ATP d   1      10.247  16.493  66.645  0.00  0.00     0.091 C 
ATOM      4  C2' ATP d   1      11.503  15.653  66.511  0.00  0.00     0.105 C 
ATOM      5  C1' ATP d   1      12.370  16.124  67.660  0.00  0.00     0.139 C 
ATOM      6  H3  ATP d   1       9.969  18.054  68.115  0.00  0.00     0.090 H 
ATOM      7  H4  ATP d   1       9.358  15.892  66.404  0.00  0.00     0.091 H 
ATOM      8  H6  ATP d   1      11.259  14.585  66.614  0.00  0.00     0.093 H 
ATOM      9  H8  ATP d   1      13.091  16.868  67.290  0.00  0.00     0.122 H 
ENDROOT
BRANCH   1  10
ATOM     10  C5' ATP d   1       9.161  16.237  68.942  0.00  0.00     0.058 C 
ATOM     11  H1  ATP d   1       9.328  16.419  70.014  0.00  0.00     0.079 H 
ATOM     12  H2  ATP d   1       8.140  16.544  68.672  0.00  0.00     0.079 H 
BRANCH  10  13
ATOM     13  O5' ATP d   1       9.381  14.878  68.620  0.00  0.00    -0.287 OA
BRANCH  13  14
ATOM     14  PA  ATP d   1       8.612  13.634  69.332  0.00  0.00     0.417 P 
ATOM     15  O1A ATP d   1       9.211  12.375  68.844  0.00  0.00    -0.624 OA
ATOM     16  O2A ATP d   1       8.548  13.938  70.785  0.00  0.00    -0.624 OA
BRANCH  14  17
ATOM     17  O3A ATP d   1       7.103  13.836  68.799  0.00  0.00    -0.180 OA
BRANCH  17  18
ATOM     18  PB  ATP d   1       5.766  12.954  68.987  0.00  0.00     0.428 P 
ATOM     19  O1B ATP d   1       4.731  13.844  69.597  0.00  0.00    -0.624 OA
ATOM     20  O2B ATP d   1       6.127  11.633  69.585  0.00  0.00    -0.624 OA
BRANCH  18  21
ATOM     21  O3B ATP d   1       5.347  12.690  67.435  0.00  0.00    -0.173 OA
BRANCH  21  22
ATOM     22  PG  ATP d   1       4.729  11.386  66.725  0.00  0.00     0.431 P 
ATOM     23  O1G ATP d   1       3.255  11.414  67.061  0.00  0.00    -0.616 OA
ATOM     24  O2G ATP d   1       5.397  10.156  67.199  0.00  0.00    -0.616 OA
ATOM     25  O3G ATP d   1       5.000  11.692  65.262  0.00  0.00    -0.616 OA
ENDBRANCH  21  22
ENDBRANCH  18  21
ENDBRANCH  17  18
ENDBRANCH  14  17
ENDBRANCH  13  14
ENDBRANCH  10  13
ENDBRANCH   1  10
BRANCH   3  26
ATOM     26  O3' ATP d   1      10.313  17.638  65.783  0.00  0.00    -0.390 OA
ATOM     27  H5  ATP d   1      10.345  17.350  64.878  0.00  0.00     0.210 HD
ENDBRANCH   3  26
BRANCH   5  28
ATOM     28  N9  ATP d   1      13.116  15.006  68.285  0.00  0.00    -0.294 N 
ATOM     29  C8  ATP d   1      12.586  13.888  68.799  0.00  0.00     0.071 A 
ATOM     30  N7  ATP d   1      13.550  13.087  69.321  0.00  0.00    -0.236 NA
ATOM     31  H9  ATP d   1      11.523  13.653  68.798  0.00  0.00     0.144 H 
ATOM     32  C5  ATP d   1      14.728  13.716  69.156  0.00  0.00     0.149 A 
ATOM     33  C6  ATP d   1      16.149  13.428  69.468  0.00  0.00     0.155 A 
ATOM     34  C4  ATP d   1      14.441  14.982  68.466  0.00  0.00     0.167 A 
ATOM     35  N6  ATP d   1      16.495  12.280  70.091  0.00  0.00    -0.382 N 
ATOM     36  N1  ATP d   1      17.076  14.357  69.101  0.00  0.00    -0.222 NA
ATOM     37  H10 ATP d   1      17.484  12.088  70.304  0.00  0.00     0.157 HD
ATOM     38  H11 ATP d   1      15.770  11.597  70.353  0.00  0.00     0.157 HD
ATOM     39  C2  ATP d   1      16.742  15.502  68.469  0.00  0.00     0.091 A 
ATOM     40  N3  ATP d   1      15.469  15.819  68.152  0.00  0.00    -0.222 NA
ATOM     41  H12 ATP d   1      17.531  16.197  68.204  0.00  0.00     0.146 H 
ENDBRANCH   5  28
BRANCH   4  42
ATOM     42  O2' ATP d   1      12.190  15.857  65.272  0.00  0.00    -0.388 OA
ATOM     43  H7  ATP d   1      12.446  16.769  65.199  0.00  0.00     0.210 HD
ENDBRANCH   4  42
TORSDOF 10
