REMARK  3 active torsions:
REMARK  status: ('A' for Active; 'I' for Inactive)
REMARK    1  A    between atoms: C4_2  and  C2_3 
REMARK       I    between atoms: C4_2  and  N6_6 
REMARK    2  A    between atoms: N6_6  and  C7_7 
REMARK    3  A    between atoms: C8_15  and  C12_16 
REMARK       I    between atoms: C12_16  and  N14_18 
ROOT
ATOM      1  C7  AXX d   1      21.685 -10.213  -3.852  0.00  0.00     0.093 A 
ATOM      2  S11 AXX d   1      21.186  -9.615  -5.379  0.00  0.00    -0.075 SA
ATOM      3  C10 AXX d   1      22.633 -10.140  -6.176  0.00  0.00    -0.008 A 
ATOM      4  C18 AXX d   1      22.763  -9.872  -7.647  0.00  0.00    -0.034 C 
ATOM      5  C17 AXX d   1      24.254  -9.947  -7.961  0.00  0.00    -0.061 C 
ATOM      6  C16 AXX d   1      24.912 -11.198  -7.374  0.00  0.00    -0.061 C 
ATOM      7  C15 AXX d   1      24.828 -11.320  -5.851  0.00  0.00    -0.039 C 
ATOM      8  C9  AXX d   1      23.510 -10.799  -5.329  0.00  0.00    -0.026 A 
ATOM      9  C8  AXX d   1      23.010 -10.840  -4.005  0.00  0.00     0.072 A 
ATOM     10  H7  AXX d   1      22.372  -8.873  -7.889  0.00  0.00     0.040 H 
ATOM     11  H8  AXX d   1      22.213 -10.631  -8.223  0.00  0.00     0.040 H 
ATOM     12  H9  AXX d   1      24.748  -9.058  -7.542  0.00  0.00     0.033 H 
ATOM     13  H10 AXX d   1      24.385  -9.959  -9.053  0.00  0.00     0.033 H 
ATOM     14  H11 AXX d   1      25.975 -11.189  -7.657  0.00  0.00     0.033 H 
ATOM     15  H12 AXX d   1      24.422 -12.079  -7.814  0.00  0.00     0.033 H 
ATOM     16  H13 AXX d   1      25.646 -10.740  -5.400  0.00  0.00     0.040 H 
ATOM     17  H14 AXX d   1      24.931 -12.379  -5.570  0.00  0.00     0.040 H 
ENDROOT
BRANCH   1  18
ATOM     18  N6  AXX d   1      20.990 -10.137  -2.688  0.00  0.00    -0.320 N 
ATOM     19  C4  AXX d   1      19.777  -9.592  -2.565  0.00  0.00     0.226 C 
ATOM     20  O5  AXX d   1      19.085  -9.245  -3.524  0.00  0.00    -0.273 OA
ATOM     21  H6  AXX d   1      21.416 -10.515  -1.866  0.00  0.00     0.169 HD
BRANCH  19  22
ATOM     22  C2  AXX d   1      19.285  -9.450  -1.140  0.00  0.00     0.024 A 
ATOM     23  C3  AXX d   1      17.868 -10.016  -1.082  0.00  0.00    -0.053 A 
ATOM     24  C1  AXX d   1      18.084  -8.507  -1.020  0.00  0.00    -0.053 A 
ATOM     25  H2  AXX d   1      17.530 -10.560  -0.188  0.00  0.00     0.034 H 
ATOM     26  H3  AXX d   1      17.421 -10.470  -1.978  0.00  0.00     0.034 H 
ATOM     27  H4  AXX d   1      17.794  -7.874  -1.872  0.00  0.00     0.034 H 
ATOM     28  H5  AXX d   1      17.903  -7.963  -0.081  0.00  0.00     0.034 H 
ATOM     29  H1  AXX d   1      20.054  -9.567  -0.362  0.00  0.00     0.054 H 
ENDBRANCH  19  22
ENDBRANCH   1  18
BRANCH   9  30
ATOM     30  C12 AXX d   1      23.674 -11.456  -2.835  0.00  0.00     0.252 C 
ATOM     31  O13 AXX d   1      23.017 -11.509  -1.810  0.00  0.00    -0.268 OA
ATOM     32  N14 AXX d   1      24.914 -11.924  -2.942  0.00  0.00    -0.366 N 
ATOM     33  H15 AXX d   1      25.361 -12.340  -2.150  0.00  0.00     0.159 HD
ATOM     34  H16 AXX d   1      25.399 -11.860  -3.814  0.00  0.00     0.159 HD
ENDBRANCH   9  30
TORSDOF 3
