REMARK  9 active torsions:
REMARK  status: ('A' for Active; 'I' for Inactive)
REMARK    1  A    between atoms: C01_1  and  C15_15 
REMARK    2  A    between atoms: C10_10  and  C31_31 
REMARK       I    between atoms: C15_15  and  N17_17 
REMARK    3  A    between atoms: N17_17  and  C18_18 
REMARK    4  A    between atoms: C21_21  and  C23_23 
REMARK       I    between atoms: C23_23  and  N24_24 
REMARK    5  A    between atoms: N24_24  and  C26_26 
REMARK    6  A    between atoms: C26_26  and  C27_27 
REMARK    7  A    between atoms: C27_27  and  N28_28 
REMARK    8  A    between atoms: N28_28  and  C29_29 
REMARK    9  A    between atoms: N28_28  and  C30_30 
ROOT
ATOM      1  C15 B18 d   1      35.622 -30.394 -20.367  0.00  0.00     0.257 C 
ATOM      2  O16 B18 d   1      34.454 -30.576 -20.047  0.00  0.00    -0.267 OA
ATOM      3  N17 B18 d   1      36.016 -29.626 -21.419  0.00  0.00    -0.301 N 
ATOM      4  H9  B18 d   1      37.001 -29.560 -21.579  0.00  0.00     0.171 HD
ENDROOT
BRANCH   1   5
ATOM      5  C01 B18 d   1      36.687 -31.027 -19.588  0.00  0.00     0.033 A 
ATOM      6  C02 B18 d   1      37.971 -30.404 -19.570  0.00  0.00    -0.055 A 
ATOM      7  C03 B18 d   1      39.025 -30.955 -18.846  0.00  0.00     0.001 A 
ATOM      8  H1  B18 d   1      38.128 -29.488 -20.128  0.00  0.00     0.086 H 
ATOM      9  C04 B18 d   1      38.806 -32.172 -18.114  0.00  0.00     0.043 A 
ATOM     10  C07 B18 d   1      40.418 -30.586 -18.620  0.00  0.00    -0.008 A 
ATOM     11  C05 B18 d   1      37.560 -32.786 -18.122  0.00  0.00    -0.055 A 
ATOM     12  N09 B18 d   1      39.994 -32.498 -17.504  0.00  0.00    -0.351 N 
ATOM     13  C06 B18 d   1      36.492 -32.224 -18.854  0.00  0.00    -0.066 A 
ATOM     14  H2  B18 d   1      37.407 -33.702 -17.563  0.00  0.00     0.087 H 
ATOM     15  H3  B18 d   1      35.522 -32.708 -18.855  0.00  0.00     0.085 H 
ATOM     16  C08 B18 d   1      40.935 -31.586 -17.793  0.00  0.00     0.108 A 
ATOM     17  H4  B18 d   1      40.141 -33.326 -16.909  0.00  0.00     0.166 HD
ATOM     18  C13 B18 d   1      42.234 -31.620 -17.350  0.00  0.00     0.268 C 
ATOM     19  N12 B18 d   1      42.973 -30.485 -17.507  0.00  0.00    -0.355 N 
ATOM     20  O14 B18 d   1      42.666 -32.644 -16.850  0.00  0.00    -0.266 OA
ATOM     21  C11 B18 d   1      42.499 -29.207 -18.117  0.00  0.00     0.002 C 
ATOM     22  H8  B18 d   1      43.919 -30.511 -17.184  0.00  0.00     0.162 HD
ATOM     23  C10 B18 d   1      41.293 -29.402 -19.104  0.00  0.00    -0.013 C 
ATOM     24  H6  B18 d   1      42.184 -28.530 -17.309  0.00  0.00     0.065 H 
ATOM     25  H7  B18 d   1      43.334 -28.753 -18.671  0.00  0.00     0.065 H 
ATOM     26  H5  B18 d   1      41.671 -29.636 -20.110  0.00  0.00     0.049 H 
BRANCH  23  27
ATOM     27  C31 B18 d   1      40.532 -28.065 -19.155  0.00  0.00    -0.067 C 
ATOM     28  H23 B18 d   1      39.675 -28.157 -19.838  0.00  0.00     0.028 H 
ATOM     29  H24 B18 d   1      41.205 -27.273 -19.516  0.00  0.00     0.028 H 
ATOM     30  H25 B18 d   1      40.172 -27.809 -18.148  0.00  0.00     0.028 H 
ENDBRANCH  23  27
ENDBRANCH   1   5
BRANCH   3  31
ATOM     31  C18 B18 d   1      35.142 -28.877 -22.354  0.00  0.00     0.174 A 
ATOM     32  S19 B18 d   1      33.471 -29.176 -22.527  0.00  0.00    -0.061 SA
ATOM     33  C20 B18 d   1      33.319 -27.962 -23.705  0.00  0.00    -0.008 A 
ATOM     34  C21 B18 d   1      34.554 -27.321 -23.971  0.00  0.00     0.133 A 
ATOM     35  H10 B18 d   1      32.382 -27.706 -24.198  0.00  0.00     0.099 H 
ATOM     36  N22 B18 d   1      35.539 -27.869 -23.191  0.00  0.00    -0.218 NA
BRANCH  34  37
ATOM     37  C23 B18 d   1      34.780 -26.278 -24.888  0.00  0.00     0.270 C 
ATOM     38  N24 B18 d   1      36.093 -26.035 -25.197  0.00  0.00    -0.354 N 
ATOM     39  H11 B18 d   1      36.807 -26.589 -24.770  0.00  0.00     0.162 HD
ATOM     40  O25 B18 d   1      33.833 -25.637 -25.372  0.00  0.00    -0.266 OA
BRANCH  38  41
ATOM     41  C26 B18 d   1      36.475 -24.970 -26.150  0.00  0.00     0.018 C 
ATOM     42  H12 B18 d   1      35.985 -24.034 -25.844  0.00  0.00     0.066 H 
ATOM     43  H13 B18 d   1      36.125 -25.256 -27.153  0.00  0.00     0.066 H 
BRANCH  41  44
ATOM     44  C27 B18 d   1      38.018 -24.725 -26.213  0.00  0.00     0.097 C 
ATOM     45  H14 B18 d   1      38.510 -25.594 -25.752  0.00  0.00     0.078 H 
ATOM     46  H15 B18 d   1      38.234 -23.824 -25.620  0.00  0.00     0.078 H 
BRANCH  44  47
ATOM     47  N28 B18 d   1      38.631 -24.528 -27.578  0.00  0.00    -0.077 N 
ATOM     48  H16 B18 d   1      38.812 -25.442 -27.962  0.00  0.00     0.279 HD
BRANCH  47  49
ATOM     49  C29 B18 d   1      39.908 -23.801 -27.484  0.00  0.00     0.066 C 
ATOM     50  H17 B18 d   1      40.331 -23.672 -28.491  0.00  0.00     0.068 H 
ATOM     51  H18 B18 d   1      40.611 -24.374 -26.861  0.00  0.00     0.068 H 
ATOM     52  H19 B18 d   1      39.736 -22.814 -27.029  0.00  0.00     0.068 H 
ENDBRANCH  47  49
BRANCH  47  53
ATOM     53  C30 B18 d   1      37.742 -23.798 -28.529  0.00  0.00     0.066 C 
ATOM     54  H20 B18 d   1      36.781 -24.327 -28.613  0.00  0.00     0.068 H 
ATOM     55  H21 B18 d   1      38.222 -23.752 -29.518  0.00  0.00     0.068 H 
ATOM     56  H22 B18 d   1      37.567 -22.777 -28.158  0.00  0.00     0.068 H 
ENDBRANCH  47  53
ENDBRANCH  44  47
ENDBRANCH  41  44
ENDBRANCH  38  41
ENDBRANCH  34  37
ENDBRANCH   3  31
TORSDOF 9
