REMARK  8 active torsions:
REMARK  status: ('A' for Active; 'I' for Inactive)
REMARK    1  A    between atoms: C01_1  and  N02_2 
REMARK       I    between atoms: N02_2  and  C03_3 
REMARK    2  A    between atoms: N02_2  and  C26_26 
REMARK    3  A    between atoms: C03_3  and  C05_5 
REMARK    4  A    between atoms: C05_5  and  C06_6 
REMARK    5  A    between atoms: C06_6  and  N07_7 
REMARK    6  A    between atoms: C11_11  and  C12_12 
REMARK    7  A    between atoms: C12_12  and  C14_14 
REMARK    8  A    between atoms: C24_24  and  N25_25 
ROOT
ATOM      1  N07 XX4 d   1     197.370   5.767  23.291  0.00  0.00    -0.212 N 
ATOM      2  C08 XX4 d   1     196.136   6.619  23.114  0.00  0.00     0.037 C 
ATOM      3  C09 XX4 d   1     195.037   5.877  22.372  0.00  0.00    -0.009 A 
ATOM      4  C10 XX4 d   1     193.929   6.566  21.892  0.00  0.00    -0.059 A 
ATOM      5  C11 XX4 d   1     192.893   5.852  21.188  0.00  0.00     0.015 A 
ATOM      6  C20 XX4 d   1     193.016   4.432  20.988  0.00  0.00    -0.067 A 
ATOM      7  C21 XX4 d   1     194.128   3.746  21.474  0.00  0.00    -0.053 A 
ATOM      8  C22 XX4 d   1     195.152   4.448  22.170  0.00  0.00     0.084 A 
ATOM      9  N23 XX4 d   1     196.232   3.775  22.649  0.00  0.00    -0.065 NA
ATOM     10  C24 XX4 d   1     197.365   4.394  22.937  0.00  0.00     0.697 C 
ATOM     11  H8  XX4 d   1     196.405   7.520  22.543  0.00  0.00     0.072 H 
ATOM     12  H9  XX4 d   1     195.761   6.912  24.106  0.00  0.00     0.072 H 
ATOM     13  H10 XX4 d   1     193.844   7.636  22.046  0.00  0.00     0.086 H 
ATOM     14  H16 XX4 d   1     192.240   3.893  20.457  0.00  0.00     0.085 H 
ATOM     15  H17 XX4 d   1     194.213   2.676  21.322  0.00  0.00     0.087 H 
ENDROOT
BRANCH   1  16
ATOM     16  C06 XX4 d   1     198.597   6.374  23.874  0.00  0.00     0.020 C 
ATOM     17  H6  XX4 d   1     198.301   7.138  24.607  0.00  0.00     0.065 H 
ATOM     18  H7  XX4 d   1     199.177   5.587  24.378  0.00  0.00     0.065 H 
BRANCH  16  19
ATOM     19  C05 XX4 d   1     199.483   7.033  22.800  0.00  0.00     0.025 C 
ATOM     20  H4  XX4 d   1     199.394   8.127  22.879  0.00  0.00     0.049 H 
ATOM     21  H5  XX4 d   1     200.530   6.738  22.964  0.00  0.00     0.049 H 
BRANCH  19  22
ATOM     22  C03 XX4 d   1     199.059   6.602  21.431  0.00  0.00     0.221 C 
ATOM     23  N02 XX4 d   1     198.307   7.445  20.609  0.00  0.00    -0.352 N 
ATOM     24  O04 XX4 d   1     199.382   5.500  21.054  0.00  0.00    -0.273 OA
BRANCH  23  25
ATOM     25  C01 XX4 d   1     197.917   8.792  21.078  0.00  0.00    -0.016 C 
ATOM     26  H1  XX4 d   1     198.314   8.957  22.091  0.00  0.00     0.056 H 
ATOM     27  H2  XX4 d   1     196.820   8.870  21.097  0.00  0.00     0.056 H 
ATOM     28  H3  XX4 d   1     198.327   9.551  20.396  0.00  0.00     0.056 H 
ENDBRANCH  23  25
BRANCH  23  29
ATOM     29  C26 XX4 d   1     197.869   7.010  19.245  0.00  0.00     0.014 C 
ATOM     30  C27 XX4 d   1     199.050   6.372  18.450  0.00  0.00    -0.046 C 
ATOM     31  C28 XX4 d   1     198.566   5.826  17.096  0.00  0.00    -0.063 C 
ATOM     32  H22 XX4 d   1     199.477   5.547  19.039  0.00  0.00     0.036 H 
ATOM     33  H23 XX4 d   1     199.822   7.136  18.275  0.00  0.00     0.036 H 
ATOM     34  C29 XX4 d   1     197.450   4.789  17.327  0.00  0.00    -0.065 C 
ATOM     35  H24 XX4 d   1     199.407   5.348  16.572  0.00  0.00     0.033 H 
ATOM     36  H25 XX4 d   1     198.176   6.654  16.485  0.00  0.00     0.033 H 
ATOM     37  C30 XX4 d   1     196.252   5.482  17.999  0.00  0.00    -0.063 C 
ATOM     38  H26 XX4 d   1     197.823   3.985  17.978  0.00  0.00     0.033 H 
ATOM     39  H27 XX4 d   1     197.136   4.364  16.362  0.00  0.00     0.033 H 
ATOM     40  C31 XX4 d   1     196.679   6.013  19.379  0.00  0.00    -0.046 C 
ATOM     41  H28 XX4 d   1     195.431   4.760  18.121  0.00  0.00     0.033 H 
ATOM     42  H29 XX4 d   1     195.913   6.320  17.372  0.00  0.00     0.033 H 
ATOM     43  H30 XX4 d   1     195.827   6.529  19.846  0.00  0.00     0.036 H 
ATOM     44  H31 XX4 d   1     196.987   5.167  20.011  0.00  0.00     0.036 H 
ATOM     45  H21 XX4 d   1     197.522   7.895  18.691  0.00  0.00     0.072 H 
ENDBRANCH  23  29
ENDBRANCH  19  22
ENDBRANCH  16  19
ENDBRANCH   1  16
BRANCH  10  46
ATOM     46  N25 XX4 d   1     198.555   3.686  22.902  0.00  0.00    -0.233 N 
ATOM     47  H19 XX4 d   1     199.442   4.159  23.125  0.00  0.00     0.174 HD
ATOM     48  H20 XX4 d   1     198.553   2.687  22.653  0.00  0.00     0.174 HD
ENDBRANCH  10  46
BRANCH   5  49
ATOM     49  C12 XX4 d   1     191.687   6.578  20.675  0.00  0.00     0.192 C 
ATOM     50  O13 XX4 d   1     190.591   6.272  21.110  0.00  0.00    -0.287 OA
BRANCH  49  51
ATOM     51  C14 XX4 d   1     191.802   7.684  19.653  0.00  0.00     0.015 A 
ATOM     52  C15 XX4 d   1     193.071   8.051  19.097  0.00  0.00    -0.069 A 
ATOM     53  C16 XX4 d   1     193.149   9.094  18.146  0.00  0.00    -0.082 A 
ATOM     54  H11 XX4 d   1     193.970   7.529  19.405  0.00  0.00     0.085 H 
ATOM     55  C17 XX4 d   1     191.980   9.778  17.739  0.00  0.00    -0.083 A 
ATOM     56  H12 XX4 d   1     194.109   9.371  17.727  0.00  0.00     0.083 H 
ATOM     57  C18 XX4 d   1     190.725   9.427  18.279  0.00  0.00    -0.082 A 
ATOM     58  H13 XX4 d   1     192.049  10.576  17.009  0.00  0.00     0.083 H 
ATOM     59  C19 XX4 d   1     190.628   8.384  19.226  0.00  0.00    -0.069 A 
ATOM     60  H14 XX4 d   1     189.834   9.959  17.966  0.00  0.00     0.083 H 
ATOM     61  H15 XX4 d   1     189.660   8.112  19.632  0.00  0.00     0.085 H 
ENDBRANCH  49  51
ENDBRANCH   5  49
TORSDOF 8
