REMARK  10 active torsions:
REMARK  status: ('A' for Active; 'I' for Inactive)
REMARK    1  A    between atoms: C1_1  and  N2_2 
REMARK       I    between atoms: N2_2  and  C3_3 
REMARK    2  A    between atoms: N2_2  and  C33_32 
REMARK    3  A    between atoms: C3_3  and  C5_5 
REMARK    4  A    between atoms: C5_5  and  C6_6 
REMARK    5  A    between atoms: C6_6  and  C7_7 
REMARK    6  A    between atoms: C7_7  and  C9_8 
REMARK    7  A    between atoms: C7_7  and  N15_14 
REMARK    8  A    between atoms: C19_18  and  O20_19 
REMARK    9  A    between atoms: O20_19  and  C21_20 
REMARK   10  A    between atoms: C31_30  and  N32_31 
ROOT
ATOM      1  C7  3MR d   1      66.782  46.628   8.082  0.00  0.00     0.033 C 
ATOM      2  H8  3MR d   1      66.761  46.350   7.018  0.00  0.00     0.074 H 
ENDROOT
BRANCH   1   3
ATOM      3  C6  3MR d   1      68.071  46.097   8.724  0.00  0.00    -0.037 C 
ATOM      4  H6  3MR d   1      68.010  46.153   9.821  0.00  0.00     0.036 H 
ATOM      5  H7  3MR d   1      68.257  45.057   8.419  0.00  0.00     0.036 H 
BRANCH   3   6
ATOM      6  C5  3MR d   1      69.163  47.013   8.200  0.00  0.00     0.011 C 
ATOM      7  H4  3MR d   1      68.913  47.288   7.165  0.00  0.00     0.047 H 
ATOM      8  H5  3MR d   1      69.182  47.918   8.825  0.00  0.00     0.047 H 
BRANCH   6   9
ATOM      9  C3  3MR d   1      70.545  46.407   8.206  0.00  0.00     0.219 C 
ATOM     10  N2  3MR d   1      71.639  47.182   7.913  0.00  0.00    -0.352 N 
ATOM     11  O4  3MR d   1      70.676  45.220   8.469  0.00  0.00    -0.273 OA
BRANCH  10  12
ATOM     12  C1  3MR d   1      72.944  46.528   7.908  0.00  0.00    -0.016 C 
ATOM     13  H1  3MR d   1      72.817  45.454   8.109  0.00  0.00     0.056 H 
ATOM     14  H2  3MR d   1      73.581  46.974   8.686  0.00  0.00     0.056 H 
ATOM     15  H3  3MR d   1      73.418  46.663   6.925  0.00  0.00     0.056 H 
ENDBRANCH  10  12
BRANCH  10  16
ATOM     16  C33 3MR d   1      71.537  48.623   7.668  0.00  0.00     0.014 C 
ATOM     17  C34 3MR d   1      72.896  49.176   7.306  0.00  0.00    -0.046 C 
ATOM     18  C35 3MR d   1      72.713  50.673   7.322  0.00  0.00    -0.063 C 
ATOM     19  H34 3MR d   1      73.201  48.833   6.307  0.00  0.00     0.036 H 
ATOM     20  H35 3MR d   1      73.650  48.869   8.046  0.00  0.00     0.036 H 
ATOM     21  C36 3MR d   1      71.879  50.928   6.066  0.00  0.00    -0.065 C 
ATOM     22  H36 3MR d   1      73.682  51.191   7.266  0.00  0.00     0.033 H 
ATOM     23  H37 3MR d   1      72.176  50.997   8.226  0.00  0.00     0.033 H 
ATOM     24  C37 3MR d   1      70.462  50.454   6.360  0.00  0.00    -0.063 C 
ATOM     25  H38 3MR d   1      72.295  50.366   5.217  0.00  0.00     0.033 H 
ATOM     26  H39 3MR d   1      71.875  52.002   5.828  0.00  0.00     0.033 H 
ATOM     27  C38 3MR d   1      70.594  48.960   6.523  0.00  0.00    -0.046 C 
ATOM     28  H40 3MR d   1      69.789  50.697   5.524  0.00  0.00     0.033 H 
ATOM     29  H41 3MR d   1      70.081  50.914   7.284  0.00  0.00     0.033 H 
ATOM     30  H42 3MR d   1      69.603  48.531   6.734  0.00  0.00     0.036 H 
ATOM     31  H43 3MR d   1      70.989  48.529   5.591  0.00  0.00     0.036 H 
ATOM     32  H33 3MR d   1      71.173  49.108   8.586  0.00  0.00     0.072 H 
ENDBRANCH  10  16
ENDBRANCH   6   9
ENDBRANCH   3   6
ENDBRANCH   1   3
BRANCH   1  33
ATOM     33  C9  3MR d   1      65.594  46.006   8.816  0.00  0.00    -0.034 C 
ATOM     34  C10 3MR d   1      64.397  46.859   8.424  0.00  0.00    -0.060 C 
ATOM     35  C11 3MR d   1      63.095  46.350   9.018  0.00  0.00    -0.065 C 
ATOM     36  H10 3MR d   1      64.308  46.858   7.328  0.00  0.00     0.033 H 
ATOM     37  H11 3MR d   1      64.567  47.887   8.777  0.00  0.00     0.033 H 
ATOM     38  C12 3MR d   1      62.845  44.902   8.599  0.00  0.00    -0.065 C 
ATOM     39  H12 3MR d   1      62.265  46.978   8.662  0.00  0.00     0.033 H 
ATOM     40  H13 3MR d   1      63.152  46.404  10.115  0.00  0.00     0.033 H 
ATOM     41  C13 3MR d   1      64.059  44.091   9.032  0.00  0.00    -0.065 C 
ATOM     42  H14 3MR d   1      62.721  44.842   7.508  0.00  0.00     0.033 H 
ATOM     43  H15 3MR d   1      61.940  44.518   9.092  0.00  0.00     0.033 H 
ATOM     44  C14 3MR d   1      65.330  44.575   8.327  0.00  0.00    -0.060 C 
ATOM     45  H16 3MR d   1      63.891  43.033   8.782  0.00  0.00     0.033 H 
ATOM     46  H17 3MR d   1      64.190  44.195  10.119  0.00  0.00     0.033 H 
ATOM     47  H18 3MR d   1      66.178  43.924   8.587  0.00  0.00     0.033 H 
ATOM     48  H19 3MR d   1      65.183  44.569   7.237  0.00  0.00     0.033 H 
ATOM     49  H9  3MR d   1      65.757  46.014   9.904  0.00  0.00     0.043 H 
ENDBRANCH   1  33
BRANCH   1  50
ATOM     50  N15 3MR d   1      66.672  48.086   8.211  0.00  0.00    -0.207 N 
ATOM     51  C16 3MR d   1      66.423  48.563   9.571  0.00  0.00     0.038 C 
ATOM     52  C17 3MR d   1      67.396  49.695   9.837  0.00  0.00    -0.008 A 
ATOM     53  H20 3MR d   1      66.587  47.748  10.292  0.00  0.00     0.072 H 
ATOM     54  H21 3MR d   1      65.389  48.927   9.659  0.00  0.00     0.072 H 
ATOM     55  C18 3MR d   1      67.926  49.873  11.135  0.00  0.00    -0.040 A 
ATOM     56  C29 3MR d   1      67.707  50.558   8.766  0.00  0.00     0.084 A 
ATOM     57  C19 3MR d   1      68.810  50.927  11.386  0.00  0.00     0.076 A 
ATOM     58  H22 3MR d   1      67.648  49.195  11.934  0.00  0.00     0.088 H 
ATOM     59  C27 3MR d   1      69.081  51.795  10.339  0.00  0.00    -0.048 A 
ATOM     60  C28 3MR d   1      68.562  51.615   9.062  0.00  0.00    -0.051 A 
ATOM     61  H28 3MR d   1      69.724  52.648  10.524  0.00  0.00     0.087 H 
ATOM     62  H29 3MR d   1      68.830  52.315   8.278  0.00  0.00     0.087 H 
ATOM     63  N30 3MR d   1      67.208  50.336   7.474  0.00  0.00    -0.065 NA
ATOM     64  C31 3MR d   1      66.855  49.052   7.183  0.00  0.00     0.697 C 
BRANCH  57  65
ATOM     65  O20 3MR d   1      69.311  51.206  12.637  0.00  0.00    -0.311 OA
BRANCH  65  66
ATOM     66  C21 3MR d   1      70.518  50.675  12.998  0.00  0.00     0.076 A 
ATOM     67  C22 3MR d   1      71.085  49.639  12.295  0.00  0.00    -0.050 A 
ATOM     68  C23 3MR d   1      72.290  49.113  12.684  0.00  0.00    -0.080 A 
ATOM     69  H23 3MR d   1      70.576  49.235  11.427  0.00  0.00     0.087 H 
ATOM     70  C24 3MR d   1      72.964  49.618  13.785  0.00  0.00    -0.083 A 
ATOM     71  H24 3MR d   1      72.721  48.292  12.123  0.00  0.00     0.083 H 
ATOM     72  C25 3MR d   1      72.397  50.647  14.463  0.00  0.00    -0.080 A 
ATOM     73  H25 3MR d   1      73.916  49.203  14.095  0.00  0.00     0.083 H 
ATOM     74  C26 3MR d   1      71.181  51.187  14.106  0.00  0.00    -0.050 A 
ATOM     75  H26 3MR d   1      72.920  51.060  15.318  0.00  0.00     0.083 H 
ATOM     76  H27 3MR d   1      70.749  51.998  14.680  0.00  0.00     0.087 H 
ENDBRANCH  65  66
ENDBRANCH  57  65
BRANCH  64  77
ATOM     77  N32 3MR d   1      66.672  48.658   5.874  0.00  0.00    -0.233 N 
ATOM     78  H31 3MR d   1      66.405  47.686   5.661  0.00  0.00     0.174 HD
ATOM     79  H32 3MR d   1      66.802  49.336   5.109  0.00  0.00     0.174 HD
ENDBRANCH  64  77
ENDBRANCH   1  50
TORSDOF 10
