REMARK  4 active torsions:
REMARK  status: ('A' for Active; 'I' for Inactive)
REMARK    1  A    between atoms: N_1  and  CA_2 
REMARK    2  A    between atoms: CA_2  and  C_3 
REMARK    3  A    between atoms: CA_2  and  CB_5 
REMARK    4  A    between atoms: CB_5  and  CG_6 
ROOT
ATOM      1  CB  HIS d   1       4.684  -2.464   4.643  0.00  0.00     0.013 C 
ATOM      2  H   HIS d   1       4.060  -3.112   4.028  0.00  0.00     0.046 H 
ATOM      3  H   HIS d   1       5.204  -2.974   5.454  0.00  0.00     0.046 H 
ENDROOT
BRANCH   1   4
ATOM      4  CA  HIS d   1       3.753  -1.424   5.289  0.00  0.00     0.187 C 
ATOM      5  H   HIS d   1       3.105  -1.948   5.992  0.00  0.00     0.101 H 
BRANCH   4   6
ATOM      6  N   HIS d   1       2.872  -0.783   4.271  0.00  0.00    -0.065 N 
ATOM      7  H   HIS d   1       2.268  -0.100   4.728  0.00  0.00     0.275 HD
ATOM      8  H   HIS d   1       3.448  -0.315   3.571  0.00  0.00     0.275 HD
ATOM      9  H   HIS d   1       2.300  -1.497   3.820  0.00  0.00     0.275 HD
ENDBRANCH   4   6
BRANCH   4  10
ATOM     10  C   HIS d   1       4.538  -0.397   6.093  0.00  0.00     0.204 C 
ATOM     11  O   HIS d   1       5.092  -0.716   7.142  0.00  0.00    -0.646 OA
ATOM     12  OXT HIS d   1       4.620   0.777   5.726  0.00  0.00    -0.646 OA
ENDBRANCH   4  10
ENDBRANCH   1   4
BRANCH   1  13
ATOM     13  CG  HIS d   1       5.735  -1.885   3.743  0.00  0.00     0.053 A 
ATOM     14  ND1 HIS d   1       6.995  -2.432   3.630  0.00  0.00    -0.247 NA
ATOM     15  CE1 HIS d   1       7.704  -1.727   2.766  0.00  0.00     0.064 A 
ATOM     16  NE2 HIS d   1       6.949  -0.743   2.313  0.00  0.00    -0.359 N 
ATOM     17  H   HIS d   1       8.736  -1.924   2.477  0.00  0.00     0.143 H 
ATOM     18  CD2 HIS d   1       5.715  -0.816   2.911  0.00  0.00     0.002 A 
ATOM     19  H   HIS d   1       7.236  -0.042   1.630  0.00  0.00     0.166 HD
ATOM     20  H   HIS d   1       4.876  -0.140   2.747  0.00  0.00     0.114 H 
ENDBRANCH   1  13
TORSDOF 4
