REMARK  12 active torsions:
REMARK  status: ('A' for Active; 'I' for Inactive)
REMARK    1  A    between atoms: C12_3  and  S1_42 
REMARK    2  A    between atoms: C13_6  and  C26_17 
REMARK    3  A    between atoms: C23_14  and  C16_9 
REMARK    4  A    between atoms: C22_13  and  S2_44 
REMARK    5  A    between atoms: C48_21  and  C49_19 
REMARK    6  A    between atoms: C47_22  and  C48_21 
REMARK    7  A    between atoms: C33_23  and  C47_22 
REMARK    8  A    between atoms: C32_24  and  C46_25 
REMARK    9  A    between atoms: C42_32  and  C37_33 
REMARK   10  A    between atoms: C37_33  and  C38_34 
REMARK   11  A    between atoms: C38_34  and  C39_35 
REMARK   12  A    between atoms: C43_38  and  C36_39 
ROOT
ATOM      1  N1  NON d   1      26.837  -3.019   1.925  0.00  0.00    -0.247 NA
ATOM      2  C11 NON d   1      27.545  -1.880   1.758  0.00  0.00     0.084 A 
ATOM      3  C12 NON d   1      27.162  -0.982   2.751  0.00  0.00     0.117 A 
ATOM      4  C13 NON d   1      26.198  -1.610   3.521  0.00  0.00    -0.006 A 
ATOM      5  C15 NON d   1      25.157  -3.857   3.455  0.00  0.00    -0.027 C 
ATOM      6  C14 NON d   1      26.007  -2.873   2.981  0.00  0.00     0.067 A 
ATOM      7  C21 NON d   1      24.667  -4.997   2.835  0.00  0.00     0.060 A 
ATOM      8  C22 NON d   1      23.655  -5.818   3.298  0.00  0.00     0.115 A 
ATOM      9  C23 NON d   1      23.487  -6.823   2.386  0.00  0.00    -0.009 A 
ATOM     10  C24 NON d   1      24.419  -6.615   1.372  0.00  0.00     0.042 A 
ATOM     11  C25 NON d   1      24.630  -7.369   0.223  0.00  0.00    -0.028 C 
ATOM     12  C33 NON d   1      27.046  -7.588  -2.419  0.00  0.00    -0.021 A 
ATOM     13  C32 NON d   1      25.958  -8.091  -1.757  0.00  0.00    -0.025 A 
ATOM     14  C31 NON d   1      25.659  -7.246  -0.699  0.00  0.00     0.066 A 
ATOM     15  N3  NON d   1      26.562  -6.246  -0.694  0.00  0.00    -0.248 NA
ATOM     16  C34 NON d   1      27.423  -6.435  -1.722  0.00  0.00     0.066 A 
ATOM     17  C35 NON d   1      28.493  -5.595  -2.028  0.00  0.00    -0.028 C 
ATOM     18  C41 NON d   1      28.911  -4.364  -1.514  0.00  0.00     0.041 A 
ATOM     19  N4  NON d   1      28.270  -3.743  -0.511  0.00  0.00    -0.355 N 
ATOM     20  C42 NON d   1      30.006  -3.572  -1.906  0.00  0.00    -0.023 A 
ATOM     21  C43 NON d   1      29.964  -2.462  -1.081  0.00  0.00    -0.027 A 
ATOM     22  C44 NON d   1      28.889  -2.584  -0.230  0.00  0.00     0.041 A 
ATOM     23  C45 NON d   1      28.477  -1.687   0.751  0.00  0.00    -0.027 C 
ATOM     24  N2  NON d   1      25.120  -5.501   1.673  0.00  0.00    -0.354 N 
ATOM     25  H1  NON d   1      24.820  -3.714   4.475  0.00  0.00     0.090 H 
ATOM     26  H5  NON d   1      23.902  -8.147   0.024  0.00  0.00     0.090 H 
ATOM     27  H16 NON d   1      29.127  -5.971  -2.823  0.00  0.00     0.090 H 
ATOM     28  H17 NON d   1      27.432  -4.100  -0.030  0.00  0.00     0.166 HD
ATOM     29  H25 NON d   1      28.946  -0.710   0.724  0.00  0.00     0.090 H 
ATOM     30  H26 NON d   1      25.880  -5.101   1.104  0.00  0.00     0.166 HD
ENDROOT
BRANCH  12  31
ATOM     31  C47 NON d   1      27.734  -8.205  -3.642  0.00  0.00    -0.029 C 
ATOM     32  H11 NON d   1      27.050  -8.903  -4.147  0.00  0.00     0.041 H 
ATOM     33  H12 NON d   1      28.035  -7.414  -4.345  0.00  0.00     0.041 H 
BRANCH  31  34
ATOM     34  C48 NON d   1      28.964  -8.951  -3.138  0.00  0.00     0.019 C 
ATOM     35  H9  NON d   1      29.573  -8.264  -2.532  0.00  0.00     0.049 H 
ATOM     36  H10 NON d   1      28.636  -9.796  -2.515  0.00  0.00     0.049 H 
BRANCH  34  37
ATOM     37  C49 NON d   1      29.806  -9.478  -4.270  0.00  0.00     0.172 C 
ATOM     38  O41 NON d   1      29.360 -10.491  -4.848  0.00  0.00    -0.648 OA
ATOM     39  O42 NON d   1      30.884  -8.866  -4.513  0.00  0.00    -0.648 OA
ENDBRANCH  34  37
ENDBRANCH  31  34
ENDBRANCH  12  31
BRANCH  13  40
ATOM     40  C46 NON d   1      25.191  -9.371  -2.152  0.00  0.00    -0.048 C 
ATOM     41  H13 NON d   1      25.667  -9.826  -3.033  0.00  0.00     0.033 H 
ATOM     42  H14 NON d   1      24.148  -9.115  -2.390  0.00  0.00     0.033 H 
ATOM     43  H15 NON d   1      25.212 -10.084  -1.315  0.00  0.00     0.033 H 
ENDBRANCH  13  40
BRANCH  20  44
ATOM     44  C37 NON d   1      31.080  -3.832  -3.001  0.00  0.00    -0.029 C 
ATOM     45  H18 NON d   1      31.901  -4.408  -2.548  0.00  0.00     0.041 H 
ATOM     46  H19 NON d   1      31.462  -2.860  -3.346  0.00  0.00     0.041 H 
BRANCH  44  47
ATOM     47  C38 NON d   1      30.565  -4.608  -4.223  0.00  0.00     0.019 C 
ATOM     48  H20 NON d   1      29.726  -5.245  -3.906  0.00  0.00     0.049 H 
ATOM     49  H21 NON d   1      31.380  -5.239  -4.607  0.00  0.00     0.049 H 
BRANCH  47  50
ATOM     50  C39 NON d   1      30.082  -3.691  -5.354  0.00  0.00     0.172 C 
ATOM     51  O32 NON d   1      29.360  -2.716  -5.045  0.00  0.00    -0.648 OA
ATOM     52  O31 NON d   1      30.431  -4.002  -6.510  0.00  0.00    -0.648 OA
ENDBRANCH  47  50
ENDBRANCH  44  47
ENDBRANCH  20  44
BRANCH   9  53
ATOM     53  C16 NON d   1      22.465  -7.965   2.486  0.00  0.00    -0.048 C 
ATOM     54  H2  NON d   1      21.873  -7.848   3.406  0.00  0.00     0.033 H 
ATOM     55  H3  NON d   1      22.994  -8.929   2.511  0.00  0.00     0.033 H 
ATOM     56  H4  NON d   1      21.796  -7.936   1.613  0.00  0.00     0.033 H 
ENDBRANCH   9  53
BRANCH  21  57
ATOM     57  C36 NON d   1      30.941  -1.269  -1.084  0.00  0.00    -0.049 C 
ATOM     58  H22 NON d   1      31.705  -1.423  -1.860  0.00  0.00     0.033 H 
ATOM     59  H23 NON d   1      31.428  -1.191  -0.101  0.00  0.00     0.033 H 
ATOM     60  H24 NON d   1      30.387  -0.342  -1.293  0.00  0.00     0.033 H 
ENDBRANCH  21  57
BRANCH   8  61
ATOM     61  S2  NON d   1      22.730  -5.577   4.788  0.00  0.00     0.140 S 
ATOM     62  O4  NON d   1      23.362  -4.513   5.645  0.00  0.00    -0.591 OA
ATOM     63  O5  NON d   1      22.661  -6.857   5.576  0.00  0.00    -0.591 OA
ATOM     64  O6  NON d   1      21.354  -5.149   4.419  0.00  0.00    -0.591 OA
ENDBRANCH   8  61
BRANCH   3  65
ATOM     65  S1  NON d   1      27.791   0.656   2.952  0.00  0.00     0.140 S 
ATOM     66  O1  NON d   1      27.693   1.398   1.655  0.00  0.00    -0.591 OA
ATOM     67  O2  NON d   1      29.226   0.638   3.386  0.00  0.00    -0.591 OA
ATOM     68  O3  NON d   1      26.980   1.379   3.994  0.00  0.00    -0.591 OA
ENDBRANCH   3  65
BRANCH   4  69
ATOM     69  C26 NON d   1      25.448  -1.043   4.747  0.00  0.00    -0.047 C 
ATOM     70  H6  NON d   1      25.800  -0.021   4.952  0.00  0.00     0.033 H 
ATOM     71  H7  NON d   1      25.642  -1.680   5.622  0.00  0.00     0.033 H 
ATOM     72  H8  NON d   1      24.368  -1.024   4.540  0.00  0.00     0.033 H 
ENDBRANCH   4  69
TORSDOF 12
