REMARK  8 active torsions:
REMARK  status: ('A' for Active; 'I' for Inactive)
REMARK    1  A    between atoms: C8_9  and  C20_13 
REMARK    2  A    between atoms: C14_10  and  C18_12 
REMARK    3  A    between atoms: C14_10  and  C10_24 
REMARK    4  A    between atoms: C20_13  and  C9_14 
REMARK    5  A    between atoms: C10_24  and  C11_25 
REMARK    6  A    between atoms: C11_25  and  C12_26 
REMARK    7  A    between atoms: C12_26  and  N3_27 
REMARK       I    between atoms: N1_32  and  C22_33 
REMARK    8  A    between atoms: C22_33  and  C24_34 
ROOT
ATOM      1  C1  MKR d   1      21.900  16.517 106.124  0.00  0.00     0.118 A 
ATOM      2  C2  MKR d   1      20.663  16.684 106.845  0.00  0.00    -0.016 A 
ATOM      3  C3  MKR d   1      20.315  15.536 107.656  0.00  0.00     0.089 A 
ATOM      4  C4  MKR d   1      21.140  14.393 107.685  0.00  0.00     0.097 A 
ATOM      5  C5  MKR d   1      22.314  14.246 106.998  0.00  0.00    -0.046 A 
ATOM      6  C6  MKR d   1      22.675  15.354 106.170  0.00  0.00    -0.043 A 
ATOM      7  N2  MKR d   1      19.117  15.452 108.427  0.00  0.00    -0.263 N 
ATOM      8  N12 MKR d   1      18.579  16.433 109.010  0.00  0.00    -0.200 NA
ATOM      9  C8  MKR d   1      17.614  16.184 109.889  0.00  0.00     0.121 A 
ATOM     10  C14 MKR d   1      17.454  14.595 109.921  0.00  0.00     0.042 A 
ATOM     11  C15 MKR d   1      18.470  14.197 108.809  0.00  0.00     0.069 A 
ATOM     12  O1  MKR d   1      20.756  13.288 108.421  0.00  0.00    -0.347 OA
ATOM     13  F1  MKR d   1      22.389  17.502 105.388  0.00  0.00    -0.206 F 
ATOM     14  C7  MKR d   1      19.632  13.338 109.268  0.00  0.00     0.048 C 
ATOM     15  H1  MKR d   1      20.054  17.579 106.786  0.00  0.00     0.091 H 
ATOM     16  H2  MKR d   1      22.926  13.354 107.076  0.00  0.00     0.088 H 
ATOM     17  H3  MKR d   1      23.571  15.291 105.563  0.00  0.00     0.088 H 
ATOM     18  H4  MKR d   1      16.830  16.268 109.123  0.00  0.00     0.092 H 
ATOM     19  H5  MKR d   1      17.945  13.717 107.970  0.00  0.00     0.081 H 
ATOM     20  H14 MKR d   1      19.259  12.310 109.388  0.00  0.00     0.078 H 
ATOM     21  H15 MKR d   1      19.966  13.723 110.243  0.00  0.00     0.078 H 
ENDROOT
BRANCH  10  22
ATOM     22  C18 MKR d   1      17.641  14.066 111.353  0.00  0.00    -0.045 A 
ATOM     23  C26 MKR d   1      18.661  14.687 112.134  0.00  0.00    -0.076 A 
ATOM     24  C27 MKR d   1      18.997  14.345 113.474  0.00  0.00    -0.082 A 
ATOM     25  H9  MKR d   1      19.227  15.486 111.668  0.00  0.00     0.084 H 
ATOM     26  C28 MKR d   1      18.215  13.329 114.009  0.00  0.00    -0.083 A 
ATOM     27  H10 MKR d   1      19.791  14.833 114.027  0.00  0.00     0.083 H 
ATOM     28  C29 MKR d   1      17.174  12.665 113.294  0.00  0.00    -0.082 A 
ATOM     29  H11 MKR d   1      18.407  13.022 115.031  0.00  0.00     0.083 H 
ATOM     30  C30 MKR d   1      16.890  13.059 111.924  0.00  0.00    -0.076 A 
ATOM     31  H12 MKR d   1      16.601  11.876 113.767  0.00  0.00     0.083 H 
ATOM     32  H13 MKR d   1      16.103  12.571 111.361  0.00  0.00     0.084 H 
ENDBRANCH  10  22
BRANCH  10  33
ATOM     33  C10 MKR d   1      16.012  14.364 109.464  0.00  0.00    -0.048 C 
ATOM     34  H16 MKR d   1      15.422  15.199 109.870  0.00  0.00     0.034 H 
ATOM     35  H17 MKR d   1      15.687  13.424 109.933  0.00  0.00     0.034 H 
BRANCH  33  36
ATOM     36  C11 MKR d   1      15.641  14.256 107.987  0.00  0.00    -0.041 C 
ATOM     37  H18 MKR d   1      15.472  13.200 107.731  0.00  0.00     0.035 H 
ATOM     38  H19 MKR d   1      16.463  14.655 107.375  0.00  0.00     0.035 H 
BRANCH  36  39
ATOM     39  C12 MKR d   1      14.328  15.080 107.697  0.00  0.00     0.084 C 
ATOM     40  H20 MKR d   1      14.499  16.121 108.010  0.00  0.00     0.076 H 
ATOM     41  H21 MKR d   1      13.511  14.647 108.294  0.00  0.00     0.076 H 
BRANCH  39  42
ATOM     42  N3  MKR d   1      13.908  15.086 106.269  0.00  0.00    -0.068 N 
ATOM     43  C16 MKR d   1      13.975  16.367 105.564  0.00  0.00     0.098 C 
ATOM     44  C19 MKR d   1      12.521  16.897 105.760  0.00  0.00     0.020 C 
ATOM     45  H23 MKR d   1      14.214  16.229 104.499  0.00  0.00     0.078 H 
ATOM     46  H24 MKR d   1      14.715  17.041 106.021  0.00  0.00     0.078 H 
ATOM     47  N1  MKR d   1      11.440  15.863 105.384  0.00  0.00    -0.349 N 
ATOM     48  H27 MKR d   1      12.386  17.788 105.130  0.00  0.00     0.066 H 
ATOM     49  H28 MKR d   1      12.389  17.172 106.817  0.00  0.00     0.066 H 
ATOM     50  C21 MKR d   1      11.650  14.380 105.682  0.00  0.00     0.020 C 
ATOM     51  C22 MKR d   1      10.315  16.348 104.804  0.00  0.00     0.215 C 
ATOM     52  C17 MKR d   1      13.172  14.016 105.624  0.00  0.00     0.098 C 
ATOM     53  H29 MKR d   1      11.262  14.155 106.686  0.00  0.00     0.066 H 
ATOM     54  H30 MKR d   1      11.106  13.781 104.936  0.00  0.00     0.066 H 
ATOM     55  H25 MKR d   1      13.350  13.068 106.152  0.00  0.00     0.078 H 
ATOM     56  H26 MKR d   1      13.494  13.919 104.577  0.00  0.00     0.078 H 
ATOM     57  O2  MKR d   1       9.987  17.529 104.946  0.00  0.00    -0.274 OA
ATOM     58  H22 MKR d   1      14.801  14.755 105.939  0.00  0.00     0.280 HD
BRANCH  51  59
ATOM     59  C24 MKR d   1       9.602  15.239 103.950  0.00  0.00    -0.003 C 
ATOM     60  H31 MKR d   1       8.694  15.657 103.491  0.00  0.00     0.040 H 
ATOM     61  H32 MKR d   1       9.329  14.395 104.600  0.00  0.00     0.040 H 
ATOM     62  H33 MKR d   1      10.284  14.889 103.161  0.00  0.00     0.040 H 
ENDBRANCH  51  59
ENDBRANCH  39  42
ENDBRANCH  36  39
ENDBRANCH  33  36
ENDBRANCH  10  33
BRANCH   9  63
ATOM     63  C20 MKR d   1      16.873  17.266 110.674  0.00  0.00     0.150 C 
ATOM     64  O25 MKR d   1      15.792  17.040 111.244  0.00  0.00    -0.296 OA
BRANCH  63  65
ATOM     65  C9  MKR d   1      17.473  18.626 110.672  0.00  0.00    -0.019 C 
ATOM     66  H6  MKR d   1      16.846  19.304 111.269  0.00  0.00     0.037 H 
ATOM     67  H7  MKR d   1      17.535  18.998 109.639  0.00  0.00     0.037 H 
ATOM     68  H8  MKR d   1      18.483  18.582 111.107  0.00  0.00     0.037 H 
ENDBRANCH  63  65
ENDBRANCH   9  63
TORSDOF 8
