REMARK  10 active torsions:
REMARK  status: ('A' for Active; 'I' for Inactive)
REMARK    1  A    between atoms: C1_1  and  C10_22 
REMARK    2  A    between atoms: C3_3  and  N4_7 
REMARK    3  A    between atoms: C24_9  and  C29_18 
REMARK    4  A    between atoms: C13_10  and  C17_12 
REMARK    5  A    between atoms: C13_10  and  C7_23 
REMARK    6  A    between atoms: C29_18  and  C9_19 
REMARK    7  A    between atoms: C7_23  and  C8_24 
REMARK    8  A    between atoms: C8_24  and  C11_25 
REMARK    9  A    between atoms: C11_25  and  N2_26 
REMARK       I    between atoms: N3_31  and  C25_32 
REMARK   10  A    between atoms: C25_32  and  C26_33 
ROOT
ATOM      1  N4  MKK d   1      19.803  14.960 109.591  0.00  0.00    -0.270 N 
ATOM      2  N1  MKK d   1      19.237  15.994 110.113  0.00  0.00    -0.201 NA
ATOM      3  C24 MKK d   1      18.190  15.920 110.911  0.00  0.00     0.120 C 
ATOM      4  C13 MKK d   1      17.936  14.453 110.963  0.00  0.00     0.036 C 
ATOM      5  C14 MKK d   1      19.220  13.863 110.310  0.00  0.00     0.030 C 
ATOM      6  H4  MKK d   1      18.799  15.874 111.826  0.00  0.00     0.092 H 
ATOM      7  H5  MKK d   1      19.912  13.493 111.081  0.00  0.00     0.069 H 
ATOM      8  H6  MKK d   1      18.964  13.042 109.624  0.00  0.00     0.069 H 
ENDROOT
BRANCH   4   9
ATOM      9  C17 MKK d   1      18.044  13.918 112.378  0.00  0.00    -0.045 A 
ATOM     10  C19 MKK d   1      17.078  12.940 112.825  0.00  0.00    -0.076 A 
ATOM     11  C20 MKK d   1      17.243  12.451 114.190  0.00  0.00    -0.082 A 
ATOM     12  H7  MKK d   1      16.277  12.590 112.183  0.00  0.00     0.084 H 
ATOM     13  C21 MKK d   1      18.370  13.005 115.034  0.00  0.00    -0.083 A 
ATOM     14  H8  MKK d   1      16.569  11.703 114.593  0.00  0.00     0.083 H 
ATOM     15  C22 MKK d   1      19.371  13.987 114.617  0.00  0.00    -0.082 A 
ATOM     16  H9  MKK d   1      18.443  12.637 116.051  0.00  0.00     0.083 H 
ATOM     17  C23 MKK d   1      19.140  14.412 113.251  0.00  0.00    -0.076 A 
ATOM     18  H10 MKK d   1      20.177  14.348 115.245  0.00  0.00     0.083 H 
ATOM     19  H11 MKK d   1      19.819  15.147 112.834  0.00  0.00     0.084 H 
ENDBRANCH   4   9
BRANCH   4  20
ATOM     20  C7  MKK d   1      16.619  14.223 110.131  0.00  0.00    -0.049 C 
ATOM     21  H18 MKK d   1      15.758  14.519 110.748  0.00  0.00     0.034 H 
ATOM     22  H19 MKK d   1      16.543  13.154 109.883  0.00  0.00     0.034 H 
BRANCH  20  23
ATOM     23  C8  MKK d   1      16.588  15.011 108.860  0.00  0.00    -0.041 C 
ATOM     24  H20 MKK d   1      17.389  14.628 108.210  0.00  0.00     0.035 H 
ATOM     25  H21 MKK d   1      16.792  16.062 109.113  0.00  0.00     0.035 H 
BRANCH  23  26
ATOM     26  C11 MKK d   1      15.264  14.969 108.052  0.00  0.00     0.084 C 
ATOM     27  H22 MKK d   1      14.791  15.962 108.058  0.00  0.00     0.076 H 
ATOM     28  H23 MKK d   1      14.578  14.233 108.496  0.00  0.00     0.076 H 
BRANCH  26  29
ATOM     29  N2  MKK d   1      15.604  14.562 106.614  0.00  0.00    -0.068 N 
ATOM     30  C12 MKK d   1      14.641  13.454 106.196  0.00  0.00     0.098 C 
ATOM     31  C18 MKK d   1      13.246  14.204 106.305  0.00  0.00     0.020 C 
ATOM     32  H25 MKK d   1      14.692  12.595 106.882  0.00  0.00     0.078 H 
ATOM     33  H26 MKK d   1      14.838  13.115 105.168  0.00  0.00     0.078 H 
ATOM     34  N3  MKK d   1      13.275  15.175 105.160  0.00  0.00    -0.349 N 
ATOM     35  H31 MKK d   1      13.159  14.733 107.266  0.00  0.00     0.066 H 
ATOM     36  H32 MKK d   1      12.411  13.496 106.198  0.00  0.00     0.066 H 
ATOM     37  C16 MKK d   1      14.299  16.319 105.389  0.00  0.00     0.020 C 
ATOM     38  C25 MKK d   1      12.395  14.875 104.009  0.00  0.00     0.215 C 
ATOM     39  C15 MKK d   1      15.716  15.732 105.652  0.00  0.00     0.098 C 
ATOM     40  H29 MKK d   1      14.332  16.960 104.496  0.00  0.00     0.066 H 
ATOM     41  H30 MKK d   1      13.987  16.916 106.258  0.00  0.00     0.066 H 
ATOM     42  H27 MKK d   1      16.153  15.387 104.703  0.00  0.00     0.078 H 
ATOM     43  H28 MKK d   1      16.360  16.509 106.091  0.00  0.00     0.078 H 
ATOM     44  O1  MKK d   1      12.295  15.530 102.964  0.00  0.00    -0.274 OA
ATOM     45  H24 MKK d   1      16.523  14.148 106.638  0.00  0.00     0.280 HD
BRANCH  38  46
ATOM     46  C26 MKK d   1      11.465  13.643 104.116  0.00  0.00    -0.003 C 
ATOM     47  H33 MKK d   1      10.875  13.547 103.192  0.00  0.00     0.040 H 
ATOM     48  H34 MKK d   1      10.787  13.769 104.973  0.00  0.00     0.040 H 
ATOM     49  H35 MKK d   1      12.072  12.737 104.259  0.00  0.00     0.040 H 
ENDBRANCH  38  46
ENDBRANCH  26  29
ENDBRANCH  23  26
ENDBRANCH  20  23
ENDBRANCH   4  20
BRANCH   3  50
ATOM     50  C29 MKK d   1      17.502  17.151 111.514  0.00  0.00     0.150 C 
ATOM     51  O39 MKK d   1      16.460  17.155 112.232  0.00  0.00    -0.296 OA
BRANCH  50  52
ATOM     52  C9  MKK d   1      18.235  18.494 111.157  0.00  0.00    -0.019 C 
ATOM     53  H12 MKK d   1      17.698  19.338 111.615  0.00  0.00     0.037 H 
ATOM     54  H13 MKK d   1      18.255  18.622 110.065  0.00  0.00     0.037 H 
ATOM     55  H14 MKK d   1      19.265  18.463 111.541  0.00  0.00     0.037 H 
ENDBRANCH  50  52
ENDBRANCH   3  50
BRANCH   1  56
ATOM     56  C3  MKK d   1      20.855  15.004 108.645  0.00  0.00     0.091 A 
ATOM     57  C2  MKK d   1      20.894  16.258 107.781  0.00  0.00    -0.047 A 
ATOM     58  C1  MKK d   1      21.939  16.378 106.801  0.00  0.00    -0.060 A 
ATOM     59  H1  MKK d   1      20.153  17.040 107.902  0.00  0.00     0.088 H 
ATOM     60  C6  MKK d   1      22.871  15.287 106.701  0.00  0.00    -0.074 A 
ATOM     61  C5  MKK d   1      22.853  14.098 107.525  0.00  0.00    -0.043 A 
ATOM     62  H3  MKK d   1      23.648  15.362 105.949  0.00  0.00     0.084 H 
ATOM     63  C4  MKK d   1      21.796  14.051 108.412  0.00  0.00     0.144 A 
ATOM     64  H2  MKK d   1      23.600  13.316 107.453  0.00  0.00     0.088 H 
ATOM     65  F40 MKK d   1      21.789  12.959 109.078  0.00  0.00    -0.204 F 
BRANCH  58  66
ATOM     66  C10 MKK d   1      22.193  17.478 105.902  0.00  0.00    -0.051 C 
ATOM     67  H15 MKK d   1      21.432  18.258 106.053  0.00  0.00     0.033 H 
ATOM     68  H16 MKK d   1      22.150  17.120 104.863  0.00  0.00     0.033 H 
ATOM     69  H17 MKK d   1      23.191  17.895 106.105  0.00  0.00     0.033 H 
ENDBRANCH  58  66
ENDBRANCH   1  56
TORSDOF 10
