REMARK  14 active torsions:
REMARK  status: ('A' for Active; 'I' for Inactive)
REMARK    1  A    between atoms: N1_1  and  C10_7 
REMARK    2  A    between atoms: C5_3  and  C9_17 
REMARK    3  A    between atoms: C10_7  and  C12_28 
REMARK    4  A    between atoms: C10_7  and  C11_29 
REMARK    5  A    between atoms: N15_32  and  C17_10 
REMARK    6  A    between atoms: C20_11  and  C21_12 
REMARK    7  A    between atoms: C19_21  and  C20_11 
REMARK    8  A    between atoms: C21_12  and  C22_13 
REMARK    9  A    between atoms: C21_12  and  O33_22 
REMARK   10  A    between atoms: C22_13  and  C23_23 
REMARK   11  A    between atoms: C23_23  and  C24_14 
REMARK   12  A    between atoms: C24_14  and  C25_25 
REMARK   13  A    between atoms: C3_20  and  C19_21 
REMARK   14  A    between atoms: C23_23  and  O34_24 
ROOT
ATOM      1  N1  HR2 d   1      32.580  -7.589  -2.838  0.00  0.00    -0.341 N 
ATOM      2  C4  HR2 d   1      34.253  -8.971  -3.472  0.00  0.00    -0.013 A 
ATOM      3  C5  HR2 d   1      34.739  -7.830  -2.875  0.00  0.00     0.006 A 
ATOM      4  C6  HR2 d   1      34.974 -10.161  -4.057  0.00  0.00    -0.036 C 
ATOM      5  C13 HR2 d   1      31.997  -9.829  -3.999  0.00  0.00     0.275 C 
ATOM      6  C3  HR2 d   1      33.728  -6.974  -2.485  0.00  0.00     0.024 A 
ATOM      7  C2  HR2 d   1      34.762 -10.203  -5.575  0.00  0.00    -0.046 C 
ATOM      8  C16 HR2 d   1      33.348  -9.874  -6.074  0.00  0.00     0.004 C 
ATOM      9  N15 HR2 d   1      32.357 -10.419  -5.147  0.00  0.00    -0.313 N 
ATOM     10  O14 HR2 d   1      31.144 -10.301  -3.264  0.00  0.00    -0.265 OA
ATOM     11  C1  HR2 d   1      32.881  -8.770  -3.428  0.00  0.00     0.111 A 
ATOM     12  H1  HR2 d   1      34.579 -11.084  -3.608  0.00  0.00     0.040 H 
ATOM     13  H2  HR2 d   1      36.049 -10.079  -3.841  0.00  0.00     0.040 H 
ATOM     14  H27 HR2 d   1      35.012 -11.217  -5.920  0.00  0.00     0.035 H 
ATOM     15  H28 HR2 d   1      35.455  -9.480  -6.030  0.00  0.00     0.035 H 
ATOM     16  H29 HR2 d   1      33.200 -10.318  -7.070  0.00  0.00     0.065 H 
ATOM     17  H30 HR2 d   1      33.228  -8.782  -6.137  0.00  0.00     0.065 H 
ENDROOT
BRANCH   6  18
ATOM     18  C19 HR2 d   1      33.878  -5.635  -1.798  0.00  0.00    -0.023 C 
ATOM     19  H16 HR2 d   1      34.933  -5.325  -1.815  0.00  0.00     0.042 H 
ATOM     20  H17 HR2 d   1      33.266  -4.882  -2.316  0.00  0.00     0.042 H 
BRANCH  18  21
ATOM     21  C20 HR2 d   1      33.408  -5.776  -0.359  0.00  0.00    -0.036 C 
ATOM     22  H6  HR2 d   1      32.354  -6.092  -0.355  0.00  0.00     0.037 H 
ATOM     23  H7  HR2 d   1      34.021  -6.537   0.146  0.00  0.00     0.037 H 
BRANCH  21  24
ATOM     24  C21 HR2 d   1      33.534  -4.457   0.394  0.00  0.00     0.038 C 
ATOM     25  H8  HR2 d   1      34.452  -3.940   0.078  0.00  0.00     0.083 H 
BRANCH  24  26
ATOM     26  C22 HR2 d   1      33.586  -4.722   1.895  0.00  0.00    -0.017 C 
ATOM     27  H9  HR2 d   1      32.785  -5.428   2.161  0.00  0.00     0.040 H 
ATOM     28  H10 HR2 d   1      33.431  -3.774   2.430  0.00  0.00     0.040 H 
BRANCH  26  29
ATOM     29  C23 HR2 d   1      34.924  -5.313   2.314  0.00  0.00     0.047 C 
ATOM     30  H19 HR2 d   1      35.065  -6.281   1.812  0.00  0.00     0.083 H 
BRANCH  29  31
ATOM     31  C24 HR2 d   1      34.942  -5.524   3.821  0.00  0.00     0.039 C 
ATOM     32  H11 HR2 d   1      34.009  -6.012   4.138  0.00  0.00     0.052 H 
ATOM     33  H12 HR2 d   1      35.039  -4.554   4.330  0.00  0.00     0.052 H 
BRANCH  31  34
ATOM     34  C25 HR2 d   1      36.118  -6.401   4.171  0.00  0.00     0.175 C 
ATOM     35  O27 HR2 d   1      36.127  -7.682   3.805  0.00  0.00    -0.648 OA
ATOM     36  O26 HR2 d   1      37.065  -5.934   4.778  0.00  0.00    -0.648 OA
ENDBRANCH  31  34
ENDBRANCH  29  31
BRANCH  29  37
ATOM     37  O34 HR2 d   1      35.969  -4.438   1.938  0.00  0.00    -0.395 OA
ATOM     38  H20 HR2 d   1      35.852  -3.602   2.373  0.00  0.00     0.210 HD
ENDBRANCH  29  37
ENDBRANCH  26  29
ENDBRANCH  24  26
BRANCH  24  39
ATOM     39  O33 HR2 d   1      32.408  -3.645   0.113  0.00  0.00    -0.395 OA
ATOM     40  H18 HR2 d   1      32.367  -3.474  -0.821  0.00  0.00     0.210 HD
ENDBRANCH  24  39
ENDBRANCH  21  24
ENDBRANCH  18  21
ENDBRANCH   6  18
BRANCH   1  41
ATOM     41  C10 HR2 d   1      31.211  -7.030  -2.618  0.00  0.00     0.010 C 
ATOM     42  H4  HR2 d   1      31.315  -6.000  -2.246  0.00  0.00     0.072 H 
BRANCH  41  43
ATOM     43  C12 HR2 d   1      30.468  -6.974  -3.947  0.00  0.00    -0.057 C 
ATOM     44  H21 HR2 d   1      29.460  -6.563  -3.787  0.00  0.00     0.030 H 
ATOM     45  H22 HR2 d   1      30.388  -7.988  -4.365  0.00  0.00     0.030 H 
ATOM     46  H23 HR2 d   1      31.019  -6.330  -4.649  0.00  0.00     0.030 H 
ENDBRANCH  41  43
BRANCH  41  47
ATOM     47  C11 HR2 d   1      30.461  -7.830  -1.554  0.00  0.00    -0.057 C 
ATOM     48  H24 HR2 d   1      29.459  -7.400  -1.411  0.00  0.00     0.030 H 
ATOM     49  H25 HR2 d   1      31.016  -7.790  -0.605  0.00  0.00     0.030 H 
ATOM     50  H26 HR2 d   1      30.368  -8.876  -1.880  0.00  0.00     0.030 H 
ENDBRANCH  41  47
ENDBRANCH   1  41
BRANCH   3  51
ATOM     51  C9  HR2 d   1      36.184  -7.532  -2.663  0.00  0.00    -0.023 A 
ATOM     52  C8  HR2 d   1      37.001  -7.227  -3.746  0.00  0.00    -0.069 A 
ATOM     53  C15 HR2 d   1      38.349  -6.941  -3.542  0.00  0.00    -0.045 A 
ATOM     54  H3  HR2 d   1      36.589  -7.212  -4.749  0.00  0.00     0.085 H 
ATOM     55  C7  HR2 d   1      38.884  -6.957  -2.259  0.00  0.00     0.116 A 
ATOM     56  H5  HR2 d   1      38.984  -6.705  -4.388  0.00  0.00     0.088 H 
ATOM     57  F1  HR2 d   1      40.188  -6.677  -2.084  0.00  0.00    -0.206 F 
ATOM     58  C18 HR2 d   1      38.068  -7.259  -1.170  0.00  0.00    -0.045 A 
ATOM     59  C14 HR2 d   1      36.716  -7.544  -1.373  0.00  0.00    -0.069 A 
ATOM     60  H15 HR2 d   1      38.482  -7.273  -0.168  0.00  0.00     0.088 H 
ATOM     61  H14 HR2 d   1      36.079  -7.775  -0.527  0.00  0.00     0.085 H 
ENDBRANCH   3  51
BRANCH   9  62
ATOM     62  C17 HR2 d   1      31.707 -11.561  -5.521  0.00  0.00     0.037 A 
ATOM     63  C28 HR2 d   1      30.385 -11.513  -5.967  0.00  0.00    -0.057 A 
ATOM     64  C29 HR2 d   1      29.720 -12.679  -6.344  0.00  0.00    -0.081 A 
ATOM     65  H13 HR2 d   1      29.871 -10.560  -6.021  0.00  0.00     0.086 H 
ATOM     66  C30 HR2 d   1      30.379 -13.903  -6.284  0.00  0.00    -0.083 A 
ATOM     67  H31 HR2 d   1      28.692 -12.632  -6.683  0.00  0.00     0.083 H 
ATOM     68  C31 HR2 d   1      31.701 -13.955  -5.846  0.00  0.00    -0.081 A 
ATOM     69  H32 HR2 d   1      29.866 -14.812  -6.577  0.00  0.00     0.083 H 
ATOM     70  C32 HR2 d   1      32.368 -12.789  -5.468  0.00  0.00    -0.057 A 
ATOM     71  H33 HR2 d   1      32.215 -14.908  -5.799  0.00  0.00     0.083 H 
ATOM     72  H34 HR2 d   1      33.398 -12.837  -5.134  0.00  0.00     0.086 H 
ENDBRANCH   9  62
TORSDOF 14
