REMARK  14 active torsions:
REMARK  status: ('A' for Active; 'I' for Inactive)
REMARK    1  A    between atoms: N1_1  and  C6_4 
REMARK    2  A    between atoms: C5_3  and  C27_29 
REMARK    3  A    between atoms: C6_4  and  C13_8 
REMARK    4  A    between atoms: C6_4  and  C14_20 
REMARK    5  A    between atoms: C7_5  and  C8_6 
REMARK    6  A    between atoms: C12_33  and  C7_5 
REMARK    7  A    between atoms: C8_6  and  C9_34 
REMARK    8  A    between atoms: C9_34  and  C10_7 
REMARK    9  A    between atoms: C10_7  and  C11_36 
REMARK   10  A    between atoms: N2_26  and  C20_11 
REMARK   11  A    between atoms: C9_34  and  O4_35 
REMARK   12  A    between atoms: C11_36  and  O3_37 
REMARK   13  A    between atoms: C11_36  and  C35_38 
REMARK   14  A    between atoms: C35_38  and  C36_39 
ROOT
ATOM      1  N1  NON d   1      98.979  -9.098  16.700  0.00  0.00    -0.340 N 
ATOM      2  C5  NON d   1      98.783  -8.317  18.875  0.00  0.00     0.011 A 
ATOM      3  C22 NON d   1     100.731 -10.631  22.326  0.00  0.00    -0.082 A 
ATOM      4  C28 NON d   1     101.431 -11.777  21.982  0.00  0.00    -0.081 A 
ATOM      5  O1  NON d   1     100.515 -11.586  16.155  0.00  0.00    -0.265 OA
ATOM      6  C3  NON d   1     100.390 -11.148  17.318  0.00  0.00     0.280 A 
ATOM      7  C2  NON d   1      99.654  -9.973  17.501  0.00  0.00     0.116 A 
ATOM      8  C1  NON d   1      99.560  -9.547  18.897  0.00  0.00     0.022 A 
ATOM      9  C31 NON d   1     100.203 -10.297  20.001  0.00  0.00     0.005 A 
ATOM     10  C25 NON d   1     100.114  -9.888  21.331  0.00  0.00    -0.070 A 
ATOM     11  C16 NON d   1     100.901 -11.447  19.639  0.00  0.00     0.054 A 
ATOM     12  C19 NON d   1     101.520 -12.186  20.657  0.00  0.00    -0.056 A 
ATOM     13  N2  NON d   1     100.971 -11.832  18.335  0.00  0.00    -0.276 N 
ATOM     14  C12 NON d   1      98.412  -8.094  17.455  0.00  0.00     0.025 A 
ATOM     15  H15 NON d   1     100.667 -10.319  23.362  0.00  0.00     0.083 H 
ATOM     16  H18 NON d   1     101.915 -12.361  22.756  0.00  0.00     0.083 H 
ATOM     17  H22 NON d   1      99.563  -8.990  21.587  0.00  0.00     0.084 H 
ATOM     18  H23 NON d   1     102.073 -13.085  20.408  0.00  0.00     0.087 H 
ENDROOT
BRANCH  14  19
ATOM     19  C7  NON d   1      97.616  -6.904  16.991  0.00  0.00    -0.023 C 
ATOM     20  H3  NON d   1      97.794  -6.076  17.692  0.00  0.00     0.042 H 
ATOM     21  H4  NON d   1      97.973  -6.620  15.990  0.00  0.00     0.042 H 
BRANCH  19  22
ATOM     22  C8  NON d   1      96.128  -7.146  16.912  0.00  0.00    -0.036 C 
ATOM     23  H5  NON d   1      95.767  -7.590  17.852  0.00  0.00     0.037 H 
ATOM     24  H6  NON d   1      95.899  -7.822  16.075  0.00  0.00     0.037 H 
BRANCH  22  25
ATOM     25  C9  NON d   1      95.468  -5.790  16.685  0.00  0.00     0.038 C 
ATOM     26  H27 NON d   1      95.905  -5.051  17.372  0.00  0.00     0.083 H 
BRANCH  25  27
ATOM     27  C10 NON d   1      93.980  -5.901  16.952  0.00  0.00    -0.017 C 
ATOM     28  H7  NON d   1      93.604  -6.833  16.506  0.00  0.00     0.040 H 
ATOM     29  H8  NON d   1      93.468  -5.042  16.493  0.00  0.00     0.040 H 
BRANCH  27  30
ATOM     30  C11 NON d   1      93.688  -5.913  18.449  0.00  0.00     0.047 C 
ATOM     31  H29 NON d   1      94.297  -6.691  18.933  0.00  0.00     0.083 H 
BRANCH  30  32
ATOM     32  O3  NON d   1      94.002  -4.655  19.029  0.00  0.00    -0.395 OA
ATOM     33  H30 NON d   1      93.477  -3.978  18.618  0.00  0.00     0.210 HD
ENDBRANCH  30  32
BRANCH  30  34
ATOM     34  C35 NON d   1      92.216  -6.233  18.644  0.00  0.00     0.039 C 
ATOM     35  H31 NON d   1      91.940  -7.092  18.014  0.00  0.00     0.052 H 
ATOM     36  H32 NON d   1      91.610  -5.360  18.360  0.00  0.00     0.052 H 
BRANCH  34  37
ATOM     37  C36 NON d   1      91.966  -6.569  20.089  0.00  0.00     0.175 C 
ATOM     38  O7  NON d   1      91.372  -5.720  20.785  0.00  0.00    -0.648 OA
ATOM     39  O6  NON d   1      92.363  -7.676  20.521  0.00  0.00    -0.648 OA
ENDBRANCH  34  37
ENDBRANCH  30  34
ENDBRANCH  27  30
ENDBRANCH  25  27
BRANCH  25  40
ATOM     40  O4  NON d   1      95.700  -5.379  15.346  0.00  0.00    -0.395 OA
ATOM     41  H28 NON d   1      96.635  -5.314  15.194  0.00  0.00     0.210 HD
ENDBRANCH  25  40
ENDBRANCH  22  25
ENDBRANCH  19  22
ENDBRANCH  14  19
BRANCH   1  42
ATOM     42  C6  NON d   1      98.875  -9.260  15.214  0.00  0.00     0.010 C 
ATOM     43  H2  NON d   1      99.551 -10.079  14.927  0.00  0.00     0.072 H 
BRANCH  42  44
ATOM     44  C13 NON d   1      99.340  -8.022  14.452  0.00  0.00    -0.057 C 
ATOM     45  H9  NON d   1      99.241  -8.198  13.371  0.00  0.00     0.030 H 
ATOM     46  H10 NON d   1     100.393  -7.816  14.695  0.00  0.00     0.030 H 
ATOM     47  H11 NON d   1      98.721  -7.160  14.741  0.00  0.00     0.030 H 
ENDBRANCH  42  44
BRANCH  42  48
ATOM     48  C14 NON d   1      97.455  -9.691  14.839  0.00  0.00    -0.057 C 
ATOM     49  H19 NON d   1      97.384  -9.809  13.748  0.00  0.00     0.030 H 
ATOM     50  H20 NON d   1      96.739  -8.925  15.173  0.00  0.00     0.030 H 
ATOM     51  H21 NON d   1      97.222 -10.649  15.327  0.00  0.00     0.030 H 
ENDBRANCH  42  48
ENDBRANCH   1  42
BRANCH   2  52
ATOM     52  C27 NON d   1      98.363  -7.492  20.046  0.00  0.00    -0.023 A 
ATOM     53  C21 NON d   1      97.052  -7.644  20.498  0.00  0.00    -0.069 A 
ATOM     54  C24 NON d   1      96.588  -6.920  21.589  0.00  0.00    -0.045 A 
ATOM     55  H14 NON d   1      96.388  -8.335  19.992  0.00  0.00     0.085 H 
ATOM     56  C30 NON d   1      97.442  -6.042  22.245  0.00  0.00     0.116 A 
ATOM     57  H16 NON d   1      95.565  -7.039  21.927  0.00  0.00     0.088 H 
ATOM     58  C15 NON d   1      98.757  -5.887  21.802  0.00  0.00    -0.045 A 
ATOM     59  F1  NON d   1      96.980  -5.345  23.301  0.00  0.00    -0.206 F 
ATOM     60  C18 NON d   1      99.222  -6.613  20.701  0.00  0.00    -0.069 A 
ATOM     61  H12 NON d   1      99.421  -5.200  22.314  0.00  0.00     0.088 H 
ATOM     62  H26 NON d   1     100.244  -6.492  20.360  0.00  0.00     0.085 H 
ENDBRANCH   2  52
BRANCH  13  63
ATOM     63  C20 NON d   1     101.692 -12.999  17.977  0.00  0.00     0.043 A 
ATOM     64  C17 NON d   1     101.024 -14.165  17.611  0.00  0.00    -0.057 A 
ATOM     65  C29 NON d   1     101.751 -15.299  17.254  0.00  0.00    -0.081 A 
ATOM     66  H13 NON d   1      99.940 -14.190  17.604  0.00  0.00     0.086 H 
ATOM     67  C23 NON d   1     103.144 -15.273  17.260  0.00  0.00    -0.083 A 
ATOM     68  H25 NON d   1     101.230 -16.206  16.970  0.00  0.00     0.083 H 
ATOM     69  C4  NON d   1     103.814 -14.107  17.624  0.00  0.00    -0.081 A 
ATOM     70  H24 NON d   1     103.705 -16.158  16.982  0.00  0.00     0.083 H 
ATOM     71  C26 NON d   1     103.089 -12.971  17.976  0.00  0.00    -0.057 A 
ATOM     72  H1  NON d   1     104.898 -14.084  17.633  0.00  0.00     0.083 H 
ATOM     73  H17 NON d   1     103.611 -12.061  18.250  0.00  0.00     0.086 H 
ENDBRANCH  13  63
TORSDOF 14
