REMARK  6 active torsions:
REMARK  status: ('A' for Active; 'I' for Inactive)
REMARK    1  A    between atoms: C16_18  and  C17_13 
REMARK    2  A    between atoms: C17_13  and  N2_21 
REMARK    3  A    between atoms: N2_21  and  C18_14 
REMARK    4  A    between atoms: C15_17  and  C16_18 
REMARK    5  A    between atoms: C15_17  and  N1_20 
REMARK    6  A    between atoms: N2_21  and  C19_19 
ROOT
ATOM      1  C1  CXX d   1      25.297  21.030  23.341  0.00  0.00    -0.035 A 
ATOM      2  C2  CXX d   1      24.112  20.355  23.006  0.00  0.00     0.036 A 
ATOM      3  C3  CXX d   1      24.004  19.607  21.818  0.00  0.00    -0.061 A 
ATOM      4  C4  CXX d   1      25.129  19.564  20.985  0.00  0.00    -0.073 A 
ATOM      5  C5  CXX d   1      27.475  20.114  20.310  0.00  0.00    -0.035 C 
ATOM      6  C6  CXX d   1      27.898  21.409  19.605  0.00  0.00    -0.035 C 
ATOM      7  C8  CXX d   1      29.103  24.991  20.460  0.00  0.00    -0.082 A 
ATOM      8  C9  CXX d   1      28.994  25.061  21.838  0.00  0.00    -0.081 A 
ATOM      9  C10 CXX d   1      28.529  23.969  22.569  0.00  0.00    -0.057 A 
ATOM     10  C11 CXX d   1      28.150  22.746  21.934  0.00  0.00     0.041 A 
ATOM     11  C13 CXX d   1      26.344  20.227  21.281  0.00  0.00    -0.031 A 
ATOM     12  C14 CXX d   1      26.434  20.972  22.479  0.00  0.00     0.042 A 
ATOM     13  C7  CXX d   1      28.743  23.808  19.790  0.00  0.00    -0.075 A 
ATOM     14  C12 CXX d   1      28.259  22.642  20.453  0.00  0.00    -0.031 A 
ATOM     15  N1  CXX d   1      27.672  21.654  22.791  0.00  0.00    -0.346 N 
ATOM     16 CL2  CXX d   1      22.757  20.461  24.094  0.00  0.00    -0.084 Cl
ATOM     17  H1  CXX d   1      25.349  21.600  24.262  0.00  0.00     0.089 H 
ATOM     18  H2  CXX d   1      23.089  19.087  21.559  0.00  0.00     0.086 H 
ATOM     19  H3  CXX d   1      25.066  18.993  20.066  0.00  0.00     0.084 H 
ATOM     20  H4  CXX d   1      28.349  19.729  20.857  0.00  0.00     0.040 H 
ATOM     21  H5  CXX d   1      27.180  19.391  19.535  0.00  0.00     0.040 H 
ATOM     22  H6  CXX d   1      27.067  21.703  18.948  0.00  0.00     0.040 H 
ATOM     23  H7  CXX d   1      28.781  21.169  18.995  0.00  0.00     0.040 H 
ATOM     24  H8  CXX d   1      29.465  25.845  19.899  0.00  0.00     0.083 H 
ATOM     25  H9  CXX d   1      29.273  25.973  22.353  0.00  0.00     0.083 H 
ATOM     26  H10 CXX d   1      28.453  24.049  23.647  0.00  0.00     0.086 H 
ATOM     27  H16 CXX d   1      28.839  23.781  18.711  0.00  0.00     0.084 H 
ENDROOT
BRANCH  15  28
ATOM     28  C15 CXX d   1      28.666  21.144  23.804  0.00  0.00     0.002 C 
ATOM     29  H17 CXX d   1      29.541  20.781  23.245  0.00  0.00     0.065 H 
ATOM     30  H18 CXX d   1      28.960  22.000  24.429  0.00  0.00     0.065 H 
BRANCH  28  31
ATOM     31  C16 CXX d   1      28.241  20.030  24.742  0.00  0.00    -0.027 C 
ATOM     32  H19 CXX d   1      28.743  20.164  25.712  0.00  0.00     0.037 H 
ATOM     33  H20 CXX d   1      27.151  20.074  24.884  0.00  0.00     0.037 H 
BRANCH  31  34
ATOM     34  C17 CXX d   1      28.616  18.668  24.168  0.00  0.00     0.084 C 
ATOM     35  H11 CXX d   1      29.618  18.739  23.720  0.00  0.00     0.076 H 
ATOM     36  H12 CXX d   1      27.885  18.401  23.391  0.00  0.00     0.076 H 
BRANCH  34  37
ATOM     37  N2  CXX d   1      28.631  17.600  25.190  0.00  0.00    -0.079 N 
ATOM     38  H24 CXX d   1      28.890  18.010  26.074  0.00  0.00     0.278 HD
BRANCH  37  39
ATOM     39  C18 CXX d   1      29.631  16.573  24.829  0.00  0.00     0.066 C 
ATOM     40  H13 CXX d   1      29.637  15.782  25.593  0.00  0.00     0.068 H 
ATOM     41  H14 CXX d   1      30.628  17.035  24.773  0.00  0.00     0.068 H 
ATOM     42  H15 CXX d   1      29.373  16.137  23.852  0.00  0.00     0.068 H 
ENDBRANCH  37  39
BRANCH  37  43
ATOM     43  C19 CXX d   1      27.299  16.956  25.342  0.00  0.00     0.066 C 
ATOM     44  H21 CXX d   1      26.552  17.718  25.611  0.00  0.00     0.068 H 
ATOM     45  H22 CXX d   1      27.348  16.195  26.135  0.00  0.00     0.068 H 
ATOM     46  H23 CXX d   1      27.012  16.479  24.393  0.00  0.00     0.068 H 
ENDBRANCH  37  43
ENDBRANCH  34  37
ENDBRANCH  31  34
ENDBRANCH  28  31
ENDBRANCH  15  28
TORSDOF 6
