REMARK  3 active torsions:
REMARK  status: ('A' for Active; 'I' for Inactive)
REMARK    1  A    between atoms: C6_2  and  C19_20 
REMARK    2  A    between atoms: C22_9  and  O23_21 
REMARK    3  A    between atoms: C1_11  and  O26_23 
ROOT
ATOM      1  C4  DC8 d   1      12.281  50.289  59.162  0.00  0.00     0.076 A 
ATOM      2  C6  DC8 d   1      10.562  51.696  59.934  0.00  0.00     0.074 C 
ATOM      3  C8  DC8 d   1      11.411  52.138  61.176  0.00  0.00    -0.011 C 
ATOM      4  C10 DC8 d   1      11.273  51.180  62.379  0.00  0.00     0.003 C 
ATOM      5  C15 DC8 d   1      12.932  52.157  60.818  0.00  0.00    -0.014 C 
ATOM      6  C17 DC8 d   1      13.284  51.083  59.774  0.00  0.00    -0.017 A 
ATOM      7  C1  DC8 d   1      14.985  49.906  58.441  0.00  0.00     0.066 A 
ATOM      8  C2  DC8 d   1      13.975  49.126  57.840  0.00  0.00    -0.048 A 
ATOM      9  C3  DC8 d   1      12.639  49.312  58.198  0.00  0.00    -0.048 A 
ATOM     10  O5  DC8 d   1      10.947  50.395  59.455  0.00  0.00    -0.340 OA
ATOM     11  C11 DC8 d   1      12.543  51.431  63.195  0.00  0.00     0.244 C 
ATOM     12  F12 DC8 d   1      12.312  52.447  64.122  0.00  0.00    -0.206 F 
ATOM     13  F13 DC8 d   1      12.928  50.273  63.865  0.00  0.00    -0.206 F 
ATOM     14  C14 DC8 d   1      13.647  51.844  62.188  0.00  0.00     0.004 C 
ATOM     15  C18 DC8 d   1      14.642  50.890  59.406  0.00  0.00    -0.042 A 
ATOM     16  H1  DC8 d   1      10.751  52.423  59.130  0.00  0.00     0.092 H 
ATOM     17  H2  DC8 d   1      11.086  53.145  61.476  0.00  0.00     0.045 H 
ATOM     18  H3  DC8 d   1      11.224  50.134  62.043  0.00  0.00     0.042 H 
ATOM     19  H4  DC8 d   1      10.375  51.418  62.968  0.00  0.00     0.042 H 
ATOM     20  H5  DC8 d   1      13.228  53.146  60.438  0.00  0.00     0.048 H 
ATOM     21  H9  DC8 d   1      14.237  48.380  57.098  0.00  0.00     0.087 H 
ATOM     22  H10 DC8 d   1      11.869  48.705  57.736  0.00  0.00     0.087 H 
ATOM     23  H11 DC8 d   1      14.174  52.739  62.552  0.00  0.00     0.043 H 
ATOM     24  H12 DC8 d   1      14.366  51.022  62.059  0.00  0.00     0.043 H 
ATOM     25  H13 DC8 d   1      15.418  51.494  59.862  0.00  0.00     0.088 H 
ENDROOT
BRANCH   2  26
ATOM     26  C19 DC8 d   1       9.063  51.705  60.235  0.00  0.00    -0.028 A 
ATOM     27  C20 DC8 d   1       8.305  50.522  60.090  0.00  0.00    -0.072 A 
ATOM     28  C21 DC8 d   1       6.935  50.527  60.357  0.00  0.00    -0.050 A 
ATOM     29  H6  DC8 d   1       8.789  49.606  59.770  0.00  0.00     0.084 H 
ATOM     30  C22 DC8 d   1       6.310  51.713  60.778  0.00  0.00     0.065 A 
ATOM     31  H7  DC8 d   1       6.355  49.619  60.240  0.00  0.00     0.087 H 
ATOM     32  C24 DC8 d   1       7.062  52.901  60.924  0.00  0.00    -0.050 A 
ATOM     33  C25 DC8 d   1       8.433  52.897  60.654  0.00  0.00    -0.072 A 
ATOM     34  H8  DC8 d   1       6.575  53.815  61.245  0.00  0.00     0.087 H 
ATOM     35  H15 DC8 d   1       9.011  53.807  60.766  0.00  0.00     0.084 H 
BRANCH  30  36
ATOM     36  O23 DC8 d   1       4.997  51.714  61.040  0.00  0.00    -0.361 OA
ATOM     37  H14 DC8 d   1       4.856  51.965  61.945  0.00  0.00     0.217 HD
ENDBRANCH  30  36
ENDBRANCH   2  26
BRANCH   7  38
ATOM     38  O26 DC8 d   1      16.280  49.708  58.085  0.00  0.00    -0.361 OA
ATOM     39  H16 DC8 d   1      16.783  49.457  58.851  0.00  0.00     0.217 HD
ENDBRANCH   7  38
TORSDOF 3
