REMARK  6 active torsions:
REMARK  status: ('A' for Active; 'I' for Inactive)
REMARK    1  A    between atoms: C15_17  and  N1_9 
REMARK    2  A    between atoms: C17_19  and  N2_11 
REMARK    3  A    between atoms: N2_11  and  C18_20 
REMARK    4  A    between atoms: N2_11  and  C19_21 
REMARK    5  A    between atoms: C16_18  and  C15_17 
REMARK    6  A    between atoms: C16_18  and  C17_19 
ROOT
ATOM      1  C11 IXX d   1      28.057  22.682  22.030  0.00  0.00     0.041 A 
ATOM      2  C10 IXX d   1      28.439  23.892  22.687  0.00  0.00    -0.057 A 
ATOM      3  C9  IXX d   1      28.910  25.010  21.970  0.00  0.00    -0.081 A 
ATOM      4  C8  IXX d   1      29.010  24.949  20.578  0.00  0.00    -0.082 A 
ATOM      5  C7  IXX d   1      28.650  23.787  19.895  0.00  0.00    -0.075 A 
ATOM      6  C2  IXX d   1      23.935  20.395  22.945  0.00  0.00    -0.081 A 
ATOM      7  C6  IXX d   1      27.805  21.399  19.659  0.00  0.00    -0.035 C 
ATOM      8  C5  IXX d   1      27.379  20.117  20.354  0.00  0.00    -0.035 C 
ATOM      9  N1  IXX d   1      27.573  21.567  22.848  0.00  0.00    -0.346 N 
ATOM     10  C3  IXX d   1      23.888  19.700  21.731  0.00  0.00    -0.082 A 
ATOM     11  C4  IXX d   1      25.012  19.631  20.928  0.00  0.00    -0.075 A 
ATOM     12  C1  IXX d   1      25.147  21.027  23.341  0.00  0.00    -0.057 A 
ATOM     13  C12 IXX d   1      28.171  22.626  20.547  0.00  0.00    -0.031 A 
ATOM     14  C13 IXX d   1      26.231  20.243  21.289  0.00  0.00    -0.031 A 
ATOM     15  C14 IXX d   1      26.310  20.949  22.507  0.00  0.00     0.041 A 
ATOM     16  H1  IXX d   1      28.364  23.952  23.767  0.00  0.00     0.086 H 
ATOM     17  H2  IXX d   1      29.194  25.914  22.497  0.00  0.00     0.083 H 
ATOM     18  H3  IXX d   1      29.369  25.809  20.025  0.00  0.00     0.083 H 
ATOM     19  H4  IXX d   1      28.741  23.773  18.815  0.00  0.00     0.084 H 
ATOM     20  H5  IXX d   1      23.056  20.451  23.578  0.00  0.00     0.083 H 
ATOM     21  H6  IXX d   1      26.977  21.706  19.003  0.00  0.00     0.040 H 
ATOM     22  H7  IXX d   1      28.689  21.162  19.049  0.00  0.00     0.040 H 
ATOM     23  H8  IXX d   1      28.240  19.739  20.925  0.00  0.00     0.040 H 
ATOM     24  H9  IXX d   1      27.105  19.387  19.578  0.00  0.00     0.040 H 
ATOM     25  H10 IXX d   1      22.970  19.215  21.420  0.00  0.00     0.083 H 
ATOM     26  H12 IXX d   1      24.955  19.089  19.991  0.00  0.00     0.084 H 
ATOM     27  H13 IXX d   1      25.191  21.570  24.278  0.00  0.00     0.086 H 
ENDROOT
BRANCH   9  28
ATOM     28  C15 IXX d   1      28.200  21.389  24.214  0.00  0.00     0.002 C 
ATOM     29  H14 IXX d   1      27.839  22.209  24.852  0.00  0.00     0.065 H 
ATOM     30  H15 IXX d   1      29.290  21.474  24.090  0.00  0.00     0.065 H 
BRANCH  28  31
ATOM     31  C16 IXX d   1      27.920  20.060  24.964  0.00  0.00    -0.027 C 
ATOM     32  H16 IXX d   1      26.835  19.878  24.970  0.00  0.00     0.037 H 
ATOM     33  H17 IXX d   1      28.282  20.153  25.998  0.00  0.00     0.037 H 
BRANCH  31  34
ATOM     34  C17 IXX d   1      28.608  18.884  24.311  0.00  0.00     0.084 C 
ATOM     35  H18 IXX d   1      28.048  18.617  23.402  0.00  0.00     0.076 H 
ATOM     36  H19 IXX d   1      29.628  19.189  24.037  0.00  0.00     0.076 H 
BRANCH  34  37
ATOM     37  N2  IXX d   1      28.699  17.665  25.185  0.00  0.00    -0.079 N 
ATOM     38  H11 IXX d   1      29.008  17.958  26.099  0.00  0.00     0.278 HD
BRANCH  37  39
ATOM     39  C18 IXX d   1      29.665  16.681  24.666  0.00  0.00     0.066 C 
ATOM     40  H20 IXX d   1      29.697  15.810  25.337  0.00  0.00     0.068 H 
ATOM     41  H21 IXX d   1      30.663  17.140  24.613  0.00  0.00     0.068 H 
ATOM     42  H22 IXX d   1      29.356  16.359  23.661  0.00  0.00     0.068 H 
ENDBRANCH  37  39
BRANCH  37  43
ATOM     43  C19 IXX d   1      27.355  17.021  25.321  0.00  0.00     0.066 C 
ATOM     44  H23 IXX d   1      26.634  17.756  25.709  0.00  0.00     0.068 H 
ATOM     45  H24 IXX d   1      27.424  16.172  26.017  0.00  0.00     0.068 H 
ATOM     46  H25 IXX d   1      27.019  16.662  24.337  0.00  0.00     0.068 H 
ENDBRANCH  37  43
ENDBRANCH  34  37
ENDBRANCH  31  34
ENDBRANCH  28  31
ENDBRANCH   9  28
TORSDOF 6
