REMARK  15 active torsions:
REMARK  status: ('A' for Active; 'I' for Inactive)
REMARK    1  A    between atoms: C2_2  and  C1_1 
REMARK    2  A    between atoms: C2_2  and  C3_3 
REMARK    3  A    between atoms: C7_6  and  C2_2 
REMARK    4  A    between atoms: C2_2  and  C6_39 
REMARK    5  A    between atoms: C8_7  and  C7_6 
REMARK    6  A    between atoms: C10_8  and  C11_9 
REMARK    7  A    between atoms: N9_40  and  C10_8 
REMARK    8  A    between atoms: C25_29  and  C26_28 
REMARK    9  A    between atoms: O24_30  and  C25_29 
REMARK   10  A    between atoms: O24_30  and  C23_31 
REMARK   11  A    between atoms: C36_33  and  S37_34 
REMARK   12  A    between atoms: S37_34  and  C38_35 
REMARK   13  A    between atoms: C38_35  and  C41_36 
REMARK   14  A    between atoms: C38_35  and  C39_37 
REMARK   15  A    between atoms: C38_35  and  C40_38 
ROOT
ATOM      1  C8  2CS d   1      62.175  55.152  40.320  0.00  0.00     0.031 A 
ATOM      2  C19 2CS d   1      64.628  57.794  40.202  0.00  0.00    -0.053 A 
ATOM      3  C20 2CS d   1      64.475  59.098  39.730  0.00  0.00    -0.049 A 
ATOM      4  C21 2CS d   1      62.224  57.277  39.644  0.00  0.00     0.012 A 
ATOM      5  C22 2CS d   1      62.074  58.613  39.152  0.00  0.00    -0.037 A 
ATOM      6  C23 2CS d   1      63.223  59.490  39.213  0.00  0.00     0.070 A 
ATOM      7  C18 2CS d   1      63.482  56.935  40.148  0.00  0.00     0.046 A 
ATOM      8  C36 2CS d   1      61.372  56.117  39.754  0.00  0.00     0.036 A 
ATOM      9  N9  2CS d   1      63.378  55.657  40.530  0.00  0.00    -0.344 N 
ATOM     10  H12 2CS d   1      65.576  57.444  40.594  0.00  0.00     0.087 H 
ATOM     11  H13 2CS d   1      65.303  59.797  39.760  0.00  0.00     0.087 H 
ATOM     12  H14 2CS d   1      61.129  58.957  38.746  0.00  0.00     0.089 H 
ENDROOT
BRANCH   6  13
ATOM     13  O24 2CS d   1      63.106  60.668  38.767  0.00  0.00    -0.345 OA
BRANCH  13  14
ATOM     14  C25 2CS d   1      63.892  61.733  39.007  0.00  0.00     0.066 C 
ATOM     15  H21 2CS d   1      63.248  62.624  38.980  0.00  0.00     0.084 H 
ATOM     16  H22 2CS d   1      64.305  61.610  40.019  0.00  0.00     0.084 H 
BRANCH  14  17
ATOM     17  C26 2CS d   1      65.022  61.988  38.106  0.00  0.00     0.059 A 
ATOM     18  C27 2CS d   1      65.663  63.226  38.310  0.00  0.00    -0.056 A 
ATOM     19  C28 2CS d   1      66.778  63.563  37.509  0.00  0.00    -0.069 A 
ATOM     20  H15 2CS d   1      65.306  63.911  39.071  0.00  0.00     0.086 H 
ATOM     21  C29 2CS d   1      67.226  62.669  36.530  0.00  0.00    -0.007 A 
ATOM     22  H20 2CS d   1      67.284  64.511  37.653  0.00  0.00     0.085 H 
ATOM     23  C30 2CS d   1      66.543  61.411  36.347  0.00  0.00     0.067 A 
ATOM     24  C34 2CS d   1      68.345  63.024  35.733  0.00  0.00    -0.071 A 
ATOM     25  C31 2CS d   1      66.978  60.484  35.354  0.00  0.00    -0.054 A 
ATOM     26  N35 2CS d   1      65.462  61.122  37.144  0.00  0.00    -0.251 NA
ATOM     27  C32 2CS d   1      68.111  60.844  34.556  0.00  0.00    -0.081 A 
ATOM     28  H16 2CS d   1      66.468  59.539  35.208  0.00  0.00     0.087 H 
ATOM     29  C33 2CS d   1      68.775  62.088  34.747  0.00  0.00    -0.082 A 
ATOM     30  H17 2CS d   1      68.468  60.159  33.795  0.00  0.00     0.083 H 
ATOM     31  H18 2CS d   1      69.630  62.331  34.127  0.00  0.00     0.083 H 
ATOM     32  H19 2CS d   1      68.854  63.971  35.869  0.00  0.00     0.084 H 
ENDBRANCH  14  17
ENDBRANCH  13  14
ENDBRANCH   6  13
BRANCH   8  33
ATOM     33  S37 2CS d   1      59.704  55.815  39.276  0.00  0.00    -0.118 SA
BRANCH  33  34
ATOM     34  C38 2CS d   1      60.002  55.479  37.453  0.00  0.00     0.002 C 
BRANCH  34  35
ATOM     35  C41 2CS d   1      59.229  54.272  36.939  0.00  0.00    -0.061 C 
ATOM     36  H23 2CS d   1      59.444  54.127  35.870  0.00  0.00     0.029 H 
ATOM     37  H24 2CS d   1      58.151  54.441  37.077  0.00  0.00     0.029 H 
ATOM     38  H25 2CS d   1      59.534  53.376  37.499  0.00  0.00     0.029 H 
ENDBRANCH  34  35
BRANCH  34  39
ATOM     39  C39 2CS d   1      59.548  56.685  36.606  0.00  0.00    -0.061 C 
ATOM     40  H26 2CS d   1      59.728  56.474  35.542  0.00  0.00     0.029 H 
ATOM     41  H27 2CS d   1      60.117  57.578  36.904  0.00  0.00     0.029 H 
ATOM     42  H28 2CS d   1      58.475  56.863  36.768  0.00  0.00     0.029 H 
ENDBRANCH  34  39
BRANCH  34  43
ATOM     43  C40 2CS d   1      61.455  55.253  36.998  0.00  0.00    -0.061 C 
ATOM     44  H29 2CS d   1      61.475  55.069  35.914  0.00  0.00     0.029 H 
ATOM     45  H30 2CS d   1      61.873  54.383  37.525  0.00  0.00     0.029 H 
ATOM     46  H31 2CS d   1      62.055  56.145  37.230  0.00  0.00     0.029 H 
ENDBRANCH  34  43
ENDBRANCH  33  34
ENDBRANCH   8  33
BRANCH   9  47
ATOM     47  C10 2CS d   1      64.425  54.936  41.068  0.00  0.00     0.024 C 
ATOM     48  H6  2CS d   1      65.211  55.599  41.458  0.00  0.00     0.072 H 
ATOM     49  H7  2CS d   1      64.081  54.264  41.868  0.00  0.00     0.072 H 
BRANCH  47  50
ATOM     50  C11 2CS d   1      64.874  54.209  39.938  0.00  0.00    -0.040 A 
ATOM     51  C12 2CS d   1      64.589  54.664  38.628  0.00  0.00    -0.074 A 
ATOM     52  C13 2CS d   1      65.042  53.900  37.565  0.00  0.00    -0.061 A 
ATOM     53  H8  2CS d   1      64.034  55.581  38.462  0.00  0.00     0.084 H 
ATOM     54  C16 2CS d   1      65.757  52.747  37.947  0.00  0.00     0.034 A 
ATOM     55  H9  2CS d   1      64.862  54.166  36.530  0.00  0.00     0.086 H 
ATOM     56  C15 2CS d   1      66.021  52.317  39.243  0.00  0.00    -0.061 A 
ATOM     57 CL17 2CS d   1      66.399  51.695  36.844  0.00  0.00    -0.084 Cl
ATOM     58  C14 2CS d   1      65.568  53.076  40.283  0.00  0.00    -0.074 A 
ATOM     59  H11 2CS d   1      66.573  51.401  39.423  0.00  0.00     0.086 H 
ATOM     60  H10 2CS d   1      65.745  52.801  41.317  0.00  0.00     0.084 H 
ENDBRANCH  47  50
ENDBRANCH   9  47
BRANCH   1  61
ATOM     61  C7  2CS d   1      61.756  53.776  40.649  0.00  0.00    -0.009 C 
ATOM     62  H4  2CS d   1      60.661  53.749  40.543  0.00  0.00     0.044 H 
ATOM     63  H5  2CS d   1      62.214  53.121  39.894  0.00  0.00     0.044 H 
BRANCH  61  64
ATOM     64  C2  2CS d   1      62.085  53.143  42.048  0.00  0.00     0.046 C 
BRANCH  64  65
ATOM     65  C1  2CS d   1      60.871  52.311  42.525  0.00  0.00    -0.059 C 
ATOM     66  H1  2CS d   1      60.602  51.577  41.751  0.00  0.00     0.029 H 
ATOM     67  H2  2CS d   1      60.017  52.980  42.708  0.00  0.00     0.029 H 
ATOM     68  H3  2CS d   1      61.130  51.784  43.455  0.00  0.00     0.029 H 
ENDBRANCH  64  65
BRANCH  64  69
ATOM     69  C3  2CS d   1      62.408  54.113  43.119  0.00  0.00     0.181 C 
ATOM     70  O4  2CS d   1      61.828  55.212  43.238  0.00  0.00    -0.647 OA
ATOM     71  O5  2CS d   1      63.261  53.931  44.016  0.00  0.00    -0.647 OA
ENDBRANCH  64  69
BRANCH  64  72
ATOM     72  C6  2CS d   1      63.243  52.132  41.919  0.00  0.00    -0.059 C 
ATOM     73  H32 2CS d   1      63.462  51.697  42.906  0.00  0.00     0.029 H 
ATOM     74  H33 2CS d   1      64.138  52.646  41.538  0.00  0.00     0.029 H 
ATOM     75  H34 2CS d   1      62.955  51.332  41.221  0.00  0.00     0.029 H 
ENDBRANCH  64  72
ENDBRANCH  61  64
ENDBRANCH   1  61
TORSDOF 15
