REMARK  5 active torsions:
REMARK  status: ('A' for Active; 'I' for Inactive)
REMARK    1  A    between atoms: O5'_1  and  C5'_2 
REMARK    2  A    between atoms: C5'_2  and  C4'_3 
REMARK    3  A    between atoms: C3'_5  and  O3'_6 
REMARK    4  A    between atoms: C2'_7  and  O2'_8 
REMARK    5  A    between atoms: C1'_9  and  C9_10 
ROOT
ATOM      1  C4' IMH d   1      14.760  12.141  59.896  0.00  0.00     0.149 C 
ATOM      2  N4' IMH d   1      13.772  11.825  58.862  0.00  0.00    -0.055 N 
ATOM      3  C3' IMH d   1      15.239  13.492  59.548  0.00  0.00     0.092 C 
ATOM      4  C2' IMH d   1      14.427  13.953  58.306  0.00  0.00     0.094 C 
ATOM      5  C1' IMH d   1      13.570  12.809  57.803  0.00  0.00     0.158 C 
ATOM      6  H4  IMH d   1      14.295  12.094  60.892  0.00  0.00     0.091 H 
ATOM      7  H5  IMH d   1      12.885  11.690  59.322  0.00  0.00     0.278 HD
ATOM      8  H6  IMH d   1      14.058  10.963  58.424  0.00  0.00     0.278 HD
ATOM      9  H7  IMH d   1      16.312  13.503  59.308  0.00  0.00     0.090 H 
ATOM     10  H9  IMH d   1      15.136  14.233  57.513  0.00  0.00     0.090 H 
ATOM     11  H11 IMH d   1      12.518  13.100  57.671  0.00  0.00     0.096 H 
ENDROOT
BRANCH   5  12
ATOM     12  C9  IMH d   1      14.119  12.224  56.574  0.00  0.00     0.022 A 
ATOM     13  C8  IMH d   1      15.096  12.747  55.773  0.00  0.00    -0.012 A 
ATOM     14  N7  IMH d   1      15.339  11.846  54.769  0.00  0.00    -0.360 N 
ATOM     15  H12 IMH d   1      15.592  13.707  55.908  0.00  0.00     0.112 H 
ATOM     16  C5  IMH d   1      14.579  10.769  54.885  0.00  0.00     0.116 A 
ATOM     17  H13 IMH d   1      16.028  11.990  54.017  0.00  0.00     0.165 HD
ATOM     18  C6  IMH d   1      14.410   9.529  54.145  0.00  0.00     0.209 A 
ATOM     19  C4  IMH d   1      13.742  10.912  56.059  0.00  0.00     0.099 A 
ATOM     20  O6  IMH d   1      15.174   9.310  53.038  0.00  0.00    -0.170 OA
ATOM     21  N1  IMH d   1      13.493   8.649  54.602  0.00  0.00    -0.327 N 
ATOM     22  C2  IMH d   1      12.765   8.883  55.708  0.00  0.00     0.066 A 
ATOM     23  H14 IMH d   1      13.351   7.795  54.101  0.00  0.00     0.168 HD
ATOM     24  N3  IMH d   1      12.857   9.991  56.466  0.00  0.00    -0.241 NA
ATOM     25  H15 IMH d   1      12.049   8.121  56.012  0.00  0.00     0.143 H 
ENDBRANCH   5  12
BRANCH   4  26
ATOM     26  O2' IMH d   1      13.609  15.109  58.608  0.00  0.00    -0.390 OA
ATOM     27  H10 IMH d   1      13.126  15.366  57.831  0.00  0.00     0.210 HD
ENDBRANCH   4  26
BRANCH   1  28
ATOM     28  C5' IMH d   1      16.017  11.333  59.865  0.00  0.00     0.046 C 
ATOM     29  H2  IMH d   1      16.807  11.850  59.300  0.00  0.00     0.077 H 
ATOM     30  H3  IMH d   1      16.375  11.118  60.883  0.00  0.00     0.077 H 
BRANCH  28  31
ATOM     31  O5' IMH d   1      15.607  10.135  59.199  0.00  0.00    -0.399 OA
ATOM     32  H1  IMH d   1      16.348   9.544  59.128  0.00  0.00     0.209 HD
ENDBRANCH  28  31
ENDBRANCH   1  28
BRANCH   3  33
ATOM     33  O3' IMH d   1      14.992  14.223  60.760  0.00  0.00    -0.391 OA
ATOM     34  H8  IMH d   1      14.064  14.198  60.960  0.00  0.00     0.210 HD
ENDBRANCH   3  33
TORSDOF 5
