REMARK WARNING: 32 MAX_TORS EXCEEDED!!!
REMARK  33 active torsions:
REMARK  status: ('A' for Active; 'I' for Inactive)
REMARK    1  A    between atoms: C1_1  and  C2_2 
REMARK    2  A    between atoms: C2_2  and  C3_3 
REMARK    3  A    between atoms: C3_3  and  C4_4 
REMARK    4  A    between atoms: C4_4  and  C5_5 
REMARK    5  A    between atoms: C5_5  and  C6_6 
REMARK    6  A    between atoms: C6_6  and  C7_7 
REMARK    7  A    between atoms: C7_7  and  C8_8 
REMARK    8  A    between atoms: C8_8  and  C9_9 
REMARK    9  A    between atoms: C9_9  and  C10_10 
REMARK   10  A    between atoms: C10_10  and  C11_11 
REMARK   11  A    between atoms: C11_11  and  C12_12 
REMARK   12  A    between atoms: C12_12  and  C13_13 
REMARK   13  A    between atoms: C13_13  and  C14_14 
REMARK   14  A    between atoms: C14_14  and  C15_15 
REMARK   15  A    between atoms: C15_15  and  C16_16 
REMARK   16  A    between atoms: C16_16  and  O1_17 
REMARK   17  A    between atoms: C16_16  and  C17_18 
REMARK   18  A    between atoms: C17_18  and  C18_19 
REMARK   19  A    between atoms: C17_18  and  N1_32 
REMARK   20  A    between atoms: C18_19  and  O2_20 
REMARK   21  A    between atoms: O2_20  and  C19_21 
REMARK   22  A    between atoms: C20_23  and  C21_24 
REMARK   23  A    between atoms: C21_24  and  O4_25 
REMARK   24  A    between atoms: C22_26  and  O5_27 
REMARK   25  A    between atoms: C35_28  and  O16_29 
REMARK   26  A    between atoms: C36_30  and  O17_31 
REMARK       I    between atoms: N1_32  and  C37_33 
REMARK   27  A    between atoms: C37_33  and  C38_35 
REMARK   28  A    between atoms: C38_35  and  C39_36 
REMARK   29  A    between atoms: C39_36  and  C40_37 
REMARK   30  A    between atoms: C40_37  and  C41_38 
REMARK   31  A    between atoms: C41_38  and  C42_39 
REMARK   32  A    between atoms: C42_39  and  C43_40 
REMARK   33  A    between atoms: C43_40  and  C44_41 
ROOT
ATOM      1  C17 IGC d   1     -17.466   3.400   6.213  0.00  0.00     0.057 C 
ATOM      2  H34 IGC d   1     -16.871   2.915   7.001  0.00  0.00     0.079 H 
ENDROOT
BRANCH   1   3
ATOM      3  C16 IGC d   1     -16.753   3.309   4.866  0.00  0.00     0.057 C 
ATOM      4  H32 IGC d   1     -17.382   3.824   4.125  0.00  0.00     0.086 H 
BRANCH   3   5
ATOM      5  C15 IGC d   1     -15.402   4.016   4.885  0.00  0.00    -0.039 C 
ATOM      6  H30 IGC d   1     -15.301   4.547   5.843  0.00  0.00     0.036 H 
ATOM      7  H31 IGC d   1     -14.611   3.256   4.802  0.00  0.00     0.036 H 
BRANCH   5   8
ATOM      8  C14 IGC d   1     -15.239   4.935   3.854  0.00  0.00    -0.063 C 
ATOM      9  H28 IGC d   1     -15.368   4.372   2.918  0.00  0.00     0.033 H 
ATOM     10  H29 IGC d   1     -16.057   5.663   3.960  0.00  0.00     0.033 H 
BRANCH   8  11
ATOM     11  C13 IGC d   1     -14.081   5.675   3.702  0.00  0.00    -0.065 C 
ATOM     12  H26 IGC d   1     -14.261   6.703   4.048  0.00  0.00     0.033 H 
ATOM     13  H27 IGC d   1     -13.280   5.220   4.304  0.00  0.00     0.033 H 
BRANCH  11  14
ATOM     14  C12 IGC d   1     -13.655   5.707   2.250  0.00  0.00    -0.065 C 
ATOM     15  H24 IGC d   1     -13.550   4.679   1.874  0.00  0.00     0.033 H 
ATOM     16  H25 IGC d   1     -14.412   6.239   1.655  0.00  0.00     0.033 H 
BRANCH  14  17
ATOM     17  C11 IGC d   1     -12.321   6.429   2.139  0.00  0.00    -0.065 C 
ATOM     18  H22 IGC d   1     -12.259   7.197   2.924  0.00  0.00     0.033 H 
ATOM     19  H23 IGC d   1     -11.505   5.703   2.270  0.00  0.00     0.033 H 
BRANCH  17  20
ATOM     20  C10 IGC d   1     -12.187   7.091   0.782  0.00  0.00    -0.065 C 
ATOM     21  H20 IGC d   1     -12.939   6.667   0.100  0.00  0.00     0.033 H 
ATOM     22  H21 IGC d   1     -12.360   8.172   0.891  0.00  0.00     0.033 H 
BRANCH  20  23
ATOM     23  C9  IGC d   1     -10.793   6.865   0.192  0.00  0.00    -0.065 C 
ATOM     24  H18 IGC d   1     -10.075   7.522   0.706  0.00  0.00     0.033 H 
ATOM     25  H19 IGC d   1     -10.504   5.815   0.346  0.00  0.00     0.033 H 
BRANCH  23  26
ATOM     26  C8  IGC d   1     -10.769   7.173  -1.300  0.00  0.00    -0.065 C 
ATOM     27  H16 IGC d   1     -11.788   7.417  -1.636  0.00  0.00     0.033 H 
ATOM     28  H17 IGC d   1     -10.107   8.033  -1.482  0.00  0.00     0.033 H 
BRANCH  26  29
ATOM     29  C7  IGC d   1     -10.256   5.969  -2.082  0.00  0.00    -0.065 C 
ATOM     30  H14 IGC d   1      -9.252   5.703  -1.719  0.00  0.00     0.033 H 
ATOM     31  H15 IGC d   1     -10.939   5.120  -1.928  0.00  0.00     0.033 H 
BRANCH  29  32
ATOM     32  C6  IGC d   1     -10.182   6.287  -3.566  0.00  0.00    -0.065 C 
ATOM     33  H12 IGC d   1     -10.875   5.626  -4.108  0.00  0.00     0.033 H 
ATOM     34  H13 IGC d   1     -10.478   7.335  -3.722  0.00  0.00     0.033 H 
BRANCH  32  35
ATOM     35  C5  IGC d   1      -8.756   6.081  -4.120  0.00  0.00    -0.065 C 
ATOM     36  H10 IGC d   1      -8.459   6.970  -4.696  0.00  0.00     0.033 H 
ATOM     37  H11 IGC d   1      -8.059   5.937  -3.282  0.00  0.00     0.033 H 
BRANCH  35  38
ATOM     38  C4  IGC d   1      -8.711   4.852  -5.031  0.00  0.00    -0.065 C 
ATOM     39  H8  IGC d   1      -9.729   4.647  -5.394  0.00  0.00     0.033 H 
ATOM     40  H9  IGC d   1      -8.054   5.072  -5.885  0.00  0.00     0.033 H 
BRANCH  38  41
ATOM     41  C3  IGC d   1      -8.184   3.599  -4.318  0.00  0.00    -0.065 C 
ATOM     42  H6  IGC d   1      -7.085   3.599  -4.365  0.00  0.00     0.033 H 
ATOM     43  H7  IGC d   1      -8.506   3.626  -3.267  0.00  0.00     0.033 H 
BRANCH  41  44
ATOM     44  C2  IGC d   1      -8.709   2.307  -4.965  0.00  0.00    -0.069 C 
ATOM     45  H4  IGC d   1      -9.229   1.710  -4.201  0.00  0.00     0.032 H 
ATOM     46  H5  IGC d   1      -9.414   2.570  -5.767  0.00  0.00     0.032 H 
BRANCH  44  47
ATOM     47  C1  IGC d   1      -7.569   1.474  -5.557  0.00  0.00    -0.077 C 
ATOM     48  H1  IGC d   1      -7.980   0.560  -6.010  0.00  0.00     0.027 H 
ATOM     49  H2  IGC d   1      -6.861   1.202  -4.760  0.00  0.00     0.027 H 
ATOM     50  H3  IGC d   1      -7.047   2.062  -6.326  0.00  0.00     0.027 H 
ENDBRANCH  44  47
ENDBRANCH  41  44
ENDBRANCH  38  41
ENDBRANCH  35  38
ENDBRANCH  32  35
ENDBRANCH  29  32
ENDBRANCH  26  29
ENDBRANCH  23  26
ENDBRANCH  20  23
ENDBRANCH  17  20
ENDBRANCH  14  17
ENDBRANCH  11  14
ENDBRANCH   8  11
ENDBRANCH   5   8
ENDBRANCH   3   5
BRANCH   3  51
ATOM     51  O1  IGC d   1     -16.623   1.928   4.445  0.00  0.00    -0.393 OA
ATOM     52  H33 IGC d   1     -16.255   1.898   3.570  0.00  0.00     0.210 HD
ENDBRANCH   3  51
ENDBRANCH   1   3
BRANCH   1  53
ATOM     53  C18 IGC d   1     -18.817   2.691   6.051  0.00  0.00     0.044 C 
ATOM     54  H35 IGC d   1     -18.633   1.762   5.491  0.00  0.00     0.077 H 
ATOM     55  H36 IGC d   1     -19.464   3.354   5.458  0.00  0.00     0.077 H 
BRANCH  53  56
ATOM     56  O2  IGC d   1     -19.537   2.339   7.225  0.00  0.00    -0.356 OA
BRANCH  56  57
ATOM     57  C19 IGC d   1     -20.751   1.542   6.964  0.00  0.00     0.158 C 
ATOM     58  O3  IGC d   1     -20.380   0.130   6.815  0.00  0.00    -0.348 OA
ATOM     59  C20 IGC d   1     -21.544  -0.736   7.126  0.00  0.00     0.089 C 
ATOM     60  C22 IGC d   1     -22.609  -0.547   6.021  0.00  0.00     0.090 C 
ATOM     61  H38 IGC d   1     -21.989  -0.382   8.068  0.00  0.00     0.090 H 
ATOM     62  C35 IGC d   1     -22.988   0.947   5.893  0.00  0.00     0.092 C 
ATOM     63  H42 IGC d   1     -22.180  -0.887   5.067  0.00  0.00     0.091 H 
ATOM     64  C36 IGC d   1     -21.743   1.877   5.803  0.00  0.00     0.110 C 
ATOM     65  H44 IGC d   1     -23.548   1.231   6.796  0.00  0.00     0.091 H 
ATOM     66  H46 IGC d   1     -21.234   1.691   4.846  0.00  0.00     0.094 H 
ATOM     67  H37 IGC d   1     -21.347   1.636   7.884  0.00  0.00     0.133 H 
BRANCH  59  68
ATOM     68  C21 IGC d   1     -21.091  -2.196   7.370  0.00  0.00     0.043 C 
ATOM     69  H39 IGC d   1     -20.855  -2.672   6.407  0.00  0.00     0.078 H 
ATOM     70  H40 IGC d   1     -21.901  -2.752   7.865  0.00  0.00     0.078 H 
BRANCH  68  71
ATOM     71  O4  IGC d   1     -19.921  -2.207   8.208  0.00  0.00    -0.398 OA
ATOM     72  H41 IGC d   1     -19.222  -1.727   7.780  0.00  0.00     0.209 HD
ENDBRANCH  68  71
ENDBRANCH  59  68
BRANCH  60  73
ATOM     73  O5  IGC d   1     -23.796  -1.312   6.284  0.00  0.00    -0.390 OA
ATOM     74  H43 IGC d   1     -24.424  -1.170   5.585  0.00  0.00     0.210 HD
ENDBRANCH  60  73
BRANCH  62  75
ATOM     75  O16 IGC d   1     -23.852   1.122   4.758  0.00  0.00    -0.390 OA
ATOM     76  H45 IGC d   1     -24.639   0.603   4.877  0.00  0.00     0.210 HD
ENDBRANCH  62  75
BRANCH  64  77
ATOM     77  O17 IGC d   1     -22.144   3.256   5.841  0.00  0.00    -0.388 OA
ATOM     78  H47 IGC d   1     -22.720   3.438   5.108  0.00  0.00     0.210 HD
ENDBRANCH  64  77
ENDBRANCH  56  57
ENDBRANCH  53  56
ENDBRANCH   1  53
BRANCH   1  79
ATOM     79  N1  IGC d   1     -17.672   4.822   6.540  0.00  0.00    -0.352 N 
ATOM     80  C37 IGC d   1     -17.174   5.428   7.618  0.00  0.00     0.218 C 
ATOM     81  O18 IGC d   1     -16.481   4.863   8.472  0.00  0.00    -0.274 OA
ATOM     82  H48 IGC d   1     -18.223   5.370   5.910  0.00  0.00     0.163 HD
BRANCH  80  83
ATOM     83  C38 IGC d   1     -17.545   6.927   7.725  0.00  0.00     0.009 C 
ATOM     84  H49 IGC d   1     -18.398   7.023   8.412  0.00  0.00     0.047 H 
ATOM     85  H50 IGC d   1     -17.837   7.282   6.726  0.00  0.00     0.047 H 
BRANCH  83  86
ATOM     86  C39 IGC d   1     -16.408   7.822   8.241  0.00  0.00    -0.057 C 
ATOM     87  H51 IGC d   1     -15.791   7.251   8.950  0.00  0.00     0.033 H 
ATOM     88  H52 IGC d   1     -16.838   8.696   8.751  0.00  0.00     0.033 H 
BRANCH  86  89
ATOM     89  C40 IGC d   1     -15.534   8.296   7.083  0.00  0.00    -0.065 C 
ATOM     90  H53 IGC d   1     -16.160   8.853   6.370  0.00  0.00     0.033 H 
ATOM     91  H54 IGC d   1     -15.101   7.418   6.582  0.00  0.00     0.033 H 
BRANCH  89  92
ATOM     92  C41 IGC d   1     -14.393   9.208   7.560  0.00  0.00    -0.065 C 
ATOM     93  H55 IGC d   1     -13.824   8.687   8.344  0.00  0.00     0.033 H 
ATOM     94  H56 IGC d   1     -14.823  10.133   7.972  0.00  0.00     0.033 H 
BRANCH  92  95
ATOM     95  C42 IGC d   1     -13.431   9.574   6.397  0.00  0.00    -0.065 C 
ATOM     96  H57 IGC d   1     -14.021   9.933   5.541  0.00  0.00     0.033 H 
ATOM     97  H58 IGC d   1     -12.865   8.678   6.102  0.00  0.00     0.033 H 
BRANCH  95  98
ATOM     98  C43 IGC d   1     -12.452  10.667   6.824  0.00  0.00    -0.069 C 
ATOM     99  H59 IGC d   1     -12.296  10.592   7.910  0.00  0.00     0.032 H 
ATOM    100  H60 IGC d   1     -12.893  11.645   6.583  0.00  0.00     0.032 H 
BRANCH  98 101
ATOM    101  C44 IGC d   1     -11.081  10.562   6.124  0.00  0.00    -0.077 C 
ATOM    102  H61 IGC d   1     -10.427  11.374   6.474  0.00  0.00     0.027 H 
ATOM    103  H62 IGC d   1     -11.218  10.645   5.036  0.00  0.00     0.027 H 
ATOM    104  H63 IGC d   1     -10.621   9.592   6.363  0.00  0.00     0.027 H 
ENDBRANCH  98 101
ENDBRANCH  95  98
ENDBRANCH  92  95
ENDBRANCH  89  92
ENDBRANCH  86  89
ENDBRANCH  83  86
ENDBRANCH  80  83
ENDBRANCH   1  79
TORSDOF 33
