REMARK  19 active torsions:
REMARK  status: ('A' for Active; 'I' for Inactive)
REMARK    1  A    between atoms: C18_3  and  C20_1 
REMARK    2  A    between atoms: C18_3  and  C19_2 
REMARK    3  A    between atoms: C16_5  and  C17_4 
REMARK    4  A    between atoms: C15_8  and  C16_5 
REMARK    5  A    between atoms: C13_7  and  C14_6 
REMARK    6  A    between atoms: C13_7  and  C15_8 
REMARK    7  A    between atoms: C12_9  and  C11_10 
REMARK    8  A    between atoms: C11_10  and  C9_11 
REMARK    9  A    between atoms: C9_11  and  C8_12 
REMARK   10  A    between atoms: C8_12  and  C10_13 
REMARK   11  A    between atoms: C7_14  and  C6_15 
REMARK   12  A    between atoms: C6_15  and  C5_16 
REMARK   13  A    between atoms: C5_16  and  C3_17 
REMARK   14  A    between atoms: C3_17  and  C4_18 
REMARK   15  A    between atoms: C2_19  and  C1_20 
REMARK   16  A    between atoms: C1_20  and  O1_21 
REMARK   17  A    between atoms: O1_21  and  PA_22 
REMARK   18  A    between atoms: PA_22  and  O3A_24 
REMARK   19  A    between atoms: O3A_24  and  PB_26 
ROOT
ATOM      1  C8  GRG d   1     -13.889 -58.834 -27.889  0.00  0.00    -0.087 C 
ATOM      2  C7  GRG d   1     -14.550 -59.377 -28.977  0.00  0.00    -0.101 C 
ATOM      3  H23 GRG d   1     -13.951 -59.936 -29.695  0.00  0.00     0.077 H 
ENDROOT
BRANCH   1   4
ATOM      4  C9  GRG d   1     -12.393 -59.079 -27.821  0.00  0.00    -0.042 C 
ATOM      5  H18 GRG d   1     -12.006 -58.686 -26.869  0.00  0.00     0.040 H 
ATOM      6  H19 GRG d   1     -12.201 -60.161 -27.877  0.00  0.00     0.040 H 
BRANCH   4   7
ATOM      7  C11 GRG d   1     -11.680 -58.384 -28.977  0.00  0.00    -0.046 C 
ATOM      8  H16 GRG d   1     -11.629 -59.068 -29.837  0.00  0.00     0.039 H 
ATOM      9  H17 GRG d   1     -12.241 -57.481 -29.260  0.00  0.00     0.039 H 
BRANCH   7  10
ATOM     10  C12 GRG d   1     -10.385 -58.023 -28.596  0.00  0.00    -0.101 C 
ATOM     11  C13 GRG d   1      -9.239 -57.947 -29.381  0.00  0.00    -0.087 C 
ATOM     12  H15 GRG d   1     -10.256 -57.767 -27.545  0.00  0.00     0.077 H 
BRANCH  11  13
ATOM     13  C14 GRG d   1      -9.257 -58.262 -30.863  0.00  0.00    -0.055 C 
ATOM     14  H10 GRG d   1      -8.246 -58.136 -31.277  0.00  0.00     0.033 H 
ATOM     15  H11 GRG d   1      -9.950 -57.578 -31.375  0.00  0.00     0.033 H 
ATOM     16  H12 GRG d   1      -9.588 -59.300 -31.013  0.00  0.00     0.033 H 
ENDBRANCH  11  13
BRANCH  11  17
ATOM     17  C15 GRG d   1      -7.929 -57.526 -28.773  0.00  0.00    -0.042 C 
ATOM     18  H13 GRG d   1      -7.563 -56.627 -29.291  0.00  0.00     0.040 H 
ATOM     19  H14 GRG d   1      -8.082 -57.298 -27.708  0.00  0.00     0.040 H 
BRANCH  17  20
ATOM     20  C16 GRG d   1      -6.895 -58.633 -28.903  0.00  0.00    -0.046 C 
ATOM     21  H8  GRG d   1      -7.075 -59.388 -28.124  0.00  0.00     0.039 H 
ATOM     22  H9  GRG d   1      -6.989 -59.100 -29.895  0.00  0.00     0.039 H 
BRANCH  20  23
ATOM     23  C17 GRG d   1      -5.612 -58.127 -28.758  0.00  0.00    -0.101 C 
ATOM     24  C18 GRG d   1      -4.500 -58.740 -28.190  0.00  0.00    -0.091 C 
ATOM     25  H7  GRG d   1      -5.455 -57.119 -29.138  0.00  0.00     0.077 H 
BRANCH  24  26
ATOM     26  C20 GRG d   1      -3.190 -57.963 -28.185  0.00  0.00    -0.055 C 
ATOM     27  H1  GRG d   1      -2.406 -58.569 -27.707  0.00  0.00     0.033 H 
ATOM     28  H2  GRG d   1      -3.322 -57.026 -27.624  0.00  0.00     0.033 H 
ATOM     29  H3  GRG d   1      -2.896 -57.733 -29.220  0.00  0.00     0.033 H 
ENDBRANCH  24  26
BRANCH  24  30
ATOM     30  C19 GRG d   1      -4.523 -60.152 -27.603  0.00  0.00    -0.055 C 
ATOM     31  H4  GRG d   1      -5.538 -60.567 -27.686  0.00  0.00     0.033 H 
ATOM     32  H5  GRG d   1      -4.228 -60.114 -26.544  0.00  0.00     0.033 H 
ATOM     33  H6  GRG d   1      -3.820 -60.791 -28.157  0.00  0.00     0.033 H 
ENDBRANCH  24  30
ENDBRANCH  20  23
ENDBRANCH  17  20
ENDBRANCH  11  17
ENDBRANCH   7  10
ENDBRANCH   4   7
ENDBRANCH   1   4
BRANCH   1  34
ATOM     34  C10 GRG d   1     -14.641 -58.024 -26.813  0.00  0.00    -0.055 C 
ATOM     35  H20 GRG d   1     -15.710 -57.977 -27.069  0.00  0.00     0.033 H 
ATOM     36  H21 GRG d   1     -14.230 -57.005 -26.768  0.00  0.00     0.033 H 
ATOM     37  H22 GRG d   1     -14.520 -58.512 -25.835  0.00  0.00     0.033 H 
ENDBRANCH   1  34
BRANCH   2  38
ATOM     38  C6  GRG d   1     -15.904 -59.271 -29.231  0.00  0.00    -0.046 C 
ATOM     39  H24 GRG d   1     -16.308 -58.417 -28.668  0.00  0.00     0.039 H 
ATOM     40  H25 GRG d   1     -16.403 -60.195 -28.905  0.00  0.00     0.039 H 
BRANCH  38  41
ATOM     41  C5  GRG d   1     -16.174 -59.059 -30.714  0.00  0.00    -0.042 C 
ATOM     42  H26 GRG d   1     -15.652 -59.833 -31.296  0.00  0.00     0.040 H 
ATOM     43  H27 GRG d   1     -15.809 -58.066 -31.015  0.00  0.00     0.040 H 
BRANCH  41  44
ATOM     44  C3  GRG d   1     -17.665 -59.150 -30.975  0.00  0.00    -0.085 C 
ATOM     45  C2  GRG d   1     -18.519 -58.268 -30.329  0.00  0.00    -0.078 C 
ATOM     46  H31 GRG d   1     -18.029 -57.545 -29.678  0.00  0.00     0.080 H 
BRANCH  44  47
ATOM     47  C4  GRG d   1     -18.169 -60.211 -31.929  0.00  0.00    -0.055 C 
ATOM     48  H28 GRG d   1     -19.264 -60.143 -32.008  0.00  0.00     0.033 H 
ATOM     49  H29 GRG d   1     -17.889 -61.206 -31.552  0.00  0.00     0.033 H 
ATOM     50  H30 GRG d   1     -17.720 -60.055 -32.921  0.00  0.00     0.033 H 
ENDBRANCH  44  47
BRANCH  45  51
ATOM     51  C1  GRG d   1     -19.900 -58.166 -30.385  0.00  0.00     0.047 C 
ATOM     52  H32 GRG d   1     -20.300 -58.950 -31.045  0.00  0.00     0.081 H 
ATOM     53  H33 GRG d   1     -20.180 -57.178 -30.778  0.00  0.00     0.081 H 
BRANCH  51  54
ATOM     54  O1  GRG d   1     -20.442 -58.329 -29.060  0.00  0.00    -0.286 OA
BRANCH  54  55
ATOM     55  PA  GRG d   1     -21.826 -57.672 -28.585  0.00  0.00     0.418 P 
ATOM     56  O1A GRG d   1     -22.878 -57.634 -29.828  0.00  0.00    -0.624 OA
ATOM     57  O2A GRG d   1     -22.301 -58.475 -27.463  0.00  0.00    -0.624 OA
BRANCH  55  58
ATOM     58  O3A GRG d   1     -21.607 -56.234 -28.064  0.00  0.00    -0.173 OA
BRANCH  58  59
ATOM     59  PB  GRG d   1     -21.312 -54.985 -28.987  0.00  0.00     0.431 P 
ATOM     60  O1B GRG d   1     -19.999 -54.962 -29.623  0.00  0.00    -0.616 OA
ATOM     61  O2B GRG d   1     -22.491 -54.907 -30.104  0.00  0.00    -0.616 OA
ATOM     62  O3B GRG d   1     -21.526 -53.841 -27.904  0.00  0.00    -0.616 OA
ENDBRANCH  58  59
ENDBRANCH  55  58
ENDBRANCH  54  55
ENDBRANCH  51  54
ENDBRANCH  45  51
ENDBRANCH  41  44
ENDBRANCH  38  41
ENDBRANCH   2  38
TORSDOF 19
