REMARK  10 active torsions:
REMARK  status: ('A' for Active; 'I' for Inactive)
REMARK    1  A    between atoms: C27_2  and  C24_5 
REMARK    2  A    between atoms: C24_5  and  O25_6 
REMARK    3  A    between atoms: C24_5  and  C26_7 
REMARK    4  A    between atoms: C24_5  and  C23_8 
REMARK       I    between atoms: C23_8  and  N22_10 
REMARK    5  A    between atoms: N22_10  and  C18_11 
REMARK    6  A    between atoms: C15_17  and  S12_18 
REMARK    7  A    between atoms: S12_18  and  C1_21 
REMARK    8  A    between atoms: C4_26  and  C7_27 
REMARK       I    between atoms: C7_27  and  N9_29 
REMARK    9  A    between atoms: N9_29  and  C11_30 
REMARK   10  A    between atoms: N9_29  and  C10_31 
ROOT
ATOM      1  C18 AZX d   1      -4.052  41.263   6.372  0.00  0.00     0.056 A 
ATOM      2  C17 AZX d   1      -4.029  39.980   6.950  0.00  0.00    -0.054 A 
ATOM      3  C16 AZX d   1      -3.556  39.839   8.276  0.00  0.00    -0.059 A 
ATOM      4  C19 AZX d   1      -3.563  42.410   7.195  0.00  0.00     0.062 A 
ATOM      5 CL1  AZX d   1      -3.628  44.043   6.473  0.00  0.00    -0.082 Cl
ATOM      6  C20 AZX d   1      -3.111  42.221   8.509  0.00  0.00    -0.038 A 
ATOM      7  C15 AZX d   1      -3.090  40.923   9.056  0.00  0.00     0.066 A 
ATOM      8  H6  AZX d   1      -4.367  39.116   6.390  0.00  0.00     0.087 H 
ATOM      9  H7  AZX d   1      -3.550  38.849   8.717  0.00  0.00     0.085 H 
ATOM     10  H8  AZX d   1      -2.780  43.068   9.100  0.00  0.00     0.088 H 
ENDROOT
BRANCH   7  11
ATOM     11  S12 AZX d   1      -2.588  40.741  10.614  0.00  0.00     0.206 S 
ATOM     12  O14 AZX d   1      -1.816  39.557  10.874  0.00  0.00    -0.217 OA
ATOM     13  O15 AZX d   1      -1.785  41.886  10.964  0.00  0.00    -0.217 OA
BRANCH  11  14
ATOM     14  C1  AZX d   1      -3.949  40.731  11.420  0.00  0.00     0.064 A 
ATOM     15  C6  AZX d   1      -4.499  41.929  11.893  0.00  0.00    -0.061 A 
ATOM     16  C5  AZX d   1      -5.702  41.928  12.598  0.00  0.00    -0.066 A 
ATOM     17  H9  AZX d   1      -3.985  42.865  11.709  0.00  0.00     0.085 H 
ATOM     18  C4  AZX d   1      -6.350  40.702  12.788  0.00  0.00     0.032 A 
ATOM     19  H10 AZX d   1      -6.122  42.848  12.987  0.00  0.00     0.085 H 
ATOM     20  C3  AZX d   1      -5.794  39.505  12.291  0.00  0.00    -0.066 A 
ATOM     21  C2  AZX d   1      -4.589  39.525  11.603  0.00  0.00    -0.061 A 
ATOM     22  H12 AZX d   1      -6.310  38.565  12.447  0.00  0.00     0.085 H 
ATOM     23  H11 AZX d   1      -4.159  38.608  11.216  0.00  0.00     0.085 H 
BRANCH  18  24
ATOM     24  C7  AZX d   1      -7.665  40.597  13.537  0.00  0.00     0.253 C 
ATOM     25  O8  AZX d   1      -7.735  39.693  14.386  0.00  0.00    -0.267 OA
ATOM     26  N9  AZX d   1      -8.702  41.437  13.266  0.00  0.00    -0.357 N 
BRANCH  26  27
ATOM     27  C11 AZX d   1      -8.839  42.231  12.044  0.00  0.00    -0.016 C 
ATOM     28  H13 AZX d   1      -9.768  42.818  12.090  0.00  0.00     0.056 H 
ATOM     29  H14 AZX d   1      -8.871  41.560  11.173  0.00  0.00     0.056 H 
ATOM     30  H15 AZX d   1      -7.980  42.912  11.951  0.00  0.00     0.056 H 
ENDBRANCH  26  27
BRANCH  26  31
ATOM     31  C10 AZX d   1      -9.832  41.626  14.186  0.00  0.00    -0.016 C 
ATOM     32  H16 AZX d   1      -9.680  41.010  15.084  0.00  0.00     0.056 H 
ATOM     33  H17 AZX d   1     -10.765  41.324  13.688  0.00  0.00     0.056 H 
ATOM     34  H18 AZX d   1      -9.896  42.685  14.475  0.00  0.00     0.056 H 
ENDBRANCH  26  31
ENDBRANCH  18  24
ENDBRANCH  11  14
ENDBRANCH   7  11
BRANCH   1  35
ATOM     35  N22 AZX d   1      -4.461  41.561   5.101  0.00  0.00    -0.323 N 
ATOM     36  C23 AZX d   1      -5.065  40.713   4.285  0.00  0.00     0.265 C 
ATOM     37  O28 AZX d   1      -5.456  39.622   4.662  0.00  0.00    -0.269 OA
ATOM     38  H5  AZX d   1      -4.291  42.487   4.764  0.00  0.00     0.169 HD
BRANCH  36  39
ATOM     39  C24 AZX d   1      -5.252  41.173   2.851  0.00  0.00     0.233 C 
BRANCH  39  40
ATOM     40  C27 AZX d   1      -4.367  40.327   1.928  0.00  0.00     0.427 C 
ATOM     41  F29 AZX d   1      -4.420  40.894   0.742  0.00  0.00    -0.167 F 
ATOM     42  F30 AZX d   1      -4.720  39.057   1.850  0.00  0.00    -0.167 F 
ATOM     43  F31 AZX d   1      -3.145  40.352   2.467  0.00  0.00    -0.167 F 
ENDBRANCH  39  40
BRANCH  39  44
ATOM     44  O25 AZX d   1      -4.735  42.521   2.738  0.00  0.00    -0.373 OA
ATOM     45  H1  AZX d   1      -5.244  43.102   3.291  0.00  0.00     0.211 HD
ENDBRANCH  39  44
BRANCH  39  46
ATOM     46  C26 AZX d   1      -6.718  41.208   2.459  0.00  0.00    -0.031 C 
ATOM     47  H2  AZX d   1      -7.273  41.834   3.172  0.00  0.00     0.032 H 
ATOM     48  H3  AZX d   1      -7.126  40.187   2.473  0.00  0.00     0.032 H 
ATOM     49  H4  AZX d   1      -6.817  41.629   1.447  0.00  0.00     0.032 H 
ENDBRANCH  39  46
ENDBRANCH  36  39
ENDBRANCH   1  35
TORSDOF 10
