REMARK  3 active torsions:
REMARK  status: ('A' for Active; 'I' for Inactive)
REMARK    1  A    between atoms: C3_3  and  O3_21 
REMARK    2  A    between atoms: C5_5  and  O4_22 
REMARK    3  A    between atoms: C17_17  and  C18_18 
ROOT
ATOM      1  C1  RDC d   1     -48.834  21.520  66.002  0.00  0.00     0.297 C 
ATOM      2  C2  RDC d   1     -49.983  21.349  66.913  0.00  0.00     0.081 A 
ATOM      3  C3  RDC d   1     -50.733  22.580  67.216  0.00  0.00     0.085 A 
ATOM      4  C4  RDC d   1     -51.840  22.577  68.054  0.00  0.00    -0.016 A 
ATOM      5  C5  RDC d   1     -52.225  21.357  68.579  0.00  0.00     0.090 A 
ATOM      6  C6  RDC d   1     -51.520  20.086  68.278  0.00  0.00     0.075 A 
ATOM      7  C7  RDC d   1     -50.360  20.025  67.462  0.00  0.00    -0.007 A 
ATOM      8  C8  RDC d   1     -49.726  18.681  67.168  0.00  0.00     0.021 C 
ATOM      9  C9  RDC d   1     -49.271  17.895  68.381  0.00  0.00     0.153 C 
ATOM     10  C10 RDC d   1     -48.586  18.524  69.577  0.00  0.00    -0.038 C 
ATOM     11  C11 RDC d   1     -47.643  19.445  69.354  0.00  0.00    -0.080 C 
ATOM     12  C12 RDC d   1     -46.919  20.130  70.440  0.00  0.00    -0.084 C 
ATOM     13  C13 RDC d   1     -46.286  21.307  70.284  0.00  0.00    -0.073 C 
ATOM     14  C14 RDC d   1     -46.274  22.075  68.977  0.00  0.00     0.080 A 
ATOM     15  C15 RDC d   1     -45.185  21.657  67.961  0.00  0.00     0.070 A 
ATOM     16  C16 RDC d   1     -45.488  22.252  66.560  0.00  0.00    -0.014 C 
ATOM     17  C17 RDC d   1     -46.427  21.382  65.731  0.00  0.00     0.047 C 
ATOM     18  O1  RDC d   1     -47.591  21.078  66.516  0.00  0.00    -0.312 OA
ATOM     19  O2  RDC d   1     -48.964  22.017  64.902  0.00  0.00    -0.259 OA
ATOM     20 CL1  RDC d   1     -52.014  18.527  68.921  0.00  0.00    -0.081 Cl
ATOM     21  O5  RDC d   1     -49.456  16.700  68.334  0.00  0.00    -0.293 OA
ATOM     22  O6  RDC d   1     -45.038  22.757  68.842  0.00  0.00    -0.371 OA
ATOM     23  H1  RDC d   1     -52.378  23.489  68.286  0.00  0.00     0.092 H 
ATOM     24  H2  RDC d   1     -48.849  18.853  66.527  0.00  0.00     0.052 H 
ATOM     25  H3  RDC d   1     -50.462  18.070  66.625  0.00  0.00     0.052 H 
ATOM     26  H4  RDC d   1     -48.855  18.234  70.592  0.00  0.00     0.089 H 
ATOM     27  H5  RDC d   1     -47.399  19.701  68.324  0.00  0.00     0.083 H 
ATOM     28  H6  RDC d   1     -46.895  19.658  71.421  0.00  0.00     0.083 H 
ATOM     29  H7  RDC d   1     -45.757  21.728  71.138  0.00  0.00     0.081 H 
ATOM     30  H8  RDC d   1     -47.256  22.471  68.679  0.00  0.00     0.093 H 
ATOM     31  H9  RDC d   1     -44.620  20.713  67.982  0.00  0.00     0.087 H 
ATOM     32  H10 RDC d   1     -44.540  22.362  66.014  0.00  0.00     0.040 H 
ATOM     33  H11 RDC d   1     -45.952  23.241  66.692  0.00  0.00     0.040 H 
ATOM     34  H12 RDC d   1     -46.706  21.901  64.802  0.00  0.00     0.083 H 
ENDROOT
BRANCH  17  35
ATOM     35  C18 RDC d   1     -45.741  20.036  65.419  0.00  0.00    -0.051 C 
ATOM     36  H13 RDC d   1     -46.419  19.409  64.821  0.00  0.00     0.030 H 
ATOM     37  H14 RDC d   1     -45.500  19.521  66.360  0.00  0.00     0.030 H 
ATOM     38  H15 RDC d   1     -44.816  20.219  64.853  0.00  0.00     0.030 H 
ENDBRANCH  17  35
BRANCH   3  39
ATOM     39  O3  RDC d   1     -50.238  23.691  66.601  0.00  0.00    -0.360 OA
ATOM     40  H16 RDC d   1     -49.480  23.452  66.080  0.00  0.00     0.217 HD
ENDBRANCH   3  39
BRANCH   5  41
ATOM     41  O4  RDC d   1     -53.275  21.251  69.417  0.00  0.00    -0.359 OA
ATOM     42  H17 RDC d   1     -53.661  22.109  69.550  0.00  0.00     0.217 HD
ENDBRANCH   5  41
TORSDOF 3
