REMARK  10 active torsions:
REMARK  status: ('A' for Active; 'I' for Inactive)
REMARK    1  A    between atoms: C1_2  and  C2_4 
REMARK    2  A    between atoms: C2_4  and  N1_5 
REMARK    3  A    between atoms: C2_4  and  C3_10 
REMARK    4  A    between atoms: C3_10  and  C4_11 
REMARK    5  A    between atoms: C7_14  and  C14_17 
REMARK    6  A    between atoms: C14_17  and  C15_18 
REMARK    7  A    between atoms: C15_18  and  C16_19 
REMARK    8  A    between atoms: C16_19  and  C17_20 
REMARK    9  A    between atoms: C19_21  and  C26_22 
REMARK   10  A    between atoms: C18_24  and  C20_26 
ROOT
ATOM      1  C14 L92 d   1      16.117  62.529  12.199  0.00  0.00    -0.041 C 
ATOM      2  H12 L92 d   1      16.367  63.561  11.913  0.00  0.00     0.040 H 
ATOM      3  H13 L92 d   1      15.051  62.469  12.463  0.00  0.00     0.040 H 
ENDROOT
BRANCH   1   4
ATOM      4  C7  L92 d   1      16.917  62.193  13.449  0.00  0.00    -0.058 A 
ATOM      5  C8  L92 d   1      18.285  61.927  13.460  0.00  0.00    -0.076 A 
ATOM      6  C9  L92 d   1      18.936  61.646  14.672  0.00  0.00    -0.076 A 
ATOM      7  H9  L92 d   1      18.846  61.937  12.533  0.00  0.00     0.084 H 
ATOM      8  C4  L92 d   1      18.223  61.638  15.877  0.00  0.00    -0.056 A 
ATOM      9  H8  L92 d   1      19.999  61.434  14.675  0.00  0.00     0.084 H 
ATOM     10  C5  L92 d   1      16.864  61.911  15.856  0.00  0.00    -0.076 A 
ATOM     11  C6  L92 d   1      16.223  62.192  14.659  0.00  0.00    -0.076 A 
ATOM     12  H11 L92 d   1      16.299  61.905  16.781  0.00  0.00     0.084 H 
ATOM     13  H10 L92 d   1      15.162  62.415  14.664  0.00  0.00     0.084 H 
BRANCH   8  14
ATOM     14  C3  L92 d   1      18.867  61.365  17.223  0.00  0.00    -0.012 C 
ATOM     15  H6  L92 d   1      18.269  60.631  17.783  0.00  0.00     0.044 H 
ATOM     16  H7  L92 d   1      19.886  60.975  17.079  0.00  0.00     0.044 H 
BRANCH  14  17
ATOM     17  C2  L92 d   1      18.918  62.701  17.994  0.00  0.00     0.103 C 
ATOM     18  H1  L92 d   1      17.942  63.187  17.850  0.00  0.00     0.090 H 
BRANCH  17  19
ATOM     19  C1  L92 d   1      19.127  62.523  19.473  0.00  0.00     0.197 C 
ATOM     20  O2  L92 d   1      18.363  63.137  20.251  0.00  0.00    -0.646 OA
ATOM     21  O1  L92 d   1      20.059  61.795  19.876  0.00  0.00    -0.646 OA
ENDBRANCH  17  19
BRANCH  17  22
ATOM     22  N1  L92 d   1      19.966  63.631  17.486  0.00  0.00    -0.351 N 
ATOM     23  C13 L92 d   1      20.953  63.384  16.610  0.00  0.00    -0.020 A 
ATOM     24  C12 L92 d   1      21.680  64.535  16.423  0.00  0.00    -0.067 A 
ATOM     25  H2  L92 d   1      21.146  62.428  16.127  0.00  0.00     0.111 H 
ATOM     26  C11 L92 d   1      21.106  65.504  17.211  0.00  0.00    -0.067 A 
ATOM     27  H3  L92 d   1      22.546  64.656  15.774  0.00  0.00     0.085 H 
ATOM     28  C10 L92 d   1      20.042  64.915  17.859  0.00  0.00    -0.020 A 
ATOM     29  H4  L92 d   1      21.430  66.539  17.305  0.00  0.00     0.085 H 
ATOM     30  H5  L92 d   1      19.373  65.412  18.560  0.00  0.00     0.111 H 
ENDBRANCH  17  22
ENDBRANCH  14  17
ENDBRANCH   8  14
ENDBRANCH   1   4
BRANCH   1  31
ATOM     31  C15 L92 d   1      16.336  61.651  10.978  0.00  0.00    -0.056 C 
ATOM     32  H14 L92 d   1      15.459  61.734  10.319  0.00  0.00     0.034 H 
ATOM     33  H15 L92 d   1      16.451  60.608  11.307  0.00  0.00     0.034 H 
BRANCH  31  34
ATOM     34  C16 L92 d   1      17.558  62.052  10.208  0.00  0.00    -0.022 C 
ATOM     35  H16 L92 d   1      17.625  61.344   9.369  0.00  0.00     0.042 H 
ATOM     36  H17 L92 d   1      18.405  61.892  10.891  0.00  0.00     0.042 H 
BRANCH  34  37
ATOM     37  C17 L92 d   1      17.770  63.398   9.615  0.00  0.00     0.066 A 
ATOM     38  C19 L92 d   1      18.882  63.772   8.925  0.00  0.00     0.076 A 
ATOM     39  O3  L92 d   1      18.759  65.060   8.528  0.00  0.00    -0.294 OA
ATOM     40  C18 L92 d   1      17.534  65.476   8.999  0.00  0.00     0.180 A 
ATOM     41  N2  L92 d   1      16.915  64.447   9.674  0.00  0.00    -0.226 NA
BRANCH  38  42
ATOM     42  C26 L92 d   1      20.082  62.977   8.596  0.00  0.00    -0.029 C 
ATOM     43  H18 L92 d   1      20.788  63.598   8.025  0.00  0.00     0.036 H 
ATOM     44  H19 L92 d   1      19.790  62.105   7.993  0.00  0.00     0.036 H 
ATOM     45  H20 L92 d   1      20.562  62.636   9.525  0.00  0.00     0.036 H 
ENDBRANCH  38  42
BRANCH  40  46
ATOM     46  C20 L92 d   1      17.066  66.767   8.776  0.00  0.00     0.017 A 
ATOM     47  C25 L92 d   1      15.829  67.181   9.257  0.00  0.00    -0.069 A 
ATOM     48  C24 L92 d   1      15.385  68.482   9.018  0.00  0.00    -0.082 A 
ATOM     49  H21 L92 d   1      15.209  66.492   9.819  0.00  0.00     0.085 H 
ATOM     50  C23 L92 d   1      16.180  69.371   8.300  0.00  0.00    -0.083 A 
ATOM     51  H22 L92 d   1      14.419  68.801   9.392  0.00  0.00     0.083 H 
ATOM     52  C22 L92 d   1      17.417  68.959   7.816  0.00  0.00    -0.082 A 
ATOM     53  H23 L92 d   1      15.835  70.383   8.118  0.00  0.00     0.083 H 
ATOM     54  C21 L92 d   1      17.858  67.663   8.056  0.00  0.00    -0.069 A 
ATOM     55  H24 L92 d   1      18.036  69.647   7.253  0.00  0.00     0.083 H 
ATOM     56  H25 L92 d   1      18.824  67.346   7.681  0.00  0.00     0.085 H 
ENDBRANCH  40  46
ENDBRANCH  34  37
ENDBRANCH  31  34
ENDBRANCH   1  31
TORSDOF 10
