REMARK WARNING: 32 MAX_TORS EXCEEDED!!!
REMARK  42 active torsions:
REMARK  status: ('A' for Active; 'I' for Inactive)
REMARK    1  A    between atoms: N_1  and  CA_2 
REMARK    2  A    between atoms: CA_2  and  C_3 
REMARK    3  A    between atoms: CA_2  and  CB_5 
REMARK       I    between atoms: C_3  and  N_10 
REMARK    4  A    between atoms: CB_5  and  CG_6 
REMARK    5  A    between atoms: CG_6  and  CD_7 
REMARK       I    between atoms: CD_7  and  NE2_9 
REMARK    6  A    between atoms: N_10  and  CA_11 
REMARK    7  A    between atoms: CA_11  and  C_12 
REMARK    8  A    between atoms: CA_11  and  CB_14 
REMARK       I    between atoms: C_12  and  N_22 
REMARK    9  A    between atoms: CB_14  and  CG_15 
REMARK   10  A    between atoms: CZ_20  and  OH_21 
REMARK   11  A    between atoms: N_22  and  CA_23 
REMARK   12  A    between atoms: CA_23  and  C_24 
REMARK   13  A    between atoms: CA_23  and  CB_26 
REMARK       I    between atoms: C_24  and  N_33 
REMARK   14  A    between atoms: CB_26  and  CG_27 
REMARK   15  A    between atoms: N_33  and  CA_34 
REMARK   16  A    between atoms: CA_34  and  C_35 
REMARK   17  A    between atoms: CA_34  and  CB_37 
REMARK       I    between atoms: C_35  and  N_41 
REMARK   18  A    between atoms: CB_37  and  CG_38 
REMARK   19  A    between atoms: CG_38  and  SD_39 
REMARK   20  A    between atoms: SD_39  and  CE_40 
REMARK   21  A    between atoms: N_41  and  CA_42 
REMARK   22  A    between atoms: CA_42  and  CB_43 
REMARK   23  A    between atoms: CA_42  and  C_50 
REMARK   24  A    between atoms: CB_43  and  CG2_44 
REMARK   25  A    between atoms: CB_43  and  OG1_45 
REMARK   26  A    between atoms: OG1_45  and  P_46 
REMARK       I    between atoms: C_50  and  N_52 
REMARK   27  A    between atoms: N_52  and  CA_53 
REMARK   28  A    between atoms: CA_53  and  C_54 
REMARK   29  A    between atoms: CA_53  and  CB_56 
REMARK       I    between atoms: C_54  and  N_61 
REMARK   30  A    between atoms: CB_56  and  CG_57 
REMARK   31  A    between atoms: CG_57  and  CD_58 
REMARK   32  A    between atoms: N_61  and  CA_62 
REMARK   33  A    between atoms: CA_62  and  C_63 
REMARK   34  A    between atoms: CA_62  and  CB_65 
REMARK       I    between atoms: C_63  and  N_77 
REMARK   35  A    between atoms: CB_65  and  CG_66 
REMARK   36  A    between atoms: CZ_71  and  OH_72 
REMARK   37  A    between atoms: OH_72  and  P_73 
REMARK   38  A    between atoms: N_77  and  CA_78 
REMARK   39  A    between atoms: CA_78  and  C_79 
REMARK       I    between atoms: C_79  and  N_81 
REMARK   40  A    between atoms: N_81  and  CA_82 
REMARK   41  A    between atoms: CA_82  and  C_83 
REMARK   42  A    between atoms: CA_82  and  CB_85 
ROOT
ATOM      1  C   MET d   1       3.599  -4.686  -5.788  0.00  0.00     0.241 C 
ATOM      2  O   MET d   1       4.193  -5.584  -5.192  0.00  0.00    -0.271 OA
ATOM      3  N   TPO d   1       3.968  -4.240  -6.987  0.00  0.00    -0.344 N 
ATOM      4  H38 TPO d   1       3.392  -3.571  -7.457  0.00  0.00     0.163 HD
ENDROOT
BRANCH   1   5
ATOM      5  CA  MET d   1       2.379  -4.014  -5.167  0.00  0.00     0.090 C 
ATOM      6  H30 MET d   1       1.903  -3.388  -5.936  0.00  0.00     0.087 H 
BRANCH   5   7
ATOM      7  N   MET d   1       1.407  -5.002  -4.718  0.00  0.00    -0.346 N 
ATOM      8  C   PHE d   1       0.540  -5.579  -5.545  0.00  0.00     0.241 C 
ATOM      9  O   PHE d   1       0.520  -5.370  -6.762  0.00  0.00    -0.271 OA
ATOM     10  H29 MET d   1       1.391  -5.256  -3.751  0.00  0.00     0.163 HD
BRANCH   8  11
ATOM     11  CA  PHE d   1      -0.458  -6.546  -4.907  0.00  0.00     0.093 C 
ATOM     12  H21 PHE d   1      -0.165  -7.556  -5.228  0.00  0.00     0.088 H 
BRANCH  11  13
ATOM     13  N   PHE d   1      -0.467  -6.557  -3.439  0.00  0.00    -0.346 N 
ATOM     14  C   TYR d   1      -0.118  -7.646  -2.756  0.00  0.00     0.241 C 
ATOM     15  O   TYR d   1       0.474  -8.596  -3.280  0.00  0.00    -0.271 OA
ATOM     16  H20 PHE d   1      -0.740  -5.733  -2.943  0.00  0.00     0.163 HD
BRANCH  14  17
ATOM     17  CA  TYR d   1      -0.476  -7.684  -1.262  0.00  0.00     0.093 C 
ATOM     18  H12 TYR d   1       0.420  -8.021  -0.721  0.00  0.00     0.088 H 
BRANCH  17  19
ATOM     19  N   TYR d   1      -0.869  -6.392  -0.677  0.00  0.00    -0.346 N 
ATOM     20  C   GLN d   1       0.004  -5.580  -0.080  0.00  0.00     0.249 C 
ATOM     21  O   GLN d   1       1.217  -5.791  -0.067  0.00  0.00    -0.271 OA
ATOM     22  H11 TYR d   1      -1.828  -6.112  -0.729  0.00  0.00     0.163 HD
BRANCH  20  23
ATOM     23  CA  GLN d   1      -0.567  -4.334   0.607  0.00  0.00     0.176 C 
ATOM     24  H4  GLN d   1       0.269  -3.656   0.834  0.00  0.00     0.099 H 
BRANCH  23  25
ATOM     25  N   GLN d   1      -1.522  -3.615  -0.281  0.00  0.00    -0.066 N 
ATOM     26  H1  GLN d   1      -1.879  -2.803   0.197  0.00  0.00     0.275 HD
ATOM     27  H2  GLN d   1      -2.286  -4.228  -0.519  0.00  0.00     0.275 HD
ATOM     28  H3  GLN d   1      -1.047  -3.328  -1.122  0.00  0.00     0.275 HD
ENDBRANCH  23  25
BRANCH  23  29
ATOM     29  CB  GLN d   1      -1.259  -4.705   1.924  0.00  0.00    -0.022 C 
ATOM     30  H5  GLN d   1      -2.027  -5.461   1.702  0.00  0.00     0.037 H 
ATOM     31  H6  GLN d   1      -1.740  -3.799   2.321  0.00  0.00     0.037 H 
BRANCH  29  32
ATOM     32  CG  GLN d   1      -0.343  -5.269   3.014  0.00  0.00     0.011 C 
ATOM     33  H7  GLN d   1       0.267  -4.450   3.421  0.00  0.00     0.047 H 
ATOM     34  H8  GLN d   1       0.315  -6.028   2.565  0.00  0.00     0.047 H 
BRANCH  32  35
ATOM     35  CD  GLN d   1      -1.124  -5.911   4.154  0.00  0.00     0.215 C 
ATOM     36  OE1 GLN d   1      -0.572  -6.672   4.956  0.00  0.00    -0.274 OA
ATOM     37  NE2 GLN d   1      -2.416  -5.616   4.225  0.00  0.00    -0.370 N 
ATOM     38  H9  GLN d   1      -2.979  -6.008   4.952  0.00  0.00     0.159 HD
ATOM     39  H10 GLN d   1      -2.826  -5.002   3.551  0.00  0.00     0.159 HD
ENDBRANCH  32  35
ENDBRANCH  29  32
ENDBRANCH  23  29
ENDBRANCH  20  23
ENDBRANCH  17  19
BRANCH  17  40
ATOM     40  CB  TYR d   1      -1.587  -8.725  -1.049  0.00  0.00    -0.014 C 
ATOM     41  H13 TYR d   1      -1.301  -9.641  -1.587  0.00  0.00     0.043 H 
ATOM     42  H14 TYR d   1      -2.516  -8.322  -1.479  0.00  0.00     0.043 H 
BRANCH  40  43
ATOM     43  CG  TYR d   1      -1.865  -9.099   0.397  0.00  0.00    -0.056 A 
ATOM     44  CD1 TYR d   1      -0.847  -9.568   1.230  0.00  0.00    -0.074 A 
ATOM     45  CE1 TYR d   1      -1.103  -9.922   2.553  0.00  0.00    -0.051 A 
ATOM     46  H15 TYR d   1       0.161  -9.658   0.840  0.00  0.00     0.084 H 
ATOM     47  CZ  TYR d   1      -2.393  -9.823   3.055  0.00  0.00     0.065 A 
ATOM     48  H17 TYR d   1      -0.298 -10.273   3.188  0.00  0.00     0.087 H 
ATOM     49  CE2 TYR d   1      -3.422  -9.373   2.249  0.00  0.00    -0.051 A 
ATOM     50  CD2 TYR d   1      -3.156  -9.017   0.922  0.00  0.00    -0.074 A 
ATOM     51  H18 TYR d   1      -4.429  -9.296   2.643  0.00  0.00     0.087 H 
ATOM     52  H16 TYR d   1      -3.967  -8.671   0.291  0.00  0.00     0.084 H 
BRANCH  47  53
ATOM     53  OH  TYR d   1      -2.642 -10.179   4.364  0.00  0.00    -0.361 OA
ATOM     54  H19 TYR d   1      -1.833 -10.463   4.773  0.00  0.00     0.217 HD
ENDBRANCH  47  53
ENDBRANCH  40  43
ENDBRANCH  17  40
ENDBRANCH  14  17
ENDBRANCH  11  13
BRANCH  11  55
ATOM     55  CB  PHE d   1      -1.875  -6.284  -5.436  0.00  0.00    -0.014 C 
ATOM     56  H22 PHE d   1      -1.898  -6.532  -6.508  0.00  0.00     0.043 H 
ATOM     57  H23 PHE d   1      -2.105  -5.217  -5.301  0.00  0.00     0.043 H 
BRANCH  55  58
ATOM     58  CG  PHE d   1      -2.934  -7.089  -4.740  0.00  0.00    -0.056 A 
ATOM     59  CD1 PHE d   1      -3.646  -6.546  -3.670  0.00  0.00    -0.077 A 
ATOM     60  CE1 PHE d   1      -4.619  -7.288  -3.013  0.00  0.00    -0.082 A 
ATOM     61  H24 PHE d   1      -3.437  -5.532  -3.348  0.00  0.00     0.084 H 
ATOM     62  CZ  PHE d   1      -4.893  -8.590  -3.429  0.00  0.00    -0.083 A 
ATOM     63  H26 PHE d   1      -5.163  -6.857  -2.180  0.00  0.00     0.083 H 
ATOM     64  CE2 PHE d   1      -4.182  -9.140  -4.496  0.00  0.00    -0.082 A 
ATOM     65  H28 PHE d   1      -5.656  -9.173  -2.925  0.00  0.00     0.083 H 
ATOM     66  CD2 PHE d   1      -3.209  -8.391  -5.142  0.00  0.00    -0.077 A 
ATOM     67  H27 PHE d   1      -4.390 -10.153  -4.821  0.00  0.00     0.083 H 
ATOM     68  H25 PHE d   1      -2.658  -8.825  -5.968  0.00  0.00     0.084 H 
ENDBRANCH  55  58
ENDBRANCH  11  55
ENDBRANCH   8  11
ENDBRANCH   5   7
BRANCH   5  69
ATOM     69  CB  MET d   1       2.802  -3.109  -4.003  0.00  0.00    -0.030 C 
ATOM     70  H31 MET d   1       3.538  -2.383  -4.380  0.00  0.00     0.037 H 
ATOM     71  H32 MET d   1       3.269  -3.737  -3.230  0.00  0.00     0.037 H 
BRANCH  69  72
ATOM     72  CG  MET d   1       1.643  -2.331  -3.358  0.00  0.00    -0.021 C 
ATOM     73  H33 MET d   1       0.925  -3.056  -2.947  0.00  0.00     0.049 H 
ATOM     74  H34 MET d   1       1.152  -1.731  -4.138  0.00  0.00     0.049 H 
BRANCH  72  75
ATOM     75  SD  MET d   1       2.159  -1.223  -2.027  0.00  0.00    -0.173 SA
BRANCH  75  76
ATOM     76  CE  MET d   1       2.622  -2.390  -0.742  0.00  0.00    -0.035 C 
ATOM     77  H35 MET d   1       2.964  -1.840   0.147  0.00  0.00     0.041 H 
ATOM     78  H36 MET d   1       3.434  -3.036  -1.108  0.00  0.00     0.041 H 
ATOM     79  H37 MET d   1       1.752  -3.009  -0.478  0.00  0.00     0.041 H 
ENDBRANCH  75  76
ENDBRANCH  72  75
ENDBRANCH  69  72
ENDBRANCH   5  69
ENDBRANCH   1   5
BRANCH   3  80
ATOM     80  CA  TPO d   1       5.202  -4.706  -7.638  0.00  0.00     0.114 C 
ATOM     81  H39 TPO d   1       5.379  -5.729  -7.274  0.00  0.00     0.091 H 
BRANCH  80  82
ATOM     82  CB  TPO d   1       5.069  -4.808  -9.172  0.00  0.00     0.076 C 
ATOM     83  H40 TPO d   1       5.953  -5.374  -9.502  0.00  0.00     0.087 H 
BRANCH  82  84
ATOM     84  CG2 TPO d   1       3.854  -5.631  -9.616  0.00  0.00    -0.049 C 
ATOM     85  H41 TPO d   1       3.816  -5.665 -10.715  0.00  0.00     0.031 H 
ATOM     86  H42 TPO d   1       2.935  -5.165  -9.232  0.00  0.00     0.031 H 
ATOM     87  H43 TPO d   1       3.939  -6.654  -9.220  0.00  0.00     0.031 H 
ENDBRANCH  82  84
BRANCH  82  88
ATOM     88  OG1 TPO d   1       5.135  -3.547  -9.867  0.00  0.00    -0.275 OA
BRANCH  88  89
ATOM     89  P   TPO d   1       4.292  -2.188  -9.591  0.00  0.00     0.422 P 
ATOM     90  O1P TPO d   1       5.134  -1.399  -8.622  0.00  0.00    -0.617 OA
ATOM     91  O2P TPO d   1       4.176  -1.562 -10.953  0.00  0.00    -0.617 OA
ATOM     92  O3P TPO d   1       2.953  -2.594  -9.008  0.00  0.00    -0.617 OA
ENDBRANCH  88  89
ENDBRANCH  82  88
ENDBRANCH  80  82
BRANCH  80  93
ATOM     93  C   TPO d   1       6.402  -3.886  -7.222  0.00  0.00     0.243 C 
ATOM     94  O   TPO d   1       7.442  -3.911  -7.879  0.00  0.00    -0.271 OA
ATOM     95  N   GLU d   1       6.263  -3.158  -6.115  0.00  0.00    -0.346 N 
ATOM     96  H44 GLU d   1       5.392  -3.192  -5.625  0.00  0.00     0.163 HD
BRANCH  95  97
ATOM     97  CA  GLU d   1       7.334  -2.311  -5.588  0.00  0.00     0.090 C 
ATOM     98  H45 GLU d   1       7.620  -1.593  -6.371  0.00  0.00     0.087 H 
BRANCH  97  99
ATOM     99  C   GLU d   1       8.573  -3.134  -5.219  0.00  0.00     0.241 C 
ATOM    100  O   GLU d   1       8.461  -4.264  -4.733  0.00  0.00    -0.271 OA
ATOM    101  N   PTR d   1       9.754  -2.600  -5.480  0.00  0.00    -0.346 N 
ATOM    102  H50 PTR d   1       9.780  -1.736  -5.982  0.00  0.00     0.163 HD
BRANCH 101 103
ATOM    103  CA  PTR d   1      11.031  -3.205  -5.074  0.00  0.00     0.093 C 
ATOM    104  H51 PTR d   1      11.130  -4.216  -5.497  0.00  0.00     0.088 H 
BRANCH 103 105
ATOM    105  C   PTR d   1      11.097  -3.241  -3.557  0.00  0.00     0.241 C 
ATOM    106  O   PTR d   1      11.062  -2.253  -2.937  0.00  0.00    -0.271 OA
ATOM    107  N   VAL d   1      11.177  -4.392  -2.969  0.00  0.00    -0.351 N 
ATOM    108  H58 VAL d   1      11.076  -5.232  -3.503  0.00  0.00     0.163 HD
BRANCH 107 109
ATOM    109  CA  VAL d   1      11.411  -4.468  -1.548  0.00  0.00     0.069 C 
ATOM    110  H59 VAL d   1      10.667  -5.140  -1.096  0.00  0.00     0.078 H 
ATOM    111  H60 VAL d   1      11.310  -3.463  -1.112  0.00  0.00     0.078 H 
BRANCH 109 112
ATOM    112  C   VAL d   1      12.804  -4.999  -1.254  0.00  0.00     0.235 C 
ATOM    113  O   VAL d   1      13.208  -5.985  -1.819  0.00  0.00    -0.272 OA
ATOM    114  N   ALA d   1      13.514  -4.353  -0.347  0.00  0.00    -0.349 N 
ATOM    115  H61 ALA d   1      13.099  -3.576   0.127  0.00  0.00     0.163 HD
BRANCH 114 116
ATOM    116  CA  ALA d   1      14.880  -4.732  -0.012  0.00  0.00     0.059 C 
ATOM    117  H62 ALA d   1      15.379  -4.848  -0.985  0.00  0.00     0.083 H 
BRANCH 116 118
ATOM    118  C   ALA d   1      15.102  -6.038   0.685  0.00  0.00     0.109 C 
ATOM    119  O   ALA d   1      14.214  -6.648   1.195  0.00  0.00    -0.305 OA
ATOM    120  H63 ALA d   1      16.111  -6.445   0.728  0.00  0.00     0.146 H 
ENDBRANCH 116 118
BRANCH 116 121
ATOM    121  CB  ALA d   1      15.583  -3.663   0.672  0.00  0.00    -0.051 C 
ATOM    122  H64 ALA d   1      16.607  -3.989   0.906  0.00  0.00     0.030 H 
ATOM    123  H65 ALA d   1      15.055  -3.415   1.604  0.00  0.00     0.030 H 
ATOM    124  H66 ALA d   1      15.620  -2.775   0.024  0.00  0.00     0.030 H 
ENDBRANCH 116 121
ENDBRANCH 114 116
ENDBRANCH 109 112
ENDBRANCH 107 109
ENDBRANCH 103 105
BRANCH 103 125
ATOM    125  CB  PTR d   1      12.168  -2.310  -5.534  0.00  0.00    -0.014 C 
ATOM    126  H52 PTR d   1      12.064  -1.347  -5.013  0.00  0.00     0.043 H 
ATOM    127  H53 PTR d   1      12.051  -2.155  -6.617  0.00  0.00     0.043 H 
BRANCH 125 128
ATOM    128  CG  PTR d   1      13.559  -2.803  -5.297  0.00  0.00    -0.056 A 
ATOM    129  CD1 PTR d   1      14.209  -3.518  -6.256  0.00  0.00    -0.074 A 
ATOM    130  CE1 PTR d   1      15.478  -3.986  -6.063  0.00  0.00    -0.050 A 
ATOM    131  H54 PTR d   1      13.708  -3.721  -7.195  0.00  0.00     0.084 H 
ATOM    132  CZ  PTR d   1      16.163  -3.713  -4.919  0.00  0.00     0.082 A 
ATOM    133  H56 PTR d   1      15.948  -4.585  -6.835  0.00  0.00     0.087 H 
ATOM    134  CE2 PTR d   1      15.546  -2.956  -3.950  0.00  0.00    -0.050 A 
ATOM    135  CD2 PTR d   1      14.251  -2.522  -4.134  0.00  0.00    -0.074 A 
ATOM    136  H57 PTR d   1      16.079  -2.701  -3.041  0.00  0.00     0.087 H 
ATOM    137  H55 PTR d   1      13.766  -1.949  -3.352  0.00  0.00     0.084 H 
BRANCH 132 138
ATOM    138  OH  PTR d   1      17.317  -4.132  -4.858  0.00  0.00    -0.240 OA
BRANCH 138 139
ATOM    139  P   PTR d   1      18.125  -4.711  -3.626  0.00  0.00     0.427 P 
ATOM    140  O1P PTR d   1      18.227  -3.725  -2.696  0.00  0.00    -0.617 OA
ATOM    141  O2P PTR d   1      17.384  -5.771  -2.999  0.00  0.00    -0.617 OA
ATOM    142  O3P PTR d   1      19.420  -5.213  -4.048  0.00  0.00    -0.617 OA
ENDBRANCH 138 139
ENDBRANCH 132 138
ENDBRANCH 125 128
ENDBRANCH 103 125
ENDBRANCH 101 103
ENDBRANCH  97  99
BRANCH  97 143
ATOM    143  CB  GLU d   1       6.834  -1.523  -4.367  0.00  0.00    -0.029 C 
ATOM    144  H46 GLU d   1       6.857  -2.193  -3.495  0.00  0.00     0.037 H 
ATOM    145  H47 GLU d   1       5.797  -1.212  -4.563  0.00  0.00     0.037 H 
BRANCH 143 146
ATOM    146  CG  GLU d   1       7.650  -0.272  -4.027  0.00  0.00     0.018 C 
ATOM    147  H48 GLU d   1       8.684  -0.431  -4.368  0.00  0.00     0.049 H 
ATOM    148  H49 GLU d   1       7.640  -0.139  -2.935  0.00  0.00     0.049 H 
BRANCH 146 149
ATOM    149  CD  GLU d   1       7.123   1.015  -4.673  0.00  0.00     0.172 C 
ATOM    150  OE1 GLU d   1       7.476   2.106  -4.172  0.00  0.00    -0.648 OA
ATOM    151  OE2 GLU d   1       6.363   0.952  -5.666  0.00  0.00    -0.648 OA
ENDBRANCH 146 149
ENDBRANCH 143 146
ENDBRANCH  97 143
ENDBRANCH  95  97
ENDBRANCH  80  93
ENDBRANCH   3  80
TORSDOF 42
