REMARK  3 active torsions:
REMARK  status: ('A' for Active; 'I' for Inactive)
REMARK    1  A    between atoms: CAE_2  and  CAA_4 
REMARK    2  A    between atoms: CAB_8  and  CAF_9 
REMARK    3  A    between atoms: CAH_14  and  NAL_15 
ROOT
ATOM      1  CAF B23 d   1      -4.153  -0.455   8.747  0.00  0.00     0.031 A 
ATOM      2  CAG B23 d   1      -4.312  -1.287   7.648  0.00  0.00    -0.068 A 
ATOM      3  CAJ B23 d   1      -5.585  -1.634   7.192  0.00  0.00    -0.082 A 
ATOM      4  CAI B23 d   1      -6.702  -1.139   7.851  0.00  0.00    -0.081 A 
ATOM      5  CAK B23 d   1      -6.544  -0.303   8.947  0.00  0.00    -0.050 A 
ATOM      6  CAH B23 d   1      -5.274   0.051   9.397  0.00  0.00     0.115 A 
ATOM      7  H3  B23 d   1      -3.437  -1.672   7.137  0.00  0.00     0.085 H 
ATOM      8  H4  B23 d   1      -5.700  -2.284   6.332  0.00  0.00     0.083 H 
ATOM      9  H5  B23 d   1      -7.696  -1.405   7.510  0.00  0.00     0.083 H 
ATOM     10  H6  B23 d   1      -7.419   0.079   9.459  0.00  0.00     0.087 H 
ENDROOT
BRANCH   1  11
ATOM     11  CAB B23 d   1      -2.857  -0.230   9.194  0.00  0.00     0.089 A 
ATOM     12  OAM B23 d   1      -1.812  -0.206   8.313  0.00  0.00    -0.303 OA
ATOM     13  CAA B23 d   1      -0.703  -0.056   9.091  0.00  0.00     0.152 A 
ATOM     14  CAC B23 d   1      -1.051   0.007  10.372  0.00  0.00    -0.041 A 
ATOM     15  CAD B23 d   1      -2.376  -0.101  10.431  0.00  0.00    -0.046 A 
ATOM     16  H1  B23 d   1      -0.376   0.125  11.218  0.00  0.00     0.088 H 
ATOM     17  H2  B23 d   1      -2.972  -0.086  11.343  0.00  0.00     0.087 H 
BRANCH  13  18
ATOM     18  CAE B23 d   1       0.718   0.031   8.530  0.00  0.00     0.234 C 
ATOM     19  OAN B23 d   1       1.666   0.218   9.324  0.00  0.00    -0.642 OA
ATOM     20  OAO B23 d   1       0.848  -0.097   7.294  0.00  0.00    -0.642 OA
ENDBRANCH  13  18
ENDBRANCH   1  11
BRANCH   6  21
ATOM     21  NAL B23 d   1      -5.196   0.970  10.360  0.00  0.00    -0.115 N 
ATOM     22  OAQ B23 d   1      -3.965   1.575  10.727  0.00  0.00    -0.532 OA
ATOM     23  OAP B23 d   1      -6.389   1.418  10.985  0.00  0.00    -0.532 OA
ENDBRANCH   6  21
TORSDOF 3
