REMARK  4 active torsions:
REMARK  status: ('A' for Active; 'I' for Inactive)
REMARK    1  A    between atoms: CAL_1  and  OAP_2 
REMARK    2  A    between atoms: OAP_2  and  CAH_3 
REMARK    3  A    between atoms: CAF_8  and  CAB_9 
REMARK    4  A    between atoms: CAA_13  and  CAE_14 
ROOT
ATOM      1  CAH B21 d   1      -5.533  -0.998   9.191  0.00  0.00     0.081 A 
ATOM      2  CAK B21 d   1      -6.703  -1.542   8.688  0.00  0.00    -0.050 A 
ATOM      3  CAI B21 d   1      -6.689  -2.308   7.528  0.00  0.00    -0.080 A 
ATOM      4  CAJ B21 d   1      -5.482  -2.530   6.859  0.00  0.00    -0.082 A 
ATOM      5  CAG B21 d   1      -4.314  -1.988   7.359  0.00  0.00    -0.068 A 
ATOM      6  CAF B21 d   1      -4.326  -1.226   8.520  0.00  0.00     0.031 A 
ATOM      7  H4  B21 d   1      -7.640  -1.369   9.204  0.00  0.00     0.087 H 
ATOM      8  H5  B21 d   1      -7.610  -2.731   7.144  0.00  0.00     0.083 H 
ATOM      9  H6  B21 d   1      -5.463  -3.124   5.953  0.00  0.00     0.083 H 
ATOM     10  H7  B21 d   1      -3.378  -2.159   6.840  0.00  0.00     0.085 H 
ENDROOT
BRANCH   6  11
ATOM     11  CAB B21 d   1      -3.124  -0.723   9.012  0.00  0.00     0.089 A 
ATOM     12  OAM B21 d   1      -2.023  -0.661   8.208  0.00  0.00    -0.303 OA
ATOM     13  CAA B21 d   1      -1.027  -0.213   9.024  0.00  0.00     0.152 A 
ATOM     14  CAC B21 d   1      -1.504  -0.007  10.255  0.00  0.00    -0.041 A 
ATOM     15  CAD B21 d   1      -2.799  -0.324  10.233  0.00  0.00    -0.046 A 
ATOM     16  H9  B21 d   1      -0.941   0.352  11.115  0.00  0.00     0.088 H 
ATOM     17  H8  B21 d   1      -3.479  -0.265  11.081  0.00  0.00     0.087 H 
BRANCH  13  18
ATOM     18  CAE B21 d   1       0.421  -0.029   8.576  0.00  0.00     0.234 C 
ATOM     19  OAO B21 d   1       0.676  -0.247   7.369  0.00  0.00    -0.642 OA
ATOM     20  OAN B21 d   1       1.272   0.320   9.425  0.00  0.00    -0.642 OA
ENDBRANCH  13  18
ENDBRANCH   6  11
BRANCH   1  21
ATOM     21  OAP B21 d   1      -5.543  -0.264  10.332  0.00  0.00    -0.355 OA
BRANCH  21  22
ATOM     22  CAL B21 d   1      -6.713   0.558  10.394  0.00  0.00     0.010 C 
ATOM     23  H1  B21 d   1      -6.701   1.143  11.325  0.00  0.00     0.066 H 
ATOM     24  H2  B21 d   1      -7.610  -0.079  10.373  0.00  0.00     0.066 H 
ATOM     25  H3  B21 d   1      -6.728   1.241   9.532  0.00  0.00     0.066 H 
ENDBRANCH  21  22
ENDBRANCH   1  21
TORSDOF 4
