REMARK  4 active torsions:
REMARK  status: ('A' for Active; 'I' for Inactive)
REMARK    1  A    between atoms: CAB_2  and  CAA_4 
REMARK    2  A    between atoms: CAC_8  and  CAG_9 
REMARK    3  A    between atoms: CAJ_14  and  OAS_15 
REMARK    4  A    between atoms: OAS_15  and  CAL_16 
ROOT
ATOM      1  CAG A04 d   1      -4.059  -0.983   8.651  0.00  0.00     0.031 A 
ATOM      2  CAK A04 d   1      -4.151  -1.638   7.433  0.00  0.00    -0.068 A 
ATOM      3  CAH A04 d   1      -5.396  -1.927   6.879  0.00  0.00    -0.082 A 
ATOM      4  CAF A04 d   1      -6.551  -1.557   7.554  0.00  0.00    -0.080 A 
ATOM      5  CAI A04 d   1      -6.458  -0.900   8.777  0.00  0.00    -0.050 A 
ATOM      6  CAJ A04 d   1      -5.219  -0.608   9.331  0.00  0.00     0.091 A 
ATOM      7  H3  A04 d   1      -3.248  -1.927   6.908  0.00  0.00     0.085 H 
ATOM      8  H4  A04 d   1      -5.463  -2.438   5.926  0.00  0.00     0.083 H 
ATOM      9  H5  A04 d   1      -7.523  -1.779   7.129  0.00  0.00     0.083 H 
ATOM     10  H6  A04 d   1      -7.362  -0.613   9.302  0.00  0.00     0.087 H 
ENDROOT
BRANCH   1  11
ATOM     11  CAC A04 d   1      -2.793  -0.722   9.163  0.00  0.00     0.089 A 
ATOM     12  OAP A04 d   1      -1.729  -0.628   8.319  0.00  0.00    -0.303 OA
ATOM     13  CAA A04 d   1      -0.665  -0.363   9.130  0.00  0.00     0.152 A 
ATOM     14  CAD A04 d   1      -1.061  -0.305  10.397  0.00  0.00    -0.041 A 
ATOM     15  CAE A04 d   1      -2.376  -0.528  10.413  0.00  0.00    -0.046 A 
ATOM     16  H1  A04 d   1      -0.429  -0.111  11.262  0.00  0.00     0.088 H 
ATOM     17  H2  A04 d   1      -3.005  -0.548  11.302  0.00  0.00     0.087 H 
BRANCH  13  18
ATOM     18  CAB A04 d   1       0.746  -0.143   8.584  0.00  0.00     0.234 C 
ATOM     19  OAQ A04 d   1       1.679   0.099   9.378  0.00  0.00    -0.642 OA
ATOM     20  OAR A04 d   1       0.879  -0.221   7.342  0.00  0.00    -0.642 OA
ENDBRANCH  13  18
ENDBRANCH   1  11
BRANCH   6  21
ATOM     21  OAS A04 d   1      -5.145   0.037  10.527  0.00  0.00    -0.254 OA
BRANCH  21  22
ATOM     22  CAL A04 d   1      -5.232   1.467  10.473  0.00  0.00     0.530 C 
ATOM     23  FAN A04 d   1      -4.272   1.996   9.722  0.00  0.00    -0.144 F 
ATOM     24  FAO A04 d   1      -6.405   1.865   9.990  0.00  0.00    -0.144 F 
ATOM     25  FAM A04 d   1      -5.103   1.927  11.713  0.00  0.00    -0.144 F 
ENDBRANCH  21  22
ENDBRANCH   6  21
TORSDOF 4
