REMARK  3 active torsions:
REMARK  status: ('A' for Active; 'I' for Inactive)
REMARK    1  A    between atoms: CAB_2  and  CAA_4 
REMARK    2  A    between atoms: CAC_8  and  CAG_9 
REMARK    3  A    between atoms: CAF_12  and  NAL_13 
ROOT
ATOM      1  CAG A05 d   1      -4.521  -1.233   8.446  0.00  0.00     0.020 A 
ATOM      2  CAK A05 d   1      -4.376  -1.964   7.275  0.00  0.00    -0.066 A 
ATOM      3  CAH A05 d   1      -5.366  -2.507   6.462  0.00  0.00    -0.050 A 
ATOM      4  CAF A05 d   1      -6.773  -2.357   7.046  0.00  0.00     0.104 A 
ATOM      5  CAI A05 d   1      -7.060  -1.609   8.350  0.00  0.00    -0.029 A 
ATOM      6  CAJ A05 d   1      -5.795  -0.985   8.943  0.00  0.00     0.049 A 
ATOM      7 CLAR A05 d   1      -6.021   0.069  10.296  0.00  0.00    -0.083 Cl
ATOM      8  H3  A05 d   1      -3.356  -2.135   6.951  0.00  0.00     0.085 H 
ATOM      9  H4  A05 d   1      -5.162  -2.987   5.512  0.00  0.00     0.087 H 
ATOM     10  H5  A05 d   1      -8.043  -1.531   8.800  0.00  0.00     0.089 H 
ENDROOT
BRANCH   1  11
ATOM     11  CAC A05 d   1      -3.350  -0.803   9.069  0.00  0.00     0.088 C 
ATOM     12  OAM A05 d   1      -2.207  -0.705   8.329  0.00  0.00    -0.303 OA
ATOM     13  CAA A05 d   1      -1.167  -0.280   9.106  0.00  0.00     0.152 C 
ATOM     14  CAD A05 d   1      -1.619  -0.002  10.541  0.00  0.00    -0.041 C 
ATOM     15  CAE A05 d   1      -3.062  -0.511  10.542  0.00  0.00    -0.046 C 
ATOM     16  H1  A05 d   1      -1.055   0.446  11.358  0.00  0.00     0.088 H 
ATOM     17  H2  A05 d   1      -3.729  -0.636  11.394  0.00  0.00     0.087 H 
BRANCH  13  18
ATOM     18  CAB A05 d   1       0.247  -0.082   8.561  0.00  0.00     0.234 C 
ATOM     19  OAN A05 d   1       1.155   0.266   9.350  0.00  0.00    -0.642 OA
ATOM     20  OAO A05 d   1       0.418  -0.275   7.340  0.00  0.00    -0.642 OA
ENDBRANCH  13  18
ENDBRANCH   1  11
BRANCH   4  21
ATOM     21  NAL A05 d   1      -7.794  -2.896   6.388  0.00  0.00    -0.116 N 
ATOM     22  OAQ A05 d   1      -7.565  -3.585   5.167  0.00  0.00    -0.532 OA
ATOM     23  OAP A05 d   1      -9.112  -2.774   6.904  0.00  0.00    -0.532 OA
ENDBRANCH   4  21
TORSDOF 3
