REMARK  3 active torsions:
REMARK  status: ('A' for Active; 'I' for Inactive)
REMARK    1  A    between atoms: CAE_2  and  CAA_4 
REMARK    2  A    between atoms: CAD_8  and  CAL_9 
REMARK    3  A    between atoms: CAL_9  and  CAK_10 
ROOT
ATOM      1  CAL A18 d   1      -4.413  -0.534   8.416  0.00  0.00     0.005 C 
ATOM      2  H3  A18 d   1      -4.453  -1.361   7.692  0.00  0.00     0.050 H 
ATOM      3  H4  A18 d   1      -4.651   0.411   7.906  0.00  0.00     0.050 H 
ENDROOT
BRANCH   1   4
ATOM      4  CAD A18 d   1      -3.003  -0.447   9.000  0.00  0.00     0.058 A 
ATOM      5  OAM A18 d   1      -1.921  -0.276   8.191  0.00  0.00    -0.308 OA
ATOM      6  CAA A18 d   1      -0.854  -0.246   9.042  0.00  0.00     0.151 A 
ATOM      7  CAB A18 d   1      -1.269  -0.390  10.297  0.00  0.00    -0.041 A 
ATOM      8  CAC A18 d   1      -2.595  -0.514  10.267  0.00  0.00    -0.051 A 
ATOM      9  H1  A18 d   1      -0.640  -0.404  11.186  0.00  0.00     0.088 H 
ATOM     10  H2  A18 d   1      -3.239  -0.648  11.135  0.00  0.00     0.087 H 
BRANCH   6  11
ATOM     11  CAE A18 d   1       0.588  -0.071   8.567  0.00  0.00     0.234 C 
ATOM     12  OAN A18 d   1       0.782  -0.099   7.333  0.00  0.00    -0.642 OA
ATOM     13  OAO A18 d   1       1.488   0.102   9.420  0.00  0.00    -0.642 OA
ENDBRANCH   6  11
ENDBRANCH   1   4
BRANCH   1  14
ATOM     14  CAK A18 d   1      -5.445  -0.782   9.517  0.00  0.00    -0.030 A 
ATOM     15  CAF A18 d   1      -5.959  -2.067   9.636  0.00  0.00    -0.075 A 
ATOM     16  CAG A18 d   1      -6.912  -2.363  10.603  0.00  0.00    -0.082 A 
ATOM     17  H5  A18 d   1      -5.613  -2.847   8.967  0.00  0.00     0.084 H 
ATOM     18  CAH A18 d   1      -7.358  -1.368  11.464  0.00  0.00    -0.081 A 
ATOM     19  H6  A18 d   1      -7.307  -3.369  10.685  0.00  0.00     0.083 H 
ATOM     20  CAI A18 d   1      -6.846  -0.081  11.351  0.00  0.00    -0.061 A 
ATOM     21  H7  A18 d   1      -8.101  -1.594  12.220  0.00  0.00     0.083 H 
ATOM     22  CAJ A18 d   1      -5.896   0.206  10.380  0.00  0.00     0.040 A 
ATOM     23  H8  A18 d   1      -7.189   0.699  12.021  0.00  0.00     0.086 H 
ATOM     24 CLAP A18 d   1      -5.275   1.815  10.237  0.00  0.00    -0.084 Cl
ENDBRANCH   1  14
TORSDOF 3
