REMARK  7 active torsions:
REMARK  status: ('A' for Active; 'I' for Inactive)
REMARK    1  A    between atoms: C1_1  and  C2_2 
REMARK    2  A    between atoms: C2_2  and  C3_3 
REMARK    3  A    between atoms: C3_3  and  C4_4 
REMARK    4  A    between atoms: C3_3  and  C5_6 
REMARK    5  A    between atoms: C6_8  and  C7_9 
REMARK    6  A    between atoms: C13_17  and  O4_18 
REMARK    7  A    between atoms: O4_18  and  C14_19 
ROOT
ATOM      1  C5  LK7 d   1      18.161  21.493  23.512  0.00  0.00     0.026 C 
ATOM      2  N1  LK7 d   1      18.116  22.327  24.761  0.00  0.00    -0.378 N 
ATOM      3  C6  LK7 d   1      17.611  23.440  24.331  0.00  0.00     0.111 C 
ATOM      4  C8  LK7 d   1      16.701  23.181  23.499  0.00  0.00    -0.012 C 
ATOM      5  C9  LK7 d   1      16.597  21.810  23.356  0.00  0.00    -0.007 C 
ATOM      6  C10 LK7 d   1      15.548  21.178  24.255  0.00  0.00    -0.056 C 
ATOM      7  C11 LK7 d   1      14.192  21.868  24.012  0.00  0.00    -0.062 C 
ATOM      8  C12 LK7 d   1      14.367  23.422  24.035  0.00  0.00    -0.037 C 
ATOM      9  C13 LK7 d   1      15.518  23.952  23.150  0.00  0.00     0.062 C 
ATOM     10  H8  LK7 d   1      18.827  21.775  22.683  0.00  0.00     0.074 H 
ATOM     11  H9  LK7 d   1      18.411  22.078  25.716  0.00  0.00     0.160 HD
ATOM     12  H10 LK7 d   1      16.291  21.556  22.331  0.00  0.00     0.050 H 
ATOM     13  H11 LK7 d   1      15.841  21.303  25.308  0.00  0.00     0.034 H 
ATOM     14  H12 LK7 d   1      15.462  20.106  24.023  0.00  0.00     0.034 H 
ATOM     15  H13 LK7 d   1      13.486  21.570  24.801  0.00  0.00     0.033 H 
ATOM     16  H14 LK7 d   1      13.798  21.561  23.032  0.00  0.00     0.033 H 
ATOM     17  H15 LK7 d   1      14.562  23.730  25.073  0.00  0.00     0.037 H 
ATOM     18  H16 LK7 d   1      13.428  23.878  23.687  0.00  0.00     0.037 H 
ATOM     19  H17 LK7 d   1      15.731  24.976  23.490  0.00  0.00     0.090 H 
ENDROOT
BRANCH   1  20
ATOM     20  C3  LK7 d   1      18.395  20.066  24.084  0.00  0.00     0.016 C 
ATOM     21  H6  LK7 d   1      17.334  19.971  24.358  0.00  0.00     0.053 H 
BRANCH  20  22
ATOM     22  C2  LK7 d   1      18.797  19.909  25.390  0.00  0.00    -0.057 C 
ATOM     23  H4  LK7 d   1      18.940  18.828  25.532  0.00  0.00     0.033 H 
ATOM     24  H5  LK7 d   1      19.767  20.421  25.469  0.00  0.00     0.033 H 
BRANCH  22  25
ATOM     25  C1  LK7 d   1      17.972  20.385  26.593  0.00  0.00    -0.076 C 
ATOM     26  H1  LK7 d   1      18.507  20.144  27.523  0.00  0.00     0.027 H 
ATOM     27  H2  LK7 d   1      16.995  19.880  26.591  0.00  0.00     0.027 H 
ATOM     28  H3  LK7 d   1      17.822  21.473  26.528  0.00  0.00     0.027 H 
ENDBRANCH  22  25
ENDBRANCH  20  22
BRANCH  20  29
ATOM     29  C4  LK7 d   1      18.326  18.894  23.236  0.00  0.00     0.094 C 
ATOM     30  O1  LK7 d   1      18.517  19.091  22.042  0.00  0.00    -0.306 OA
ATOM     31  H7  LK7 d   1      18.118  17.902  23.634  0.00  0.00     0.144 H 
ENDBRANCH  20  29
ENDBRANCH   1  20
BRANCH   3  32
ATOM     32  C7  LK7 d   1      17.963  24.781  24.915  0.00  0.00     0.226 C 
ATOM     33  O2  LK7 d   1      18.205  25.779  24.237  0.00  0.00    -0.643 OA
ATOM     34  O3  LK7 d   1      18.046  24.875  26.157  0.00  0.00    -0.643 OA
ENDBRANCH   3  32
BRANCH   9  35
ATOM     35  O4  LK7 d   1      15.142  24.113  21.786  0.00  0.00    -0.386 OA
BRANCH  35  36
ATOM     36  C14 LK7 d   1      14.812  25.397  22.081  0.00  0.00     0.005 C 
ATOM     37  H18 LK7 d   1      14.440  25.897  21.175  0.00  0.00     0.066 H 
ATOM     38  H19 LK7 d   1      15.700  25.928  22.454  0.00  0.00     0.066 H 
ATOM     39  H20 LK7 d   1      14.029  25.406  22.853  0.00  0.00     0.066 H 
ENDBRANCH  35  36
ENDBRANCH   9  35
TORSDOF 7
