REMARK  10 active torsions:
REMARK  status: ('A' for Active; 'I' for Inactive)
REMARK    1  A    between atoms: C1_1  and  C3_2 
REMARK    2  A    between atoms: C3_2  and  C4_3 
REMARK    3  A    between atoms: C4_3  and  C5_4 
REMARK    4  A    between atoms: C5_4  and  O4_5 
REMARK    5  A    between atoms: O4_5  and  C6_6 
REMARK    6  A    between atoms: C12_12  and  C13_13 
REMARK    7  A    between atoms: C14_17  and  C15_18 
REMARK    8  A    between atoms: C15_18  and  C16_19 
REMARK    9  A    between atoms: C15_18  and  C17_21 
REMARK   10  A    between atoms: C16_19  and  C2_20 
ROOT
ATOM      1  C6  LK5 d   1      21.215  23.557  24.266  0.00  0.00     0.048 C 
ATOM      2  C7  LK5 d   1      21.808  23.335  22.888  0.00  0.00    -0.040 C 
ATOM      3  C8  LK5 d   1      20.731  23.183  21.855  0.00  0.00    -0.062 C 
ATOM      4  C9  LK5 d   1      19.962  21.893  22.084  0.00  0.00    -0.059 C 
ATOM      5  C10 LK5 d   1      19.165  21.947  23.379  0.00  0.00    -0.020 C 
ATOM      6  C11 LK5 d   1      19.957  22.728  24.409  0.00  0.00     0.025 C 
ATOM      7  C12 LK5 d   1      19.263  22.359  25.622  0.00  0.00     0.112 C 
ATOM      8  N1  LK5 d   1      18.746  21.111  25.523  0.00  0.00    -0.280 NA
ATOM      9  C14 LK5 d   1      18.793  20.650  24.137  0.00  0.00     0.046 C 
ATOM     10  H10 LK5 d   1      21.942  23.279  25.043  0.00  0.00     0.084 H 
ATOM     11  H11 LK5 d   1      22.422  22.422  22.904  0.00  0.00     0.036 H 
ATOM     12  H12 LK5 d   1      22.439  24.197  22.625  0.00  0.00     0.036 H 
ATOM     13  H13 LK5 d   1      21.188  23.161  20.855  0.00  0.00     0.033 H 
ATOM     14  H14 LK5 d   1      20.039  24.035  21.924  0.00  0.00     0.033 H 
ATOM     15  H15 LK5 d   1      20.674  21.056  22.136  0.00  0.00     0.033 H 
ATOM     16  H16 LK5 d   1      19.270  21.734  21.244  0.00  0.00     0.033 H 
ATOM     17  H17 LK5 d   1      18.228  22.474  23.146  0.00  0.00     0.044 H 
ATOM     18  H18 LK5 d   1      19.372  23.648  24.261  0.00  0.00     0.054 H 
ATOM     19  H19 LK5 d   1      17.791  20.331  23.816  0.00  0.00     0.077 H 
ENDROOT
BRANCH   1  20
ATOM     20  O4  LK5 d   1      20.858  24.969  24.383  0.00  0.00    -0.385 OA
BRANCH  20  21
ATOM     21  C5  LK5 d   1      21.804  25.758  25.114  0.00  0.00     0.020 C 
ATOM     22  H8  LK5 d   1      21.370  26.044  26.083  0.00  0.00     0.074 H 
ATOM     23  H9  LK5 d   1      22.719  25.170  25.281  0.00  0.00     0.074 H 
BRANCH  21  24
ATOM     24  C4  LK5 d   1      22.144  27.004  24.328  0.00  0.00    -0.045 C 
ATOM     25  H6  LK5 d   1      21.317  27.217  23.635  0.00  0.00     0.036 H 
ATOM     26  H7  LK5 d   1      22.258  27.841  25.032  0.00  0.00     0.036 H 
BRANCH  24  27
ATOM     27  C3  LK5 d   1      23.410  26.873  23.533  0.00  0.00    -0.067 C 
ATOM     28  H4  LK5 d   1      24.045  27.758  23.687  0.00  0.00     0.032 H 
ATOM     29  H5  LK5 d   1      23.957  25.970  23.842  0.00  0.00     0.032 H 
BRANCH  27  30
ATOM     30  C1  LK5 d   1      23.040  26.773  22.171  0.00  0.00    -0.076 C 
ATOM     31  H1  LK5 d   1      23.944  26.675  21.552  0.00  0.00     0.027 H 
ATOM     32  H2  LK5 d   1      22.488  27.677  21.874  0.00  0.00     0.027 H 
ATOM     33  H3  LK5 d   1      22.401  25.889  22.029  0.00  0.00     0.027 H 
ENDBRANCH  27  30
ENDBRANCH  24  27
ENDBRANCH  21  24
ENDBRANCH  20  21
ENDBRANCH   1  20
BRANCH   7  34
ATOM     34  C13 LK5 d   1      19.588  22.847  26.967  0.00  0.00     0.224 C 
ATOM     35  O3  LK5 d   1      19.838  24.119  27.116  0.00  0.00    -0.643 OA
ATOM     36  O2  LK5 d   1      19.624  22.005  27.900  0.00  0.00    -0.643 OA
ENDBRANCH   7  34
BRANCH   9  37
ATOM     37  C15 LK5 d   1      19.706  19.453  23.972  0.00  0.00     0.018 C 
ATOM     38  H20 LK5 d   1      20.483  19.992  23.410  0.00  0.00     0.054 H 
BRANCH  37  39
ATOM     39  C16 LK5 d   1      20.553  19.039  25.043  0.00  0.00    -0.057 C 
ATOM     40  H21 LK5 d   1      20.729  17.969  24.860  0.00  0.00     0.033 H 
ATOM     41  H22 LK5 d   1      19.937  19.160  25.946  0.00  0.00     0.033 H 
BRANCH  39  42
ATOM     42  C2  LK5 d   1      21.961  19.609  25.444  0.00  0.00    -0.076 C 
ATOM     43  H23 LK5 d   1      22.342  19.063  26.320  0.00  0.00     0.027 H 
ATOM     44  H24 LK5 d   1      21.868  20.677  25.690  0.00  0.00     0.027 H 
ATOM     45  H25 LK5 d   1      22.660  19.486  24.603  0.00  0.00     0.027 H 
ENDBRANCH  39  42
ENDBRANCH  37  39
BRANCH  37  46
ATOM     46  C17 LK5 d   1      19.425  18.439  22.922  0.00  0.00     0.094 C 
ATOM     47  O1  LK5 d   1      19.284  18.748  21.754  0.00  0.00    -0.306 OA
ATOM     48  H26 LK5 d   1      19.343  17.391  23.206  0.00  0.00     0.144 H 
ENDBRANCH  37  46
ENDBRANCH   9  37
TORSDOF 10
