REMARK  8 active torsions:
REMARK  status: ('A' for Active; 'I' for Inactive)
REMARK    1  A    between atoms: N_1  and  C1_2 
REMARK    2  A    between atoms: N_1  and  C2_3 
REMARK    3  A    between atoms: N_1  and  C4_5 
REMARK    4  A    between atoms: N_1  and  C6_7 
REMARK    5  A    between atoms: C1_2  and  C8_9 
REMARK    6  A    between atoms: C2_3  and  C3_4 
REMARK    7  A    between atoms: C4_5  and  C5_6 
REMARK    8  A    between atoms: C6_7  and  C7_8 
ROOT
ATOM      1  N   BTM d   1     -39.683  -3.068  15.893  0.00  0.00    -0.064 N 
ENDROOT
BRANCH   1   2
ATOM      2  C1  BTM d   1     -40.533  -2.450  14.720  0.00  0.00     0.109 C 
ATOM      3  H1  BTM d   1     -39.813  -2.132  13.951  0.00  0.00     0.083 H 
ATOM      4  H2  BTM d   1     -41.039  -1.567  15.137  0.00  0.00     0.083 H 
BRANCH   2   5
ATOM      5  C8  BTM d   1     -41.612  -3.260  13.991  0.00  0.00    -0.032 A 
ATOM      6  C9  BTM d   1     -42.929  -2.712  13.881  0.00  0.00    -0.075 A 
ATOM      7  C10 BTM d   1     -43.971  -3.416  13.228  0.00  0.00    -0.082 A 
ATOM      8  H18 BTM d   1     -43.134  -1.736  14.307  0.00  0.00     0.084 H 
ATOM      9  C11 BTM d   1     -43.715  -4.690  12.670  0.00  0.00    -0.083 A 
ATOM     10  H19 BTM d   1     -44.961  -2.980  13.156  0.00  0.00     0.083 H 
ATOM     11  C12 BTM d   1     -42.415  -5.259  12.762  0.00  0.00    -0.082 A 
ATOM     12  H20 BTM d   1     -44.510  -5.233  12.172  0.00  0.00     0.083 H 
ATOM     13  C13 BTM d   1     -41.379  -4.551  13.414  0.00  0.00    -0.075 A 
ATOM     14  H21 BTM d   1     -42.218  -6.235  12.333  0.00  0.00     0.083 H 
ATOM     15  H22 BTM d   1     -40.391  -4.993  13.479  0.00  0.00     0.084 H 
ENDBRANCH   2   5
ENDBRANCH   1   2
BRANCH   1  16
ATOM     16  C2  BTM d   1     -40.587  -3.521  17.096  0.00  0.00     0.082 C 
ATOM     17  H3  BTM d   1     -41.422  -2.808  17.155  0.00  0.00     0.075 H 
ATOM     18  H4  BTM d   1     -39.973  -3.442  18.005  0.00  0.00     0.075 H 
BRANCH  16  19
ATOM     19  C3  BTM d   1     -41.209  -4.948  17.092  0.00  0.00    -0.053 C 
ATOM     20  H5  BTM d   1     -41.806  -5.090  18.005  0.00  0.00     0.029 H 
ATOM     21  H6  BTM d   1     -40.405  -5.698  17.060  0.00  0.00     0.029 H 
ATOM     22  H7  BTM d   1     -41.855  -5.064  16.209  0.00  0.00     0.029 H 
ENDBRANCH  16  19
ENDBRANCH   1  16
BRANCH   1  23
ATOM     23  C4  BTM d   1     -38.737  -1.968  16.441  0.00  0.00     0.082 C 
ATOM     24  H8  BTM d   1     -38.070  -1.675  15.617  0.00  0.00     0.075 H 
ATOM     25  H9  BTM d   1     -38.144  -2.424  17.248  0.00  0.00     0.075 H 
BRANCH  23  26
ATOM     26  C5  BTM d   1     -39.356  -0.667  17.010  0.00  0.00    -0.053 C 
ATOM     27  H10 BTM d   1     -38.553   0.002  17.353  0.00  0.00     0.029 H 
ATOM     28  H11 BTM d   1     -40.014  -0.914  17.856  0.00  0.00     0.029 H 
ATOM     29  H12 BTM d   1     -39.940  -0.165  16.225  0.00  0.00     0.029 H 
ENDBRANCH  23  26
ENDBRANCH   1  23
BRANCH   1  30
ATOM     30  C6  BTM d   1     -38.797  -4.271  15.480  0.00  0.00     0.082 C 
ATOM     31  H13 BTM d   1     -39.471  -5.095  15.204  0.00  0.00     0.075 H 
ATOM     32  H14 BTM d   1     -38.205  -4.561  16.361  0.00  0.00     0.075 H 
BRANCH  30  33
ATOM     33  C7  BTM d   1     -37.815  -4.070  14.313  0.00  0.00    -0.053 C 
ATOM     34  H15 BTM d   1     -37.259  -5.003  14.136  0.00  0.00     0.029 H 
ATOM     35  H16 BTM d   1     -37.109  -3.264  14.563  0.00  0.00     0.029 H 
ATOM     36  H17 BTM d   1     -38.374  -3.799  13.405  0.00  0.00     0.029 H 
ENDBRANCH  30  33
ENDBRANCH   1  30
TORSDOF 8
