REMARK  4 active torsions:
REMARK  status: ('A' for Active; 'I' for Inactive)
REMARK    1  A    between atoms: C2_2  and  O2_3 
REMARK    2  A    between atoms: C4_5  and  O4_6 
REMARK    3  A    between atoms: C7_10  and  C11_14 
REMARK    4  A    between atoms: C14_17  and  O14_18 
ROOT
ATOM      1  C1  GEN d   1      -8.528  -3.693  17.792  0.00  0.00    -0.017 A 
ATOM      2  C2  GEN d   1      -8.412  -4.385  16.591  0.00  0.00     0.071 A 
ATOM      3  C3  GEN d   1      -7.317  -5.200  16.365  0.00  0.00    -0.018 A 
ATOM      4  C4  GEN d   1      -6.331  -5.322  17.344  0.00  0.00     0.085 A 
ATOM      5  C5  GEN d   1      -6.439  -4.646  18.557  0.00  0.00     0.082 A 
ATOM      6  C6  GEN d   1      -5.389  -4.774  19.630  0.00  0.00     0.200 A 
ATOM      7  O6  GEN d   1      -4.393  -5.501  19.483  0.00  0.00    -0.286 OA
ATOM      8  C7  GEN d   1      -5.587  -4.028  20.901  0.00  0.00     0.048 A 
ATOM      9  C8  GEN d   1      -6.725  -3.225  21.002  0.00  0.00     0.034 A 
ATOM     10  O9  GEN d   1      -7.691  -3.147  19.965  0.00  0.00    -0.321 OA
ATOM     11  C10 GEN d   1      -7.547  -3.824  18.775  0.00  0.00     0.094 A 
ATOM     12  H1  GEN d   1      -9.383  -3.050  17.965  0.00  0.00     0.092 H 
ATOM     13  H3  GEN d   1      -7.226  -5.742  15.431  0.00  0.00     0.092 H 
ATOM     14  H5  GEN d   1      -6.876  -2.639  21.907  0.00  0.00     0.125 H 
ENDROOT
BRANCH   8  15
ATOM     15  C11 GEN d   1      -4.638  -3.997  22.052  0.00  0.00    -0.020 A 
ATOM     16  C12 GEN d   1      -5.152  -3.759  23.320  0.00  0.00    -0.069 A 
ATOM     17  C13 GEN d   1      -4.323  -3.659  24.404  0.00  0.00    -0.050 A 
ATOM     18  H6  GEN d   1      -6.223  -3.651  23.453  0.00  0.00     0.085 H 
ATOM     19  C14 GEN d   1      -2.941  -3.754  24.259  0.00  0.00     0.065 A 
ATOM     20  H7  GEN d   1      -4.748  -3.504  25.389  0.00  0.00     0.087 H 
ATOM     21  C15 GEN d   1      -2.400  -3.947  22.983  0.00  0.00    -0.050 A 
ATOM     22  C16 GEN d   1      -3.247  -4.047  21.882  0.00  0.00    -0.069 A 
ATOM     23  H9  GEN d   1      -1.326  -4.018  22.852  0.00  0.00     0.087 H 
ATOM     24  H10 GEN d   1      -2.829  -4.164  20.889  0.00  0.00     0.085 H 
BRANCH  19  25
ATOM     25  O14 GEN d   1      -2.164  -3.625  25.376  0.00  0.00    -0.361 OA
ATOM     26  H8  GEN d   1      -2.312  -2.772  25.767  0.00  0.00     0.217 HD
ENDBRANCH  19  25
ENDBRANCH   8  15
BRANCH   4  27
ATOM     27  O4  GEN d   1      -5.258  -6.109  17.117  0.00  0.00    -0.360 OA
ATOM     28  H4  GEN d   1      -4.684  -6.086  17.873  0.00  0.00     0.217 HD
ENDBRANCH   4  27
BRANCH   2  29
ATOM     29  O2  GEN d   1      -9.368  -4.262  15.646  0.00  0.00    -0.361 OA
ATOM     30  H2  GEN d   1      -9.139  -4.795  14.894  0.00  0.00     0.217 HD
ENDBRANCH   2  29
TORSDOF 4
