REMARK  6 active torsions:
REMARK  status: ('A' for Active; 'I' for Inactive)
REMARK    1  A    between atoms: N1_1  and  C1'_9 
REMARK    2  A    between atoms: C2'_10  and  O2'_11 
REMARK    3  A    between atoms: C3'_12  and  O3'_14 
REMARK    4  A    between atoms: C4'_13  and  C5'_16 
REMARK    5  A    between atoms: C5'_16  and  O5'_17 
REMARK    6  A    between atoms: O5'_17  and  P_18 
ROOT
ATOM      1  C1' NON d   1      24.999 -31.463 -30.665  0.00  0.00     0.141 C 
ATOM      2  C2' NON d   1      25.508 -32.095 -29.389  0.00  0.00     0.105 C 
ATOM      3  C3' NON d   1      27.003 -31.881 -29.578  0.00  0.00     0.091 C 
ATOM      4  C4' NON d   1      27.258 -32.067 -31.066  0.00  0.00     0.089 C 
ATOM      5  O4' NON d   1      26.031 -31.604 -31.651  0.00  0.00    -0.353 OA
ATOM      6  H4  NON d   1      24.843 -30.399 -30.432  0.00  0.00     0.123 H 
ATOM      7  H5  NON d   1      25.225 -33.145 -29.223  0.00  0.00     0.093 H 
ATOM      8  H7  NON d   1      27.592 -32.568 -28.953  0.00  0.00     0.091 H 
ATOM      9  H8  NON d   1      28.096 -31.436 -31.398  0.00  0.00     0.090 H 
ENDROOT
BRANCH   1  10
ATOM     10  N1  NON d   1      23.802 -31.915 -31.376  0.00  0.00    -0.280 N 
ATOM     11  C2  NON d   1      23.730 -33.187 -31.792  0.00  0.00     0.331 A 
ATOM     12  N3  NON d   1      22.693 -33.628 -32.512  0.00  0.00    -0.275 N 
ATOM     13  O2  NON d   1      24.597 -34.032 -31.501  0.00  0.00    -0.246 OA
ATOM     14  C4  NON d   1      21.719 -32.776 -32.846  0.00  0.00     0.250 A 
ATOM     15  H1  NON d   1      22.647 -34.585 -32.797  0.00  0.00     0.173 HD
ATOM     16  C5  NON d   1      21.705 -31.465 -32.419  0.00  0.00    -0.002 A 
ATOM     17  O4  NON d   1      20.789 -33.193 -33.519  0.00  0.00    -0.268 OA
ATOM     18  C6  NON d   1      22.799 -31.061 -31.670  0.00  0.00    -0.008 A 
ATOM     19  H2  NON d   1      20.885 -30.789 -32.656  0.00  0.00     0.094 H 
ATOM     20  H3  NON d   1      22.850 -30.034 -31.311  0.00  0.00     0.112 H 
ENDBRANCH   1  10
BRANCH   2  21
ATOM     21  O2' NON d   1      24.978 -31.190 -28.402  0.00  0.00    -0.388 OA
ATOM     22  H6  NON d   1      24.030 -31.174 -28.465  0.00  0.00     0.210 HD
ENDBRANCH   2  21
BRANCH   3  23
ATOM     23  O3' NON d   1      27.350 -30.502 -29.335  0.00  0.00    -0.390 OA
ATOM     24  H9  NON d   1      28.261 -30.361 -29.563  0.00  0.00     0.210 HD
ENDBRANCH   3  23
BRANCH   4  25
ATOM     25  C5' NON d   1      27.593 -33.528 -31.395  0.00  0.00     0.059 C 
ATOM     26  H10 NON d   1      27.490 -33.701 -32.476  0.00  0.00     0.079 H 
ATOM     27  H11 NON d   1      26.914 -34.200 -30.849  0.00  0.00     0.079 H 
BRANCH  25  28
ATOM     28  O5' NON d   1      28.942 -33.768 -30.991  0.00  0.00    -0.280 OA
BRANCH  28  29
ATOM     29  P   NON d   1      29.644 -35.222 -30.950  0.00  0.00     0.422 P 
ATOM     30  O1P NON d   1      30.538 -35.118 -29.752  0.00  0.00    -0.617 OA
ATOM     31  O2P NON d   1      28.601 -36.266 -30.778  0.00  0.00    -0.617 OA
ATOM     32  O3P NON d   1      30.406 -35.340 -32.250  0.00  0.00    -0.617 OA
ENDBRANCH  28  29
ENDBRANCH  25  28
ENDBRANCH   4  25
TORSDOF 6
