REMARK WARNING: 32 MAX_TORS EXCEEDED!!!
REMARK  47 active torsions:
REMARK  status: ('A' for Active; 'I' for Inactive)
REMARK    1  A    between atoms: N_1  and  CA_2 
REMARK    2  A    between atoms: CA_2  and  C_3 
REMARK    3  A    between atoms: CA_2  and  CB_5 
REMARK       I    between atoms: C_3  and  N_7 
REMARK    4  A    between atoms: CB_5  and  OG_6 
REMARK    5  A    between atoms: N_7  and  CA_8 
REMARK    6  A    between atoms: CA_8  and  C_9 
REMARK    7  A    between atoms: CA_8  and  CB_11 
REMARK       I    between atoms: C_9  and  N_15 
REMARK    8  A    between atoms: CB_11  and  CG_12 
REMARK       I    between atoms: CG_12  and  ND2_14 
REMARK    9  A    between atoms: N_15  and  CA_16 
REMARK   10  A    between atoms: CA_16  and  C_17 
REMARK   11  A    between atoms: CA_16  and  CB_19 
REMARK       I    between atoms: C_17  and  N_24 
REMARK   12  A    between atoms: CB_19  and  CG_20 
REMARK   13  A    between atoms: CG_20  and  CD_21 
REMARK   14  A    between atoms: N_24  and  CA_25 
REMARK   15  A    between atoms: CA_25  and  C_26 
REMARK   16  A    between atoms: CA_25  and  CB_28 
REMARK       I    between atoms: C_26  and  N_38 
REMARK   17  A    between atoms: CB_28  and  CG_29 
REMARK   18  A    between atoms: N_38  and  CA_39 
REMARK   19  A    between atoms: CA_39  and  C_40 
REMARK   20  A    between atoms: CA_39  and  CB_42 
REMARK       I    between atoms: C_40  and  N_46 
REMARK   21  A    between atoms: CB_42  and  CG1_43 
REMARK   22  A    between atoms: CB_42  and  CG2_44 
REMARK   23  A    between atoms: CG1_43  and  CD1_45 
REMARK   24  A    between atoms: N_46  and  CA_47 
REMARK   25  A    between atoms: CA_47  and  C_48 
REMARK   26  A    between atoms: CA_47  and  CB_50 
REMARK       I    between atoms: C_48  and  N_55 
REMARK   27  A    between atoms: CB_50  and  CG_51 
REMARK   28  A    between atoms: CG_51  and  CD_52 
REMARK       I    between atoms: CD_52  and  NE2_54 
REMARK   29  A    between atoms: CA_56  and  C_57 
REMARK       I    between atoms: C_57  and  N_62 
REMARK   30  A    between atoms: N_62  and  CA_63 
REMARK   31  A    between atoms: CA_63  and  C_64 
REMARK   32  A    between atoms: CA_63  and  CB_66 
REMARK       I    between atoms: C_64  and  N_73 
REMARK   33  A    between atoms: CB_66  and  CG_67 
REMARK   34  A    between atoms: CG_67  and  CD_68 
REMARK   35  A    between atoms: CD_68  and  NE_69 
REMARK       I    between atoms: NE_69  and  CZ_70 
REMARK       I    between atoms: CZ_70  and  NH1_71 
REMARK       I    between atoms: CZ_70  and  NH2_72 
REMARK   36  A    between atoms: N_73  and  CA_74 
REMARK   37  A    between atoms: CA_74  and  C_75 
REMARK   38  A    between atoms: CA_74  and  CB_77 
REMARK       I    between atoms: C_75  and  N_81 
REMARK   39  A    between atoms: CB_77  and  CG_78 
REMARK   40  A    between atoms: CG_78  and  CD1_79 
REMARK   41  A    between atoms: CG_78  and  CD2_80 
REMARK   42  A    between atoms: CA_82  and  C_83 
REMARK       I    between atoms: C_83  and  N_88 
REMARK   43  A    between atoms: N_88  and  CA_89 
REMARK   44  A    between atoms: CA_89  and  C_90 
REMARK   45  A    between atoms: CA_89  and  CB_92 
REMARK   46  A    between atoms: CB_92  and  CG_93 
REMARK   47  A    between atoms: CG_93  and  CD_94 
REMARK       I    between atoms: CD_94  and  NE2_96 
ROOT
ATOM      1  CA  NON d   1      -7.166   3.818 -13.116  0.00  0.00     0.090 C 
ATOM      2  H42 NON d   1      -7.798   4.298 -13.878  0.00  0.00     0.087 H 
ENDROOT
BRANCH   1   3
ATOM      3  N   NON d   1      -6.001   4.670 -12.875  0.00  0.00    -0.346 N 
ATOM      4  C   NON d   1      -6.117   5.981 -12.972  0.00  0.00     0.241 C 
ATOM      5  O   NON d   1      -7.214   6.536 -13.044  0.00  0.00    -0.271 OA
ATOM      6  H41 NON d   1      -5.120   4.260 -12.638  0.00  0.00     0.163 HD
BRANCH   4   7
ATOM      7  CA  NON d   1      -4.827   6.792 -12.938  0.00  0.00     0.092 C 
ATOM      8  H31 NON d   1      -3.968   6.132 -12.748  0.00  0.00     0.088 H 
BRANCH   7   9
ATOM      9  N   NON d   1      -4.656   7.422 -14.246  0.00  0.00    -0.346 N 
ATOM     10  C   NON d   1      -3.991   6.828 -15.243  0.00  0.00     0.241 C 
ATOM     11  O   NON d   1      -3.402   5.750 -15.112  0.00  0.00    -0.271 OA
ATOM     12  H30 NON d   1      -5.050   8.328 -14.401  0.00  0.00     0.163 HD
BRANCH  10  13
ATOM     13  CA  NON d   1      -3.921   7.563 -16.608  0.00  0.00     0.093 C 
ATOM     14  H21 NON d   1      -4.259   6.860 -17.384  0.00  0.00     0.088 H 
BRANCH  13  15
ATOM     15  N   NON d   1      -4.767   8.753 -16.690  0.00  0.00    -0.346 N 
ATOM     16  C   NON d   1      -6.056   8.695 -16.918  0.00  0.00     0.241 C 
ATOM     17  O   NON d   1      -6.615   7.654 -17.238  0.00  0.00    -0.271 OA
ATOM     18  H20 NON d   1      -4.343   9.650 -16.567  0.00  0.00     0.163 HD
BRANCH  16  19
ATOM     19  CA  NON d   1      -6.822  10.007 -16.816  0.00  0.00     0.090 C 
ATOM     20  H15 NON d   1      -7.574   9.906 -16.020  0.00  0.00     0.087 H 
BRANCH  19  21
ATOM     21  N   NON d   1      -5.948  11.126 -16.465  0.00  0.00    -0.346 N 
ATOM     22  C   NON d   1      -5.539  11.370 -15.209  0.00  0.00     0.241 C 
ATOM     23  O   NON d   1      -5.798  10.618 -14.254  0.00  0.00    -0.271 OA
ATOM     24  H14 NON d   1      -5.641  11.738 -17.194  0.00  0.00     0.163 HD
BRANCH  22  25
ATOM     25  CA  NON d   1      -4.645  12.621 -14.986  0.00  0.00     0.097 C 
ATOM     26  H9  NON d   1      -3.663  12.370 -15.414  0.00  0.00     0.088 H 
BRANCH  25  27
ATOM     27  N   NON d   1      -5.089  13.828 -15.646  0.00  0.00    -0.345 N 
ATOM     28  C   NON d   1      -6.279  14.346 -15.401  0.00  0.00     0.251 C 
ATOM     29  O   NON d   1      -7.083  13.816 -14.641  0.00  0.00    -0.271 OA
ATOM     30  H8  NON d   1      -4.483  14.280 -16.301  0.00  0.00     0.163 HD
BRANCH  28  31
ATOM     31  CA  NON d   1      -6.643  15.609 -16.181  0.00  0.00     0.195 C 
ATOM     32  H4  NON d   1      -6.471  15.402 -17.248  0.00  0.00     0.102 H 
BRANCH  31  33
ATOM     33  N   NON d   1      -8.091  15.939 -16.013  0.00  0.00    -0.064 N 
ATOM     34  H1  NON d   1      -8.308  16.774 -16.535  0.00  0.00     0.275 HD
ATOM     35  H2  NON d   1      -8.290  16.092 -15.037  0.00  0.00     0.275 HD
ATOM     36  H3  NON d   1      -8.652  15.174 -16.354  0.00  0.00     0.275 HD
ENDBRANCH  31  33
BRANCH  31  37
ATOM     37  CB  NON d   1      -5.739  16.801 -15.787  0.00  0.00     0.051 C 
ATOM     38  H5  NON d   1      -5.923  17.633 -16.483  0.00  0.00     0.077 H 
ATOM     39  H6  NON d   1      -4.687  16.488 -15.859  0.00  0.00     0.077 H 
BRANCH  37  40
ATOM     40  OG  NON d   1      -5.996  17.245 -14.464  0.00  0.00    -0.398 OA
ATOM     41  H7  NON d   1      -6.902  17.522 -14.395  0.00  0.00     0.209 HD
ENDBRANCH  37  40
ENDBRANCH  31  37
ENDBRANCH  28  31
ENDBRANCH  25  27
BRANCH  25  42
ATOM     42  CB  NON d   1      -4.428  12.932 -13.503  0.00  0.00     0.036 C 
ATOM     43  H10 NON d   1      -4.266  11.989 -12.960  0.00  0.00     0.051 H 
ATOM     44  H11 NON d   1      -5.324  13.433 -13.108  0.00  0.00     0.051 H 
BRANCH  42  45
ATOM     45  CG  NON d   1      -3.245  13.820 -13.297  0.00  0.00     0.217 C 
ATOM     46  OD1 NON d   1      -2.213  13.577 -13.883  0.00  0.00    -0.274 OA
ATOM     47  ND2 NON d   1      -3.374  14.841 -12.452  0.00  0.00    -0.370 N 
ATOM     48  H12 NON d   1      -2.603  15.456 -12.290  0.00  0.00     0.159 HD
ATOM     49  H13 NON d   1      -4.242  14.993 -11.980  0.00  0.00     0.159 HD
ENDBRANCH  42  45
ENDBRANCH  25  42
ENDBRANCH  22  25
ENDBRANCH  19  21
BRANCH  19  50
ATOM     50  CB  NON d   1      -7.557  10.258 -18.150  0.00  0.00    -0.029 C 
ATOM     51  H16 NON d   1      -8.141   9.358 -18.394  0.00  0.00     0.037 H 
ATOM     52  H17 NON d   1      -6.801  10.427 -18.931  0.00  0.00     0.037 H 
BRANCH  50  53
ATOM     53  CG  NON d   1      -8.502  11.448 -18.141  0.00  0.00     0.018 C 
ATOM     54  H18 NON d   1      -9.118  11.395 -17.231  0.00  0.00     0.049 H 
ATOM     55  H19 NON d   1      -9.151  11.382 -19.027  0.00  0.00     0.049 H 
BRANCH  53  56
ATOM     56  CD  NON d   1      -7.783  12.820 -18.164  0.00  0.00     0.172 C 
ATOM     57  OE1 NON d   1      -6.561  12.901 -18.457  0.00  0.00    -0.648 OA
ATOM     58  OE2 NON d   1      -8.458  13.834 -17.904  0.00  0.00    -0.648 OA
ENDBRANCH  53  56
ENDBRANCH  50  53
ENDBRANCH  19  50
ENDBRANCH  16  19
ENDBRANCH  13  15
BRANCH  13  59
ATOM     59  CB  NON d   1      -2.464   7.947 -16.897  0.00  0.00    -0.012 C 
ATOM     60  H22 NON d   1      -2.406   8.386 -17.904  0.00  0.00     0.044 H 
ATOM     61  H23 NON d   1      -1.843   7.040 -16.856  0.00  0.00     0.044 H 
BRANCH  59  62
ATOM     62  CG  NON d   1      -1.929   8.954 -15.890  0.00  0.00    -0.028 A 
ATOM     63  CD1 NON d   1      -1.996  10.303 -15.997  0.00  0.00    -0.015 A 
ATOM     64  NE1 NON d   1      -1.422  10.898 -14.900  0.00  0.00    -0.365 N 
ATOM     65  H24 NON d   1      -2.442  10.839 -16.834  0.00  0.00     0.112 H 
ATOM     66  CE2 NON d   1      -0.992   9.938 -14.042  0.00  0.00     0.042 A 
ATOM     67  H25 NON d   1      -1.332  11.913 -14.752  0.00  0.00     0.165 HD
ATOM     68  CD2 NON d   1      -1.301   8.689 -14.626  0.00  0.00    -0.002 A 
ATOM     69  CZ2 NON d   1      -0.375  10.055 -12.787  0.00  0.00    -0.056 A 
ATOM     70  CE3 NON d   1      -0.947   7.528 -13.939  0.00  0.00    -0.070 A 
ATOM     71  CZ3 NON d   1      -0.306   7.642 -12.728  0.00  0.00    -0.082 A 
ATOM     72  H26 NON d   1      -1.173   6.552 -14.353  0.00  0.00     0.084 H 
ATOM     73  CH2 NON d   1      -0.027   8.900 -12.158  0.00  0.00    -0.081 A 
ATOM     74  H28 NON d   1      -0.009   6.744 -12.200  0.00  0.00     0.083 H 
ATOM     75  H29 NON d   1       0.475   8.948 -11.199  0.00  0.00     0.083 H 
ATOM     76  H27 NON d   1      -0.184  11.023 -12.338  0.00  0.00     0.086 H 
ENDBRANCH  59  62
ENDBRANCH  13  59
ENDBRANCH  10  13
ENDBRANCH   7   9
BRANCH   7  77
ATOM     77  CB  NON d   1      -4.960   7.809 -11.752  0.00  0.00    -0.030 C 
ATOM     78  H32 NON d   1      -5.891   8.379 -11.892  0.00  0.00     0.043 H 
BRANCH  77  79
ATOM     79  CG1 NON d   1      -3.799   8.795 -11.699  0.00  0.00    -0.063 C 
ATOM     80  H33 NON d   1      -3.710   9.280 -12.682  0.00  0.00     0.033 H 
ATOM     81  H34 NON d   1      -2.877   8.235 -11.481  0.00  0.00     0.033 H 
BRANCH  79  82
ATOM     82  CD1 NON d   1      -3.960   9.846 -10.674  0.00  0.00    -0.076 C 
ATOM     83  H38 NON d   1      -3.088  10.516 -10.696  0.00  0.00     0.027 H 
ATOM     84  H39 NON d   1      -4.040   9.380  -9.681  0.00  0.00     0.027 H 
ATOM     85  H40 NON d   1      -4.872  10.425 -10.882  0.00  0.00     0.027 H 
ENDBRANCH  79  82
ENDBRANCH  77  79
BRANCH  77  86
ATOM     86  CG2 NON d   1      -5.041   7.041 -10.405  0.00  0.00    -0.071 C 
ATOM     87  H35 NON d   1      -5.878   6.328 -10.439  0.00  0.00     0.028 H 
ATOM     88  H36 NON d   1      -5.202   7.756  -9.584  0.00  0.00     0.028 H 
ATOM     89  H37 NON d   1      -4.101   6.495 -10.237  0.00  0.00     0.028 H 
ENDBRANCH  77  86
ENDBRANCH   7  77
ENDBRANCH   4   7
ENDBRANCH   1   3
BRANCH   1  90
ATOM     90  C   NON d   1      -7.984   3.620 -11.866  0.00  0.00     0.243 C 
ATOM     91  O   NON d   1      -7.420   3.359 -10.805  0.00  0.00    -0.271 OA
ATOM     92  N   NON d   1      -9.311   3.716 -11.983  0.00  0.00    -0.337 N 
ATOM     93  CA  NON d   1     -10.119   3.344 -10.838  0.00  0.00     0.091 C 
ATOM     94  CD  NON d   1     -10.143   4.127 -13.123  0.00  0.00    -0.001 C 
ATOM     95  CB  NON d   1     -11.537   3.485 -11.360  0.00  0.00    -0.036 C 
ATOM     96  H49 NON d   1      -9.938   4.018  -9.988  0.00  0.00     0.087 H 
ATOM     97  CG  NON d   1     -11.406   4.482 -12.476  0.00  0.00    -0.048 C 
ATOM     98  H50 NON d   1     -12.209   3.861 -10.575  0.00  0.00     0.036 H 
ATOM     99  H51 NON d   1     -11.915   2.523 -11.736  0.00  0.00     0.036 H 
ATOM    100  H52 NON d   1     -11.368   5.508 -12.081  0.00  0.00     0.035 H 
ATOM    101  H53 NON d   1     -12.245   4.392 -13.181  0.00  0.00     0.035 H 
ATOM    102  H54 NON d   1     -10.279   3.300 -13.835  0.00  0.00     0.064 H 
ATOM    103  H55 NON d   1      -9.706   4.992 -13.644  0.00  0.00     0.064 H 
BRANCH  93 104
ATOM    104  C   NON d   1      -9.840   1.906 -10.420  0.00  0.00     0.241 C 
ATOM    105  O   NON d   1      -9.711   1.058 -11.275  0.00  0.00    -0.271 OA
ATOM    106  N   NON d   1      -9.680   1.669  -9.125  0.00  0.00    -0.346 N 
ATOM    107  H56 NON d   1      -9.493   2.431  -8.504  0.00  0.00     0.163 HD
BRANCH 106 108
ATOM    108  CA  NON d   1      -9.772   0.313  -8.592  0.00  0.00     0.089 C 
ATOM    109  H57 NON d   1      -9.261  -0.372  -9.285  0.00  0.00     0.087 H 
BRANCH 108 110
ATOM    110  C   NON d   1     -11.213  -0.043  -8.477  0.00  0.00     0.241 C 
ATOM    111  O   NON d   1     -12.073   0.778  -8.101  0.00  0.00    -0.271 OA
ATOM    112  N   NON d   1     -11.468  -1.313  -8.680  0.00  0.00    -0.346 N 
ATOM    113  H69 NON d   1     -10.696  -1.944  -8.751  0.00  0.00     0.163 HD
BRANCH 112 114
ATOM    114  CA  NON d   1     -12.794  -1.847  -8.806  0.00  0.00     0.090 C 
ATOM    115  H70 NON d   1     -13.534  -1.050  -8.971  0.00  0.00     0.087 H 
BRANCH 114 116
ATOM    116  C   NON d   1     -13.133  -2.648  -7.570  0.00  0.00     0.243 C 
ATOM    117  O   NON d   1     -12.267  -3.329  -7.061  0.00  0.00    -0.271 OA
ATOM    118  N   NON d   1     -14.394  -2.594  -7.118  0.00  0.00    -0.337 N 
ATOM    119  CA  NON d   1     -14.785  -3.144  -5.801  0.00  0.00     0.091 C 
ATOM    120  CD  NON d   1     -15.558  -1.985  -7.792  0.00  0.00    -0.001 C 
ATOM    121  CB  NON d   1     -16.294  -2.864  -5.716  0.00  0.00    -0.036 C 
ATOM    122  H80 NON d   1     -14.261  -2.591  -5.008  0.00  0.00     0.087 H 
ATOM    123  CG  NON d   1     -16.518  -1.733  -6.658  0.00  0.00    -0.048 C 
ATOM    124  H81 NON d   1     -16.579  -2.580  -4.692  0.00  0.00     0.036 H 
ATOM    125  H82 NON d   1     -16.871  -3.748  -6.026  0.00  0.00     0.036 H 
ATOM    126  H83 NON d   1     -16.298  -0.772  -6.170  0.00  0.00     0.035 H 
ATOM    127  H84 NON d   1     -17.556  -1.731  -7.022  0.00  0.00     0.035 H 
ATOM    128  H85 NON d   1     -15.992  -2.675  -8.530  0.00  0.00     0.064 H 
ATOM    129  H86 NON d   1     -15.279  -1.044  -8.289  0.00  0.00     0.064 H 
BRANCH 119 130
ATOM    130  C   NON d   1     -14.466  -4.632  -5.619  0.00  0.00     0.241 C 
ATOM    131  O   NON d   1     -14.680  -5.458  -6.545  0.00  0.00    -0.271 OA
ATOM    132  N   NON d   1     -14.023  -4.941  -4.390  0.00  0.00    -0.348 N 
ATOM    133  H87 NON d   1     -14.473  -4.519  -3.603  0.00  0.00     0.163 HD
BRANCH 132 134
ATOM    134  CA  NON d   1     -12.910  -5.868  -4.141  0.00  0.00     0.063 C 
ATOM    135  H88 NON d   1     -12.609  -6.296  -5.109  0.00  0.00     0.083 H 
BRANCH 134 136
ATOM    136  C   NON d   1     -13.217  -7.070  -3.193  0.00  0.00     0.109 C 
ATOM    137  O   NON d   1     -13.825  -6.930  -2.108  0.00  0.00    -0.305 OA
ATOM    138  H89 NON d   1     -12.890  -8.066  -3.486  0.00  0.00     0.146 H 
ENDBRANCH 134 136
BRANCH 134 139
ATOM    139  CB  NON d   1     -11.744  -5.012  -3.594  0.00  0.00    -0.032 C 
ATOM    140  H90 NON d   1     -11.004  -5.685  -3.136  0.00  0.00     0.037 H 
ATOM    141  H91 NON d   1     -12.143  -4.331  -2.828  0.00  0.00     0.037 H 
BRANCH 139 142
ATOM    142  CG  NON d   1     -11.038  -4.175  -4.663  0.00  0.00     0.011 C 
ATOM    143  H92 NON d   1     -11.652  -4.204  -5.575  0.00  0.00     0.047 H 
ATOM    144  H93 NON d   1     -10.060  -4.638  -4.864  0.00  0.00     0.047 H 
BRANCH 142 145
ATOM    145  CD  NON d   1     -10.797  -2.696  -4.300  0.00  0.00     0.215 C 
ATOM    146  OE1 NON d   1     -11.750  -1.904  -4.234  0.00  0.00    -0.274 OA
ATOM    147  NE2 NON d   1      -9.541  -2.334  -4.021  0.00  0.00    -0.370 N 
ATOM    148  H94 NON d   1      -9.336  -1.385  -3.780  0.00  0.00     0.159 HD
ATOM    149  H95 NON d   1      -8.806  -3.012  -4.053  0.00  0.00     0.159 HD
ENDBRANCH 142 145
ENDBRANCH 139 142
ENDBRANCH 134 139
ENDBRANCH 132 134
ENDBRANCH 119 130
ENDBRANCH 114 116
BRANCH 114 150
ATOM    150  CB  NON d   1     -12.732  -2.784  -9.957  0.00  0.00    -0.035 C 
ATOM    151  H71 NON d   1     -12.657  -3.795  -9.530  0.00  0.00     0.037 H 
ATOM    152  H72 NON d   1     -11.806  -2.546 -10.501  0.00  0.00     0.037 H 
BRANCH 150 153
ATOM    153  CG  NON d   1     -13.810  -2.839 -10.973  0.00  0.00    -0.059 C 
ATOM    154  H73 NON d   1     -14.784  -2.495 -10.595  0.00  0.00     0.038 H 
BRANCH 153 155
ATOM    155  CD1 NON d   1     -13.316  -1.993 -12.045  0.00  0.00    -0.073 C 
ATOM    156  H74 NON d   1     -14.054  -1.966 -12.861  0.00  0.00     0.028 H 
ATOM    157  H75 NON d   1     -12.366  -2.398 -12.423  0.00  0.00     0.028 H 
ATOM    158  H76 NON d   1     -13.155  -0.974 -11.663  0.00  0.00     0.028 H 
ENDBRANCH 153 155
BRANCH 153 159
ATOM    159  CD2 NON d   1     -13.852  -4.289 -11.392  0.00  0.00    -0.073 C 
ATOM    160  H77 NON d   1     -14.230  -4.901 -10.559  0.00  0.00     0.028 H 
ATOM    161  H78 NON d   1     -12.839  -4.622 -11.662  0.00  0.00     0.028 H 
ATOM    162  H79 NON d   1     -14.518  -4.401 -12.260  0.00  0.00     0.028 H 
ENDBRANCH 153 159
ENDBRANCH 150 153
ENDBRANCH 114 150
ENDBRANCH 112 114
ENDBRANCH 108 110
BRANCH 108 163
ATOM    163  CB  NON d   1      -9.190   0.137  -7.201  0.00  0.00    -0.036 C 
ATOM    164  H58 NON d   1      -9.628  -0.769  -6.758  0.00  0.00     0.036 H 
ATOM    165  H59 NON d   1      -9.471   1.013  -6.598  0.00  0.00     0.036 H 
BRANCH 163 166
ATOM    166  CG  NON d   1      -7.736   0.006  -7.165  0.00  0.00    -0.048 C 
ATOM    167  H60 NON d   1      -7.388  -0.486  -8.085  0.00  0.00     0.035 H 
ATOM    168  H61 NON d   1      -7.442  -0.597  -6.293  0.00  0.00     0.035 H 
BRANCH 166 169
ATOM    169  CD  NON d   1      -7.106   1.401  -7.060  0.00  0.00     0.009 C 
ATOM    170  H62 NON d   1      -7.095   1.707  -6.004  0.00  0.00     0.064 H 
ATOM    171  H63 NON d   1      -7.714   2.110  -7.641  0.00  0.00     0.064 H 
BRANCH 169 172
ATOM    172  NE  NON d   1      -5.736   1.422  -7.573  0.00  0.00    -0.227 N 
ATOM    173  CZ  NON d   1      -4.639   1.509  -6.830  0.00  0.00     0.665 C 
ATOM    174  NH1 NON d   1      -4.725   1.587  -5.504  0.00  0.00    -0.235 N 
ATOM    175  NH2 NON d   1      -3.441   1.529  -7.445  0.00  0.00    -0.235 N 
ATOM    176  H65 NON d   1      -3.869   1.654  -4.936  0.00  0.00     0.174 HD
ATOM    177  H66 NON d   1      -5.648   1.580  -5.046  0.00  0.00     0.174 HD
ATOM    178  H67 NON d   1      -3.388   1.468  -8.472  0.00  0.00     0.174 HD
ATOM    179  H68 NON d   1      -2.578   1.605  -6.888  0.00  0.00     0.174 HD
ATOM    180  H64 NON d   1      -5.612   1.365  -8.594  0.00  0.00     0.177 HD
ENDBRANCH 169 172
ENDBRANCH 166 169
ENDBRANCH 163 166
ENDBRANCH 108 163
ENDBRANCH 106 108
ENDBRANCH  93 104
ENDBRANCH   1  90
BRANCH   1 181
ATOM    181  CB  NON d   1      -6.708   2.454 -13.633  0.00  0.00    -0.030 C 
ATOM    182  H43 NON d   1      -7.587   1.882 -13.966  0.00  0.00     0.037 H 
ATOM    183  H44 NON d   1      -6.204   1.912 -12.819  0.00  0.00     0.037 H 
BRANCH 181 184
ATOM    184  CG  NON d   1      -5.752   2.607 -14.790  0.00  0.00     0.011 C 
ATOM    185  H45 NON d   1      -5.799   3.644 -15.153  0.00  0.00     0.047 H 
ATOM    186  H46 NON d   1      -6.058   1.923 -15.595  0.00  0.00     0.047 H 
BRANCH 184 187
ATOM    187  CD  NON d   1      -4.336   2.294 -14.402  0.00  0.00     0.215 C 
ATOM    188  OE1 NON d   1      -3.761   2.804 -13.369  0.00  0.00    -0.274 OA
ATOM    189  NE2 NON d   1      -3.725   1.450 -15.238  0.00  0.00    -0.370 N 
ATOM    190  H47 NON d   1      -2.778   1.177 -15.069  0.00  0.00     0.159 HD
ATOM    191  H48 NON d   1      -4.215   1.091 -16.033  0.00  0.00     0.159 HD
ENDBRANCH 184 187
ENDBRANCH 181 184
ENDBRANCH   1 181
TORSDOF 47
