REMARK  2 active torsions:
REMARK  status: ('A' for Active; 'I' for Inactive)
REMARK    1  A    between atoms: C10_6  and  C13_7 
REMARK    2  A    between atoms: C3_14  and  O11_15 
ROOT
ATOM      1 BR2  G12 d   1      20.650   8.471  20.916  0.00  0.00    -0.044 Br
ATOM      2  C9  G12 d   1      21.692   7.938  19.427  0.00  0.00     0.093 A 
ATOM      3  C8  G12 d   1      22.621   6.774  19.465  0.00  0.00     0.306 A 
ATOM      4  O15 G12 d   1      22.787   6.088  20.498  0.00  0.00    -0.258 OA
ATOM      5  O7  G12 d   1      23.314   6.442  18.337  0.00  0.00    -0.272 OA
ATOM      6  C10 G12 d   1      21.551   8.693  18.173  0.00  0.00    -0.025 A 
ATOM      7  C5  G12 d   1      22.354   8.248  17.019  0.00  0.00     0.007 A 
ATOM      8  C6  G12 d   1      23.193   7.145  17.166  0.00  0.00     0.110 A 
ATOM      9  C4  G12 d   1      23.939   6.712  16.090  0.00  0.00     0.079 A 
ATOM     10 BR1  G12 d   1      25.061   5.204  16.311  0.00  0.00    -0.045 Br
ATOM     11  C1  G12 d   1      22.267   8.913  15.806  0.00  0.00    -0.067 A 
ATOM     12  C2  G12 d   1      23.018   8.470  14.731  0.00  0.00    -0.049 A 
ATOM     13  C3  G12 d   1      23.853   7.371  14.882  0.00  0.00     0.085 A 
ATOM     14  H4  G12 d   1      21.616   9.773  15.700  0.00  0.00     0.085 H 
ATOM     15  H5  G12 d   1      22.955   8.979  13.776  0.00  0.00     0.087 H 
ENDROOT
BRANCH   6  16
ATOM     16  C13 G12 d   1      20.618   9.867  18.082  0.00  0.00    -0.049 C 
ATOM     17  H1  G12 d   1      20.125  10.020  19.053  0.00  0.00     0.033 H 
ATOM     18  H2  G12 d   1      19.858   9.672  17.311  0.00  0.00     0.033 H 
ATOM     19  H3  G12 d   1      21.188  10.769  17.815  0.00  0.00     0.033 H 
ENDBRANCH   6  16
BRANCH  13  20
ATOM     20  O11 G12 d   1      24.583   6.936  13.845  0.00  0.00    -0.359 OA
ATOM     21  H6  G12 d   1      24.004   6.689  13.133  0.00  0.00     0.217 HD
ENDBRANCH  13  20
TORSDOF 2
