REMARK  6 active torsions:
REMARK  status: ('A' for Active; 'I' for Inactive)
REMARK    1  A    between atoms: N1_1  and  C1'_9 
REMARK    2  A    between atoms: C2'_10  and  O2'_11 
REMARK    3  A    between atoms: C3'_12  and  O3'_14 
REMARK    4  A    between atoms: C4'_13  and  C5'_16 
REMARK    5  A    between atoms: C5'_16  and  O5'_17 
REMARK    6  A    between atoms: O5'_17  and  P_18 
ROOT
ATOM      1  C1' U5P d   1       5.839   5.917  27.512  0.00  0.00     0.141 C 
ATOM      2  C2' U5P d   1       6.906   6.990  27.728  0.00  0.00     0.105 C 
ATOM      3  C3' U5P d   1       6.709   7.406  29.163  0.00  0.00     0.091 C 
ATOM      4  C4' U5P d   1       5.201   7.244  29.365  0.00  0.00     0.089 C 
ATOM      5  O4' U5P d   1       4.787   6.219  28.446  0.00  0.00    -0.353 OA
ATOM      6  H4  U5P d   1       6.277   4.938  27.757  0.00  0.00     0.123 H 
ATOM      7  H5  U5P d   1       6.741   7.845  27.056  0.00  0.00     0.093 H 
ATOM      8  H7  U5P d   1       7.019   8.451  29.313  0.00  0.00     0.091 H 
ATOM      9  H8  U5P d   1       5.005   6.928  30.400  0.00  0.00     0.090 H 
ENDROOT
BRANCH   1  10
ATOM     10  N1  U5P d   1       5.291   5.829  26.139  0.00  0.00    -0.280 N 
ATOM     11  C2  U5P d   1       4.594   6.884  25.533  0.00  0.00     0.331 A 
ATOM     12  N3  U5P d   1       4.087   6.726  24.303  0.00  0.00    -0.275 N 
ATOM     13  O2  U5P d   1       4.427   7.978  26.113  0.00  0.00    -0.246 OA
ATOM     14  C4  U5P d   1       4.205   5.585  23.638  0.00  0.00     0.250 A 
ATOM     15  H1  U5P d   1       3.606   7.490  23.874  0.00  0.00     0.173 HD
ATOM     16  C5  U5P d   1       4.869   4.536  24.232  0.00  0.00    -0.002 A 
ATOM     17  O4  U5P d   1       3.705   5.456  22.506  0.00  0.00    -0.268 OA
ATOM     18  C6  U5P d   1       5.402   4.674  25.481  0.00  0.00    -0.008 A 
ATOM     19  H2  U5P d   1       4.970   3.590  23.702  0.00  0.00     0.094 H 
ATOM     20  H3  U5P d   1       5.921   3.836  25.943  0.00  0.00     0.112 H 
ENDBRANCH   1  10
BRANCH   2  21
ATOM     21  O2' U5P d   1       8.200   6.457  27.489  0.00  0.00    -0.388 OA
ATOM     22  H6  U5P d   1       8.252   6.144  26.593  0.00  0.00     0.210 HD
ENDBRANCH   2  21
BRANCH   3  23
ATOM     23  O3' U5P d   1       7.440   6.552  30.079  0.00  0.00    -0.390 OA
ATOM     24  H9  U5P d   1       7.221   6.788  30.973  0.00  0.00     0.210 HD
ENDBRANCH   3  23
BRANCH   4  25
ATOM     25  C5' U5P d   1       4.406   8.519  29.084  0.00  0.00     0.059 C 
ATOM     26  H10 U5P d   1       3.334   8.282  29.012  0.00  0.00     0.079 H 
ATOM     27  H11 U5P d   1       4.746   8.970  28.140  0.00  0.00     0.079 H 
BRANCH  25  28
ATOM     28  O5' U5P d   1       4.631   9.436  30.172  0.00  0.00    -0.280 OA
BRANCH  28  29
ATOM     29  P   U5P d   1       3.885  10.854  30.352  0.00  0.00     0.422 P 
ATOM     30  O1P U5P d   1       4.750  11.463  31.429  0.00  0.00    -0.617 OA
ATOM     31  O2P U5P d   1       3.857  11.504  29.000  0.00  0.00    -0.617 OA
ATOM     32  O3P U5P d   1       2.521  10.399  30.843  0.00  0.00    -0.617 OA
ENDBRANCH  28  29
ENDBRANCH  25  28
ENDBRANCH   4  25
TORSDOF 6
