REMARK  6 active torsions:
REMARK  status: ('A' for Active; 'I' for Inactive)
REMARK    1  A    between atoms: N1_9  and  C1'_10 
REMARK    2  A    between atoms: C2'_12  and  O2'_13 
REMARK    3  A    between atoms: C3'_14  and  O3'_15 
REMARK    4  A    between atoms: C4'_16  and  C5'_17 
REMARK    5  A    between atoms: C5'_17  and  O5'_18 
REMARK    6  A    between atoms: O5'_18  and  P_19 
ROOT
ATOM      1  C1' 5FU d   1      12.920  10.280  36.694  0.00  0.00     0.141 C 
ATOM      2  O4' 5FU d   1      12.793  11.673  37.028  0.00  0.00    -0.353 OA
ATOM      3  C2' 5FU d   1      12.268   9.512  37.810  0.00  0.00     0.105 C 
ATOM      4  C3' 5FU d   1      11.249  10.461  38.351  0.00  0.00     0.091 C 
ATOM      5  C4' 5FU d   1      11.876  11.808  38.128  0.00  0.00     0.089 C 
ATOM      6  H3  5FU d   1      12.368  10.069  35.766  0.00  0.00     0.123 H 
ATOM      7  H4  5FU d   1      13.009   9.254  38.581  0.00  0.00     0.093 H 
ATOM      8  H6  5FU d   1      11.055  10.281  39.419  0.00  0.00     0.091 H 
ATOM      9  H8  5FU d   1      11.093  12.542  37.886  0.00  0.00     0.090 H 
ENDROOT
BRANCH   1  10
ATOM     10  N1  5FU d   1      14.338   9.989  36.447  0.00  0.00    -0.277 N 
ATOM     11  C2  5FU d   1      15.284  10.158  37.423  0.00  0.00     0.331 A 
ATOM     12  N3  5FU d   1      16.580   9.872  37.142  0.00  0.00    -0.273 N 
ATOM     13  O2  5FU d   1      14.976  10.557  38.555  0.00  0.00    -0.246 OA
ATOM     14  C4  5FU d   1      16.939   9.444  35.928  0.00  0.00     0.289 A 
ATOM     15  H1  5FU d   1      17.275   9.983  37.852  0.00  0.00     0.173 HD
ATOM     16  C5  5FU d   1      15.980   9.221  34.989  0.00  0.00     0.199 A 
ATOM     17  O4  5FU d   1      18.172   9.182  35.746  0.00  0.00    -0.265 OA
ATOM     18  F5  5FU d   1      16.306   8.752  33.723  0.00  0.00    -0.199 F 
ATOM     19  C6  5FU d   1      14.679   9.555  35.241  0.00  0.00     0.030 A 
ATOM     20  H2  5FU d   1      13.928   9.466  34.458  0.00  0.00     0.117 H 
ENDBRANCH   1  10
BRANCH   3  21
ATOM     21  O2' 5FU d   1      11.642   8.325  37.353  0.00  0.00    -0.388 OA
ATOM     22  H5  5FU d   1      12.291   7.762  36.948  0.00  0.00     0.210 HD
ENDBRANCH   3  21
BRANCH   5  23
ATOM     23  C5' 5FU d   1      12.658  12.288  39.333  0.00  0.00     0.059 C 
ATOM     24  H9  5FU d   1      13.243  13.184  39.078  0.00  0.00     0.079 H 
ATOM     25  H10 5FU d   1      13.335  11.498  39.690  0.00  0.00     0.079 H 
BRANCH  23  26
ATOM     26  O5' 5FU d   1      11.687  12.596  40.327  0.00  0.00    -0.280 OA
BRANCH  26  27
ATOM     27  P   5FU d   1      12.087  13.291  41.719  0.00  0.00     0.422 P 
ATOM     28  O1P 5FU d   1      10.815  13.148  42.488  0.00  0.00    -0.617 OA
ATOM     29  O2P 5FU d   1      13.226  12.520  42.315  0.00  0.00    -0.617 OA
ATOM     30  O3P 5FU d   1      12.399  14.729  41.406  0.00  0.00    -0.617 OA
ENDBRANCH  26  27
ENDBRANCH  23  26
ENDBRANCH   5  23
BRANCH   4  31
ATOM     31  O3' 5FU d   1      10.038  10.342  37.604  0.00  0.00    -0.390 OA
ATOM     32  H7  5FU d   1       9.393  10.947  37.951  0.00  0.00     0.210 HD
ENDBRANCH   4  31
TORSDOF 6
