REMARK  6 active torsions:
REMARK  status: ('A' for Active; 'I' for Inactive)
REMARK    1  A    between atoms: P_1  and  O5'_5 
REMARK    2  A    between atoms: O5'_5  and  C5'_6 
REMARK    3  A    between atoms: C5'_6  and  C4'_7 
REMARK    4  A    between atoms: C3'_9  and  O3'_10 
REMARK    5  A    between atoms: C2'_11  and  O2'_12 
REMARK    6  A    between atoms: C1'_13  and  N1_14 
ROOT
ATOM      1  C4' 5BU d   1       4.973   9.669  28.881  0.00  0.00     0.089 C 
ATOM      2  O4' 5BU d   1       4.535   8.752  27.894  0.00  0.00    -0.353 OA
ATOM      3  C3' 5BU d   1       6.470   9.966  28.634  0.00  0.00     0.091 C 
ATOM      4  C2' 5BU d   1       6.699   9.502  27.230  0.00  0.00     0.105 C 
ATOM      5  C1' 5BU d   1       5.683   8.443  27.023  0.00  0.00     0.140 C 
ATOM      6  H3  5BU d   1       4.871   9.224  29.882  0.00  0.00     0.090 H 
ATOM      7  H4  5BU d   1       6.671  11.043  28.737  0.00  0.00     0.091 H 
ATOM      8  H6  5BU d   1       6.487  10.337  26.546  0.00  0.00     0.093 H 
ATOM      9  H8  5BU d   1       6.116   7.469  27.294  0.00  0.00     0.123 H 
ENDROOT
BRANCH   5  10
ATOM     10  N1  5BU d   1       5.192   8.384  25.657  0.00  0.00    -0.290 N 
ATOM     11  C2  5BU d   1       4.425   9.410  25.067  0.00  0.00     0.262 A 
ATOM     12  O2  5BU d   1       4.120  10.507  25.709  0.00  0.00    -0.151 OA
ATOM     13  N3  5BU d   1       3.962   9.224  23.770  0.00  0.00    -0.297 N 
ATOM     14  C4  5BU d   1       4.274   8.090  23.071  0.00  0.00     0.200 A 
ATOM     15  H9  5BU d   1       3.394   9.927  23.343  0.00  0.00     0.171 HD
ATOM     16  O4  5BU d   1       3.784   8.035  21.866  0.00  0.00    -0.171 OA
ATOM     17  C5  5BU d   1       5.101   7.089  23.702  0.00  0.00     0.080 A 
ATOM     18  C6  5BU d   1       5.528   7.277  24.980  0.00  0.00     0.007 A 
ATOM     19 BR   5BU d   1       5.724   5.410  22.917  0.00  0.00    -0.045 Br
ATOM     20  H10 5BU d   1       6.149   6.521  25.458  0.00  0.00     0.114 H 
ENDBRANCH   5  10
BRANCH   4  21
ATOM     21  O2' 5BU d   1       8.030   9.069  26.953  0.00  0.00    -0.388 OA
ATOM     22  H7  5BU d   1       8.090   8.793  26.046  0.00  0.00     0.210 HD
ENDBRANCH   4  21
BRANCH   1  23
ATOM     23  C5' 5BU d   1       4.010  10.921  28.784  0.00  0.00     0.059 C 
ATOM     24  H1  5BU d   1       4.042  11.328  27.763  0.00  0.00     0.079 H 
ATOM     25  H2  5BU d   1       2.982  10.611  29.023  0.00  0.00     0.079 H 
BRANCH  23  26
ATOM     26  O5' 5BU d   1       4.439  11.946  29.728  0.00  0.00    -0.280 OA
BRANCH  26  27
ATOM     27  P   5BU d   1       3.702  13.399  29.873  0.00  0.00     0.422 P 
ATOM     28  OP1 5BU d   1       4.567  14.128  30.897  0.00  0.00    -0.617 OA
ATOM     29  OP2 5BU d   1       3.740  14.118  28.513  0.00  0.00    -0.617 OA
ATOM     30  OP3 5BU d   1       2.330  13.138  30.344  0.00  0.00    -0.617 OA
ENDBRANCH  26  27
ENDBRANCH  23  26
ENDBRANCH   1  23
BRANCH   3  31
ATOM     31  O3' 5BU d   1       7.343   9.223  29.522  0.00  0.00    -0.390 OA
ATOM     32  H5  5BU d   1       7.146   9.452  30.423  0.00  0.00     0.210 HD
ENDBRANCH   3  31
TORSDOF 6
