REMARK  5 active torsions:
REMARK  status: ('A' for Active; 'I' for Inactive)
REMARK    1  A    between atoms: N1_1  and  C1'_10 
REMARK    2  A    between atoms: C3'_12  and  O3'_14 
REMARK    3  A    between atoms: C4'_13  and  C5'_16 
REMARK    4  A    between atoms: C5'_16  and  O5'_17 
REMARK    5  A    between atoms: O5'_17  and  P_18 
ROOT
ATOM      1  C1' 5IU d   1      22.373  -4.101  15.077  0.00  0.00     0.116 C 
ATOM      2  C2' 5IU d   1      21.953  -5.124  16.115  0.00  0.00     0.002 C 
ATOM      3  C3' 5IU d   1      23.243  -5.854  16.402  0.00  0.00     0.066 C 
ATOM      4  C4' 5IU d   1      24.062  -5.709  15.125  0.00  0.00     0.087 C 
ATOM      5  O4' 5IU d   1      23.491  -4.643  14.374  0.00  0.00    -0.356 OA
ATOM      6  H3  5IU d   1      22.690  -3.184  15.596  0.00  0.00     0.118 H 
ATOM      7  H4  5IU d   1      21.191  -5.808  15.712  0.00  0.00     0.043 H 
ATOM      8  H5  5IU d   1      21.564  -4.634  17.020  0.00  0.00     0.043 H 
ATOM      9  H6  5IU d   1      23.054  -6.915  16.622  0.00  0.00     0.087 H 
ATOM     10  H7  5IU d   1      25.108  -5.484  15.382  0.00  0.00     0.090 H 
ENDROOT
BRANCH   1  11
ATOM     11  N1  5IU d   1      21.284  -3.743  14.159  0.00  0.00    -0.281 N 
ATOM     12  C2  5IU d   1      20.888  -4.545  13.054  0.00  0.00     0.331 A 
ATOM     13  N3  5IU d   1      19.894  -4.149  12.242  0.00  0.00    -0.274 N 
ATOM     14  O2  5IU d   1      21.453  -5.634  12.813  0.00  0.00    -0.246 OA
ATOM     15  C4  5IU d   1      19.245  -2.997  12.445  0.00  0.00     0.267 A 
ATOM     16  H1  5IU d   1      19.634  -4.728  11.469  0.00  0.00     0.173 HD
ATOM     17  C5  5IU d   1      19.645  -2.147  13.591  0.00  0.00     0.090 A 
ATOM     18  O4  5IU d   1      18.321  -2.642  11.682  0.00  0.00    -0.267 OA
ATOM     19  C6  5IU d   1      20.673  -2.582  14.400  0.00  0.00     0.008 A 
ATOM     20  I5  5IU d   1      18.697  -0.323  14.001  0.00  0.00    -0.037 I 
ATOM     21  H2  5IU d   1      20.989  -1.972  15.245  0.00  0.00     0.114 H 
ENDBRANCH   1  11
BRANCH   3  22
ATOM     22  O3' 5IU d   1      23.905  -5.243  17.513  0.00  0.00    -0.393 OA
ATOM     23  H8  5IU d   1      24.749  -5.659  17.645  0.00  0.00     0.210 HD
ENDBRANCH   3  22
BRANCH   4  24
ATOM     24  C5' 5IU d   1      24.010  -6.953  14.258  0.00  0.00     0.059 C 
ATOM     25  H9  5IU d   1      24.161  -6.671  13.205  0.00  0.00     0.079 H 
ATOM     26  H10 5IU d   1      23.028  -7.436  14.371  0.00  0.00     0.079 H 
BRANCH  24  27
ATOM     27  O5' 5IU d   1      25.030  -7.858  14.655  0.00  0.00    -0.280 OA
BRANCH  27  28
ATOM     28  P   5IU d   1      25.394  -9.100  13.705  0.00  0.00     0.422 P 
ATOM     29  OP1 5IU d   1      26.123 -10.017  14.650  0.00  0.00    -0.617 OA
ATOM     30  OP2 5IU d   1      26.243  -8.486  12.621  0.00  0.00    -0.617 OA
ATOM     31  OP3 5IU d   1      24.046  -9.593  13.248  0.00  0.00    -0.617 OA
ENDBRANCH  27  28
ENDBRANCH  24  27
ENDBRANCH   4  24
TORSDOF 5
