REMARK  8 active torsions:
REMARK  status: ('A' for Active; 'I' for Inactive)
REMARK    1  A    between atoms: C6_7  and  C7_8 
REMARK    2  A    between atoms: C7_8  and  O7_9 
REMARK    3  A    between atoms: N1_10  and  C1'_11 
REMARK    4  A    between atoms: C2'_13  and  O2'_14 
REMARK    5  A    between atoms: C3'_15  and  O3'_16 
REMARK    6  A    between atoms: C4'_17  and  C5'_18 
REMARK    7  A    between atoms: C5'_18  and  O5'_19 
REMARK    8  A    between atoms: O5'_19  and  P_20 
ROOT
ATOM      1  C1' JW5 d   1      13.235  10.356  37.071  0.00  0.00     0.141 C 
ATOM      2  O4' JW5 d   1      13.099  11.782  37.368  0.00  0.00    -0.353 OA
ATOM      3  C2' JW5 d   1      12.551   9.610  38.217  0.00  0.00     0.105 C 
ATOM      4  C3' JW5 d   1      11.499  10.589  38.682  0.00  0.00     0.091 C 
ATOM      5  C4' JW5 d   1      12.159  11.941  38.438  0.00  0.00     0.089 C 
ATOM      6  H6  JW5 d   1      12.689  10.125  36.145  0.00  0.00     0.123 H 
ATOM      7  H7  JW5 d   1      13.267   9.391  39.023  0.00  0.00     0.093 H 
ATOM      8  H9  JW5 d   1      11.282  10.449  39.751  0.00  0.00     0.091 H 
ATOM      9  H11 JW5 d   1      11.387  12.667  38.143  0.00  0.00     0.090 H 
ENDROOT
BRANCH   1  10
ATOM     10  N1  JW5 d   1      14.658  10.032  36.833  0.00  0.00    -0.271 N 
ATOM     11  C2  JW5 d   1      15.575  10.246  37.790  0.00  0.00     0.331 A 
ATOM     12  O2  JW5 d   1      15.259  10.709  38.913  0.00  0.00    -0.246 OA
ATOM     13  N3  JW5 d   1      16.891   9.977  37.588  0.00  0.00    -0.275 N 
ATOM     14  C4  JW5 d   1      17.328   9.463  36.409  0.00  0.00     0.251 A 
ATOM     15  H1  JW5 d   1      17.549  10.160  38.319  0.00  0.00     0.173 HD
ATOM     16  O4  JW5 d   1      18.579   9.232  36.239  0.00  0.00    -0.268 OA
ATOM     17  C5  JW5 d   1      16.404   9.221  35.424  0.00  0.00     0.007 A 
ATOM     18  C6  JW5 d   1      15.043   9.515  35.640  0.00  0.00     0.047 A 
ATOM     19  H2  JW5 d   1      16.724   8.800  34.472  0.00  0.00     0.095 H 
BRANCH  18  20
ATOM     20  C7  JW5 d   1      14.192   9.519  34.396  0.00  0.00     0.055 C 
ATOM     21  H3  JW5 d   1      13.323   8.859  34.535  0.00  0.00     0.083 H 
ATOM     22  H4  JW5 d   1      14.783   9.171  33.536  0.00  0.00     0.083 H 
BRANCH  20  23
ATOM     23  O7  JW5 d   1      13.742  10.897  34.167  0.00  0.00    -0.395 OA
ATOM     24  H5  JW5 d   1      13.236  11.192  34.915  0.00  0.00     0.209 HD
ENDBRANCH  20  23
ENDBRANCH  18  20
ENDBRANCH   1  10
BRANCH   3  25
ATOM     25  O2' JW5 d   1      11.954   8.379  37.767  0.00  0.00    -0.388 OA
ATOM     26  H8  JW5 d   1      12.627   7.817  37.402  0.00  0.00     0.210 HD
ENDBRANCH   3  25
BRANCH   5  27
ATOM     27  C5' JW5 d   1      12.875  12.472  39.679  0.00  0.00     0.059 C 
ATOM     28  H12 JW5 d   1      13.418  13.395  39.428  0.00  0.00     0.079 H 
ATOM     29  H13 JW5 d   1      13.585  11.718  40.049  0.00  0.00     0.079 H 
BRANCH  27  30
ATOM     30  O5' JW5 d   1      11.909  12.742  40.669  0.00  0.00    -0.280 OA
BRANCH  30  31
ATOM     31  P   JW5 d   1      12.238  13.422  42.098  0.00  0.00     0.422 P 
ATOM     32  O1P JW5 d   1      10.966  13.258  42.859  0.00  0.00    -0.617 OA
ATOM     33  O3P JW5 d   1      12.576  14.869  41.782  0.00  0.00    -0.617 OA
ATOM     34  O2P JW5 d   1      13.414  12.679  42.671  0.00  0.00    -0.617 OA
ENDBRANCH  30  31
ENDBRANCH  27  30
ENDBRANCH   5  27
BRANCH   4  35
ATOM     35  O3' JW5 d   1      10.272  10.452  37.931  0.00  0.00    -0.390 OA
ATOM     36  H10 JW5 d   1       9.635  11.081  38.249  0.00  0.00     0.210 HD
ENDBRANCH   4  35
TORSDOF 8
