REMARK  6 active torsions:
REMARK  status: ('A' for Active; 'I' for Inactive)
REMARK    1  A    between atoms: N1_1  and  C1'_9 
REMARK    2  A    between atoms: C2'_10  and  O2'_11 
REMARK    3  A    between atoms: C3'_12  and  O3'_14 
REMARK    4  A    between atoms: C4'_13  and  C5'_16 
REMARK    5  A    between atoms: C5'_16  and  O5'_17 
REMARK    6  A    between atoms: O5'_17  and  P_18 
ROOT
ATOM      1  C1' NON d   1      21.857  -2.992  15.144  0.00  0.00     0.141 C 
ATOM      2  C2' NON d   1      21.697  -4.256  15.946  0.00  0.00     0.105 C 
ATOM      3  C3' NON d   1      23.133  -4.738  16.105  0.00  0.00     0.091 C 
ATOM      4  C4' NON d   1      23.809  -4.295  14.816  0.00  0.00     0.089 C 
ATOM      5  O4' NON d   1      23.053  -3.148  14.344  0.00  0.00    -0.353 OA
ATOM      6  H4  NON d   1      21.942  -2.147  15.843  0.00  0.00     0.123 H 
ATOM      7  H5  NON d   1      21.059  -5.008  15.459  0.00  0.00     0.093 H 
ATOM      8  H7  NON d   1      23.161  -5.834  16.200  0.00  0.00     0.091 H 
ATOM      9  H8  NON d   1      24.843  -3.978  15.020  0.00  0.00     0.090 H 
ENDROOT
BRANCH   1  10
ATOM     10  N1  NON d   1      20.846  -2.677  14.122  0.00  0.00    -0.280 N 
ATOM     11  C2  NON d   1      20.624  -3.573  13.061  0.00  0.00     0.331 A 
ATOM     12  N3  NON d   1      19.779  -3.240  12.077  0.00  0.00    -0.275 N 
ATOM     13  O2  NON d   1      21.192  -4.678  13.044  0.00  0.00    -0.246 OA
ATOM     14  C4  NON d   1      19.178  -2.048  12.054  0.00  0.00     0.250 A 
ATOM     15  H1  NON d   1      19.595  -3.897  11.346  0.00  0.00     0.173 HD
ATOM     16  C5  NON d   1      19.361  -1.144  13.093  0.00  0.00    -0.002 A 
ATOM     17  O4  NON d   1      18.444  -1.791  11.098  0.00  0.00    -0.268 OA
ATOM     18  C6  NON d   1      20.243  -1.477  14.123  0.00  0.00    -0.008 A 
ATOM     19  H2  NON d   1      18.827  -0.195  13.104  0.00  0.00     0.094 H 
ATOM     20  H3  NON d   1      20.441  -0.766  14.924  0.00  0.00     0.112 H 
ENDBRANCH   1  10
BRANCH   2  21
ATOM     21  O2' NON d   1      21.155  -3.828  17.185  0.00  0.00    -0.388 OA
ATOM     22  H6  NON d   1      20.322  -3.397  17.033  0.00  0.00     0.210 HD
ENDBRANCH   2  21
BRANCH   3  23
ATOM     23  O3' NON d   1      23.773  -4.153  17.254  0.00  0.00    -0.390 OA
ATOM     24  H9  NON d   1      24.683  -4.423  17.280  0.00  0.00     0.210 HD
ENDBRANCH   3  23
BRANCH   4  25
ATOM     25  C5' NON d   1      23.853  -5.501  13.841  0.00  0.00     0.059 C 
ATOM     26  H10 NON d   1      24.160  -5.173  12.837  0.00  0.00     0.079 H 
ATOM     27  H11 NON d   1      22.867  -5.986  13.784  0.00  0.00     0.079 H 
BRANCH  25  28
ATOM     28  O5' NON d   1      24.825  -6.401  14.395  0.00  0.00    -0.280 OA
BRANCH  28  29
ATOM     29  P   NON d   1      25.139  -7.785  13.600  0.00  0.00     0.422 P 
ATOM     30  O1P NON d   1      26.131  -7.544  12.498  0.00  0.00    -0.617 OA
ATOM     31  O2P NON d   1      23.854  -8.336  13.026  0.00  0.00    -0.617 OA
ATOM     32  O3P NON d   1      25.685  -8.674  14.676  0.00  0.00    -0.617 OA
ENDBRANCH  28  29
ENDBRANCH  25  28
ENDBRANCH   4  25
TORSDOF 6
