REMARK  7 active torsions:
REMARK  status: ('A' for Active; 'I' for Inactive)
REMARK    1  A    between atoms: C16_3  and  C18_2 
REMARK       I    between atoms: N3_23  and  C16_3 
REMARK    2  A    between atoms: C21_6  and  O34_30 
REMARK    3  A    between atoms: C24_9  and  C27_12 
REMARK    4  A    between atoms: C27_12  and  C29_33 
REMARK    5  A    between atoms: C9_17  and  C10_16 
REMARK    6  A    between atoms: O34_30  and  C35_31 
REMARK       I    between atoms: C29_33  and  N30_35 
REMARK    7  A    between atoms: C37_37  and  O40_38 
ROOT
ATOM      1  C18 LGF d   1      -1.139  -1.672  24.854  0.00  0.00     0.086 A 
ATOM      2  C19 LGF d   1      -1.951  -1.819  25.919  0.00  0.00    -0.049 A 
ATOM      3  C21 LGF d   1       0.186  -0.919  24.969  0.00  0.00     0.182 A 
ATOM      4  C22 LGF d   1      -0.231  -0.632  27.124  0.00  0.00     0.141 A 
ATOM      5  C23 LGF d   1      -1.370  -1.265  27.132  0.00  0.00     0.027 A 
ATOM      6  C24 LGF d   1      -1.924  -1.256  28.506  0.00  0.00     0.049 A 
ATOM      7  N26 LGF d   1       0.015  -0.209  28.388  0.00  0.00    -0.349 N 
ATOM      8  C25 LGF d   1      -1.025  -0.580  29.242  0.00  0.00    -0.006 A 
ATOM      9  N20 LGF d   1       0.578  -0.466  26.062  0.00  0.00    -0.205 NA
ATOM     10  H2  LGF d   1      -2.924  -2.295  25.877  0.00  0.00     0.086 H 
ATOM     11  H12 LGF d   1       0.854   0.314  28.678  0.00  0.00     0.167 HD
ATOM     12  H13 LGF d   1      -1.095  -0.362  30.307  0.00  0.00     0.112 H 
ENDROOT
BRANCH   1  13
ATOM     13  C16 LGF d   1      -1.631  -2.206  23.488  0.00  0.00     0.258 C 
ATOM     14  N3  LGF d   1      -1.908  -1.175  22.459  0.00  0.00    -0.341 N 
ATOM     15  C4  LGF d   1      -1.644   0.226  22.697  0.00  0.00     0.037 C 
ATOM     16  C2  LGF d   1      -2.092  -1.736  21.089  0.00  0.00     0.013 C 
ATOM     17  C6  LGF d   1      -2.200   1.035  21.611  0.00  0.00     0.049 A 
ATOM     18  H6  LGF d   1      -2.107   0.527  23.648  0.00  0.00     0.074 H 
ATOM     19  H7  LGF d   1      -0.557   0.387  22.751  0.00  0.00     0.074 H 
ATOM     20  N5  LGF d   1      -2.891   0.515  20.616  0.00  0.00    -0.330 N 
ATOM     21  C7  LGF d   1      -2.061   2.353  21.457  0.00  0.00     0.028 A 
ATOM     22  C9  LGF d   1      -3.222   1.584  19.761  0.00  0.00     0.143 A 
ATOM     23  C1  LGF d   1      -3.227  -0.914  20.433  0.00  0.00     0.016 C 
ATOM     24  N8  LGF d   1      -2.701   2.670  20.216  0.00  0.00    -0.240 NA
ATOM     25  H10 LGF d   1      -3.294  -1.152  19.361  0.00  0.00     0.067 H 
ATOM     26  H11 LGF d   1      -4.187  -1.141  20.919  0.00  0.00     0.067 H 
ATOM     27  H5  LGF d   1      -1.563   3.045  22.135  0.00  0.00     0.117 H 
ATOM     28  H8  LGF d   1      -2.375  -2.797  21.147  0.00  0.00     0.067 H 
ATOM     29  H9  LGF d   1      -1.163  -1.635  20.508  0.00  0.00     0.067 H 
ATOM     30  O17 LGF d   1      -1.752  -3.357  23.167  0.00  0.00    -0.267 OA
BRANCH  22  31
ATOM     31  C10 LGF d   1      -3.876   1.360  18.425  0.00  0.00     0.049 A 
ATOM     32  C15 LGF d   1      -3.199   1.707  17.191  0.00  0.00    -0.063 A 
ATOM     33  C14 LGF d   1      -3.900   1.395  16.067  0.00  0.00    -0.045 A 
ATOM     34  H1  LGF d   1      -2.221   2.174  17.166  0.00  0.00     0.085 H 
ATOM     35  C13 LGF d   1      -5.197   0.811  16.066  0.00  0.00     0.119 A 
ATOM     36  H4  LGF d   1      -3.439   1.606  15.109  0.00  0.00     0.088 H 
ATOM     37  C12 LGF d   1      -5.863   0.536  17.174  0.00  0.00    -0.007 A 
ATOM     38  F33 LGF d   1      -5.736   0.379  14.951  0.00  0.00    -0.206 F 
ATOM     39  C11 LGF d   1      -5.153   0.871  18.368  0.00  0.00     0.133 A 
ATOM     40  H3  LGF d   1      -6.854   0.098  17.177  0.00  0.00     0.093 H 
ATOM     41  F32 LGF d   1      -5.791   0.511  19.524  0.00  0.00    -0.205 F 
ENDBRANCH  22  31
ENDBRANCH   1  13
BRANCH   3  42
ATOM     42  O34 LGF d   1       0.907  -0.775  23.833  0.00  0.00    -0.339 OA
BRANCH  42  43
ATOM     43  C35 LGF d   1       2.180  -0.050  23.914  0.00  0.00     0.012 C 
ATOM     44  H14 LGF d   1       2.646  -0.016  22.918  0.00  0.00     0.067 H 
ATOM     45  H15 LGF d   1       2.852  -0.566  24.616  0.00  0.00     0.067 H 
ATOM     46  H16 LGF d   1       1.996   0.975  24.268  0.00  0.00     0.067 H 
ENDBRANCH  42  43
ENDBRANCH   3  42
BRANCH   6  47
ATOM     47  C27 LGF d   1      -3.187  -1.873  29.011  0.00  0.00     0.251 C 
ATOM     48  O28 LGF d   1      -3.858  -2.641  28.301  0.00  0.00    -0.281 OA
BRANCH  47  49
ATOM     49  C29 LGF d   1      -3.634  -1.602  30.445  0.00  0.00     0.294 C 
ATOM     50  O31 LGF d   1      -3.446  -0.491  30.957  0.00  0.00    -0.264 OA
ATOM     51  N30 LGF d   1      -4.214  -2.575  31.258  0.00  0.00    -0.343 N 
ATOM     52  C36 LGF d   1      -3.684  -3.892  31.486  0.00  0.00     0.022 C 
ATOM     53  C39 LGF d   1      -5.465  -2.335  31.984  0.00  0.00     0.000 C 
ATOM     54  C37 LGF d   1      -5.040  -4.598  31.463  0.00  0.00     0.052 C 
ATOM     55  H17 LGF d   1      -3.170  -3.984  32.454  0.00  0.00     0.068 H 
ATOM     56  H18 LGF d   1      -3.013  -4.228  30.681  0.00  0.00     0.068 H 
ATOM     57  C38 LGF d   1      -5.897  -3.763  32.401  0.00  0.00    -0.025 C 
ATOM     58  H19 LGF d   1      -4.940  -5.617  31.865  0.00  0.00     0.085 H 
ATOM     59  H21 LGF d   1      -5.661  -3.967  33.456  0.00  0.00     0.039 H 
ATOM     60  H22 LGF d   1      -6.970  -3.929  32.227  0.00  0.00     0.039 H 
ATOM     61  H23 LGF d   1      -6.218  -1.867  31.333  0.00  0.00     0.064 H 
ATOM     62  H24 LGF d   1      -5.296  -1.699  32.865  0.00  0.00     0.064 H 
BRANCH  54  63
ATOM     63  O40 LGF d   1      -5.564  -4.696  30.140  0.00  0.00    -0.394 OA
ATOM     64  H20 LGF d   1      -6.404  -5.139  30.165  0.00  0.00     0.210 HD
ENDBRANCH  54  63
ENDBRANCH  47  49
ENDBRANCH   6  47
TORSDOF 7
