REMARK  7 active torsions:
REMARK  status: ('A' for Active; 'I' for Inactive)
REMARK    1  A    between atoms: C1_1  and  C2_2 
REMARK    2  A    between atoms: C2_2  and  C3_4 
REMARK    3  A    between atoms: C8_9  and  N1_10 
REMARK    4  A    between atoms: N1_10  and  C9_11 
REMARK    5  A    between atoms: C9_11  and  C10_12 
REMARK       I    between atoms: C10_12  and  N2_14 
REMARK    6  A    between atoms: N2_14  and  C11_15 
REMARK    7  A    between atoms: C16_20  and  C17_21 
ROOT
ATOM      1  C9  452 d   1     -15.686  -1.720  10.118  0.00  0.00     0.067 C 
ATOM      2  H7  452 d   1     -15.412  -0.688  10.382  0.00  0.00     0.078 H 
ATOM      3  H8  452 d   1     -15.458  -1.900   9.057  0.00  0.00     0.078 H 
ENDROOT
BRANCH   1   4
ATOM      4  N1  452 d   1     -17.137  -1.891  10.324  0.00  0.00    -0.380 N 
ATOM      5  H6  452 d   1     -17.589  -1.198  10.937  0.00  0.00     0.160 HD
BRANCH   4   6
ATOM      6  C8  452 d   1     -17.997  -2.898   9.780  0.00  0.00     0.044 A 
ATOM      7  C3  452 d   1     -19.417  -2.870  10.066  0.00  0.00     0.039 A 
ATOM      8  C4  452 d   1     -20.292  -3.884   9.508  0.00  0.00    -0.028 A 
ATOM      9  C5  452 d   1     -19.759  -4.938   8.680  0.00  0.00     0.139 A 
ATOM     10  H4  452 d   1     -21.355  -3.849   9.715  0.00  0.00     0.089 H 
ATOM     11  C6  452 d   1     -18.359  -4.981   8.401  0.00  0.00     0.074 A 
ATOM     12  F1  452 d   1     -20.613  -5.879   8.167  0.00  0.00    -0.204 F 
ATOM     13  C7  452 d   1     -17.519  -3.983   8.935  0.00  0.00    -0.033 A 
ATOM     14 CL1  452 d   1     -17.659  -6.227   7.440  0.00  0.00    -0.081 Cl
ATOM     15  H5  452 d   1     -16.461  -4.026   8.704  0.00  0.00     0.089 H 
BRANCH   7  16
ATOM     16  C2  452 d   1     -20.018  -1.777  10.948  0.00  0.00     0.158 C 
ATOM     17  O1  452 d   1     -19.324  -0.791  11.302  0.00  0.00    -0.293 OA
BRANCH  16  18
ATOM     18  C1  452 d   1     -21.452  -1.914  11.411  0.00  0.00    -0.017 C 
ATOM     19  H1  452 d   1     -21.884  -2.837  10.997  0.00  0.00     0.038 H 
ATOM     20  H2  452 d   1     -22.034  -1.048  11.063  0.00  0.00     0.038 H 
ATOM     21  H3  452 d   1     -21.480  -1.957  12.510  0.00  0.00     0.038 H 
ENDBRANCH  16  18
ENDBRANCH   7  16
ENDBRANCH   4   6
ENDBRANCH   1   4
BRANCH   1  22
ATOM     22  C10 452 d   1     -14.848  -2.684  10.971  0.00  0.00     0.239 C 
ATOM     23  O2  452 d   1     -13.635  -2.681  10.864  0.00  0.00    -0.271 OA
ATOM     24  N2  452 d   1     -15.621  -3.473  11.833  0.00  0.00    -0.325 N 
ATOM     25  H9  452 d   1     -16.605  -3.295  11.799  0.00  0.00     0.169 HD
BRANCH  24  26
ATOM     26  C11 452 d   1     -15.218  -4.509  12.769  0.00  0.00     0.051 A 
ATOM     27  C12 452 d   1     -13.946  -5.195  12.680  0.00  0.00    -0.056 A 
ATOM     28  C13 452 d   1     -13.577  -6.201  13.597  0.00  0.00    -0.081 A 
ATOM     29  H10 452 d   1     -13.258  -4.928  11.886  0.00  0.00     0.086 H 
ATOM     30  C14 452 d   1     -14.454  -6.573  14.630  0.00  0.00    -0.082 A 
ATOM     31  H11 452 d   1     -12.614  -6.689  13.505  0.00  0.00     0.083 H 
ATOM     32  C15 452 d   1     -15.712  -5.943  14.754  0.00  0.00    -0.064 A 
ATOM     33  H12 452 d   1     -14.164  -7.345  15.333  0.00  0.00     0.083 H 
ATOM     34  C16 452 d   1     -16.130  -4.910  13.842  0.00  0.00     0.067 A 
ATOM     35  H13 452 d   1     -16.378  -6.244  15.554  0.00  0.00     0.085 H 
BRANCH  34  36
ATOM     36  C17 452 d   1     -17.510  -4.302  14.058  0.00  0.00     0.211 C 
ATOM     37  O3  452 d   1     -18.140  -4.654  15.110  0.00  0.00    -0.644 OA
ATOM     38  O4  452 d   1     -17.940  -3.495  13.176  0.00  0.00    -0.644 OA
ENDBRANCH  34  36
ENDBRANCH  24  26
ENDBRANCH   1  22
TORSDOF 7
