REMARK  5 active torsions:
REMARK  status: ('A' for Active; 'I' for Inactive)
REMARK    1  A    between atoms: C5_11  and  C7_1 
REMARK       I    between atoms: N1_7  and  C8_3 
REMARK    2  A    between atoms: C8_3  and  C9_13 
REMARK    3  A    between atoms: C4_10  and  N1_7 
REMARK    4  A    between atoms: C9_13  and  O4_14 
REMARK    5  A    between atoms: O4_14  and  C10_15 
ROOT
ATOM      1  C8  617 d   1       0.376  73.576 146.299  0.00  0.00     0.246 C 
ATOM      2  N1  617 d   1       1.454  73.319 145.413  0.00  0.00    -0.324 N 
ATOM      3  O3  617 d   1      -0.598  72.870 146.592  0.00  0.00    -0.271 OA
ATOM      4  H3  617 d   1       2.138  74.047 145.372  0.00  0.00     0.169 HD
ENDROOT
BRANCH   1   5
ATOM      5  C9  617 d   1       0.562  74.958 146.932  0.00  0.00     0.100 C 
ATOM      6  H6  617 d   1       0.597  74.835 148.024  0.00  0.00     0.089 H 
ATOM      7  H7  617 d   1      -0.303  75.581 146.661  0.00  0.00     0.089 H 
BRANCH   5   8
ATOM      8  O4  617 d   1       1.755  75.641 146.518  0.00  0.00    -0.342 OA
BRANCH   8   9
ATOM      9  C10 617 d   1       2.998  75.401 147.132  0.00  0.00     0.069 A 
ATOM     10  C11 617 d   1       3.388  74.260 147.946  0.00  0.00    -0.049 A 
ATOM     11  C12 617 d   1       4.695  74.167 148.490  0.00  0.00    -0.059 A 
ATOM     12  H8  617 d   1       2.671  73.471 148.139  0.00  0.00     0.087 H 
ATOM     13  C13 617 d   1       5.622  75.201 148.242  0.00  0.00     0.034 A 
ATOM     14  H9  617 d   1       4.978  73.310 149.090  0.00  0.00     0.086 H 
ATOM     15  C14 617 d   1       5.253  76.332 147.450  0.00  0.00    -0.059 A 
ATOM     16 CL1  617 d   1       7.199  75.094 148.892  0.00  0.00    -0.084 Cl
ATOM     17  C15 617 d   1       3.958  76.434 146.899  0.00  0.00    -0.049 A 
ATOM     18  H10 617 d   1       5.976  77.120 147.271  0.00  0.00     0.086 H 
ATOM     19  H11 617 d   1       3.691  77.296 146.299  0.00  0.00     0.087 H 
ENDBRANCH   8   9
ENDBRANCH   5   8
ENDBRANCH   1   5
BRANCH   2  20
ATOM     20  C4  617 d   1       1.726  72.217 144.583  0.00  0.00     0.051 A 
ATOM     21  C3  617 d   1       1.185  70.923 144.839  0.00  0.00    -0.056 A 
ATOM     22  C2  617 d   1       1.438  69.841 143.981  0.00  0.00    -0.081 A 
ATOM     23  H2  617 d   1       0.565  70.771 145.715  0.00  0.00     0.086 H 
ATOM     24  C1  617 d   1       2.276  70.009 142.870  0.00  0.00    -0.082 A 
ATOM     25  H4  617 d   1       0.985  68.876 144.178  0.00  0.00     0.083 H 
ATOM     26  C6  617 d   1       2.835  71.279 142.583  0.00  0.00    -0.064 A 
ATOM     27  H1  617 d   1       2.497  69.164 142.228  0.00  0.00     0.083 H 
ATOM     28  C5  617 d   1       2.606  72.405 143.446  0.00  0.00     0.067 A 
ATOM     29  H5  617 d   1       3.446  71.403 141.696  0.00  0.00     0.085 H 
BRANCH  28  30
ATOM     30  C7  617 d   1       3.282  73.752 143.096  0.00  0.00     0.211 C 
ATOM     31  O2  617 d   1       3.109  74.736 143.894  0.00  0.00    -0.644 OA
ATOM     32  O1  617 d   1       4.009  73.791 142.063  0.00  0.00    -0.644 OA
ENDBRANCH  28  30
ENDBRANCH   2  20
TORSDOF 5
