REMARK  2 active torsions:
REMARK  status: ('A' for Active; 'I' for Inactive)
REMARK    1  A    between atoms: C9_9  and  C12_12 
REMARK    2  A    between atoms: C14_14  and  N19_19 
ROOT
ATOM      1  C1  A56 d   1      18.620  36.877   9.151  0.00  0.00    -0.082 A 
ATOM      2  C2  A56 d   1      18.350  38.166   8.632  0.00  0.00    -0.072 A 
ATOM      3  C3  A56 d   1      18.211  38.342   7.217  0.00  0.00    -0.025 A 
ATOM      4  C4  A56 d   1      18.341  37.211   6.324  0.00  0.00    -0.025 A 
ATOM      5  C5  A56 d   1      18.613  35.920   6.858  0.00  0.00    -0.072 A 
ATOM      6  C6  A56 d   1      18.751  35.761   8.265  0.00  0.00    -0.082 A 
ATOM      7  C7  A56 d   1      17.942  39.625   6.663  0.00  0.00    -0.054 A 
ATOM      8  C8  A56 d   1      17.806  39.781   5.261  0.00  0.00     0.025 A 
ATOM      9  C9  A56 d   1      17.930  38.680   4.375  0.00  0.00     0.031 A 
ATOM     10  C10 A56 d   1      18.198  37.393   4.910  0.00  0.00    -0.057 A 
ATOM     11 BR1  A56 d   1      17.455  41.528   4.695  0.00  0.00    -0.050 Br
ATOM     12  H1  A56 d   1      18.728  36.735  10.220  0.00  0.00     0.083 H 
ATOM     13  H2  A56 d   1      18.249  39.014   9.300  0.00  0.00     0.084 H 
ATOM     14  H3  A56 d   1      18.714  35.066   6.199  0.00  0.00     0.084 H 
ATOM     15  H4  A56 d   1      18.959  34.778   8.673  0.00  0.00     0.083 H 
ATOM     16  H5  A56 d   1      17.841  40.485   7.315  0.00  0.00     0.086 H 
ATOM     17  H6  A56 d   1      18.295  36.543   4.245  0.00  0.00     0.086 H 
ENDROOT
BRANCH   9  18
ATOM     18  C12 A56 d   1      17.795  38.778   2.895  0.00  0.00     0.199 A 
ATOM     19  N13 A56 d   1      18.467  39.689   2.129  0.00  0.00    -0.041 NA
ATOM     20  C14 A56 d   1      18.272  39.699   0.814  0.00  0.00     0.738 A 
ATOM     21  N15 A56 d   1      17.461  38.888   0.125  0.00  0.00     0.129 NA
ATOM     22  C16 A56 d   1      16.832  38.022   0.921  0.00  0.00     0.738 A 
ATOM     23  N17 A56 d   1      16.948  37.925   2.240  0.00  0.00    -0.041 NA
ATOM     24  N18 A56 d   1      15.990  37.152   0.355  0.00  0.00    -0.230 N 
ATOM     25  H7  A56 d   1      15.846  37.164  -0.665  0.00  0.00     0.174 HD
ATOM     26  H8  A56 d   1      15.486  36.469   0.939  0.00  0.00     0.174 HD
BRANCH  20  27
ATOM     27  N19 A56 d   1      18.959  40.616   0.130  0.00  0.00    -0.230 N 
ATOM     28  H9  A56 d   1      19.594  41.259   0.625  0.00  0.00     0.174 HD
ATOM     29  H10 A56 d   1      18.855  40.681  -0.893  0.00  0.00     0.174 HD
ENDBRANCH  20  27
ENDBRANCH   9  18
TORSDOF 2
