REMARK  3 active torsions:
REMARK  status: ('A' for Active; 'I' for Inactive)
REMARK    1  A    between atoms: C1_1  and  C8_8 
REMARK    2  A    between atoms: C3_3  and  C9_9 
REMARK    3  A    between atoms: C5_5  and  N7_7 
ROOT
ATOM      1  C1  A13 d   1       3.797  34.489  51.046  0.00  0.00     0.052 A 
ATOM      2  C2  A13 d   1       2.332  34.181  50.750  0.00  0.00    -0.026 A 
ATOM      3  C3  A13 d   1       2.118  33.495  49.439  0.00  0.00     0.161 A 
ATOM      4  N4  A13 d   1       3.185  33.210  48.638  0.00  0.00    -0.059 NA
ATOM      5  C5  A13 d   1       4.423  33.549  49.033  0.00  0.00     0.721 A 
ATOM      6  N6  A13 d   1       4.782  34.159  50.180  0.00  0.00    -0.068 NA
ATOM      7  H1  A13 d   1       1.524  34.435  51.426  0.00  0.00     0.090 H 
ENDROOT
BRANCH   1   8
ATOM      8  C8  A13 d   1       4.192  35.171  52.328  0.00  0.00    -0.035 C 
ATOM      9  H4  A13 d   1       5.284  35.303  52.352  0.00  0.00     0.035 H 
ATOM     10  H5  A13 d   1       3.878  34.554  53.183  0.00  0.00     0.035 H 
ATOM     11  H6  A13 d   1       3.703  36.154  52.386  0.00  0.00     0.035 H 
ENDBRANCH   1   8
BRANCH   3  12
ATOM     12  C9  A13 d   1       0.720  33.118  48.998  0.00  0.00     0.435 C 
ATOM     13  F10 A13 d   1       0.690  31.798  48.932  0.00  0.00    -0.165 F 
ATOM     14  F11 A13 d   1       0.512  33.656  47.811  0.00  0.00    -0.165 F 
ATOM     15  F12 A13 d   1      -0.144  33.533  49.903  0.00  0.00    -0.165 F 
ENDBRANCH   3  12
BRANCH   5  16
ATOM     16  N7  A13 d   1       5.396  33.237  48.190  0.00  0.00    -0.231 N 
ATOM     17  H2  A13 d   1       5.175  32.770  47.299  0.00  0.00     0.174 HD
ATOM     18  H3  A13 d   1       6.373  33.462  48.425  0.00  0.00     0.174 HD
ENDBRANCH   5  16
TORSDOF 3
