REMARK  4 active torsions:
REMARK  status: ('A' for Active; 'I' for Inactive)
REMARK    1  A    between atoms: C1_7  and  P1_1 
REMARK    2  A    between atoms: N1_10  and  C1_7 
REMARK    3  A    between atoms: C2_8  and  C3_9 
REMARK    4  A    between atoms: C2_8  and  N1_10 
ROOT
ATOM      1  N1  GPJ d   1      60.234   8.481  29.520  0.00  0.00    -0.053 N 
ATOM      2  H5  GPJ d   1      59.795   9.388  29.514  0.00  0.00     0.278 HD
ATOM      3  H6  GPJ d   1      61.234   8.591  29.461  0.00  0.00     0.278 HD
ENDROOT
BRANCH   1   4
ATOM      4  C1  GPJ d   1      59.810   7.795  28.320  0.00  0.00     0.183 C 
ATOM      5  H1  GPJ d   1      60.287   6.805  28.287  0.00  0.00     0.097 H 
ATOM      6  H2  GPJ d   1      58.717   7.675  28.345  0.00  0.00     0.097 H 
BRANCH   4   7
ATOM      7  P1  GPJ d   1      60.245   8.674  26.903  0.00  0.00     0.285 P 
ATOM      8  O1  GPJ d   1      60.305  10.108  27.245  0.00  0.00    -0.638 OA
ATOM      9  O2  GPJ d   1      59.171   8.300  25.952  0.00  0.00    -0.638 OA
ATOM     10  O3  GPJ d   1      61.601   8.178  26.435  0.00  0.00    -0.638 OA
ENDBRANCH   4   7
ENDBRANCH   1   4
BRANCH   1  11
ATOM     11  C2  GPJ d   1      59.943   7.869  30.818  0.00  0.00     0.161 C 
ATOM     12  H3  GPJ d   1      58.855   7.745  30.921  0.00  0.00     0.092 H 
ATOM     13  H4  GPJ d   1      60.431   6.884  30.869  0.00  0.00     0.092 H 
BRANCH  11  14
ATOM     14  C3  GPJ d   1      60.442   8.715  31.929  0.00  0.00     0.199 C 
ATOM     15  O4  GPJ d   1      60.986   9.831  31.648  0.00  0.00    -0.647 OA
ATOM     16  O5  GPJ d   1      60.289   8.283  33.065  0.00  0.00    -0.647 OA
ENDBRANCH  11  14
ENDBRANCH   1  11
TORSDOF 4
