REMARK  12 active torsions:
REMARK  status: ('A' for Active; 'I' for Inactive)
REMARK    1  A    between atoms: CAV_3  and  OAZ_4 
REMARK    2  A    between atoms: CAF_7  and  CAA_8 
REMARK    3  A    between atoms: CAD_11  and  CAR_12 
REMARK    4  A    between atoms: CAR_12  and  OBA_14 
REMARK    5  A    between atoms: OBA_14  and  CAJ_15 
REMARK    6  A    between atoms: CAJ_15  and  CAU_16 
REMARK    7  A    between atoms: CAK_17  and  CAQ_18 
REMARK    8  A    between atoms: CAQ_18  and  OBB_20 
REMARK    9  A    between atoms: OBB_20  and  CAS_21 
REMARK   10  A    between atoms: CAS_21  and  CAG_22 
REMARK   11  A    between atoms: CAB_24  and  CAH_25 
REMARK   12  A    between atoms: CAT_28  and  OBE_29 
ROOT
ATOM      1  CAA ODE d   1     -13.638   3.987  33.498  0.00  0.00    -0.009 C 
ATOM      2  CAC ODE d   1     -13.464   4.575  32.095  0.00  0.00     0.079 C 
ATOM      3  OBC ODE d   1     -12.559   3.478  31.640  0.00  0.00    -0.369 OA
ATOM      4  CAD ODE d   1     -12.548   5.760  31.789  0.00  0.00     0.074 C 
ATOM      5  CAK ODE d   1     -11.135   5.098  31.792  0.00  0.00     0.074 C 
ATOM      6  CAE ODE d   1     -11.458   3.747  32.537  0.00  0.00     0.079 C 
ATOM      7  CAB ODE d   1     -12.368   3.474  33.783  0.00  0.00    -0.009 C 
ATOM      8  H6  ODE d   1     -14.429   4.682  31.577  0.00  0.00     0.092 H 
ATOM      9  H7  ODE d   1     -12.785   6.267  30.842  0.00  0.00     0.061 H 
ATOM     10  H13 ODE d   1     -10.874   4.840  30.755  0.00  0.00     0.061 H 
ATOM     11  H19 ODE d   1     -10.579   3.085  32.543  0.00  0.00     0.092 H 
ENDROOT
BRANCH   1  12
ATOM     12  CAF ODE d   1     -14.803   3.883  34.263  0.00  0.00    -0.026 A 
ATOM     13  CAI ODE d   1     -16.073   3.973  33.662  0.00  0.00    -0.070 A 
ATOM     14  CAN ODE d   1     -17.254   3.879  34.422  0.00  0.00    -0.050 A 
ATOM     15  H1  ODE d   1     -16.143   4.118  32.590  0.00  0.00     0.084 H 
ATOM     16  CAV ODE d   1     -17.113   3.653  35.788  0.00  0.00     0.065 A 
ATOM     17  H2  ODE d   1     -18.231   3.978  33.963  0.00  0.00     0.087 H 
ATOM     18  CAO ODE d   1     -15.860   3.539  36.376  0.00  0.00    -0.050 A 
ATOM     19  CAL ODE d   1     -14.699   3.656  35.623  0.00  0.00    -0.070 A 
ATOM     20  H4  ODE d   1     -15.787   3.355  37.442  0.00  0.00     0.087 H 
ATOM     21  H5  ODE d   1     -13.726   3.571  36.094  0.00  0.00     0.084 H 
BRANCH  16  22
ATOM     22  OAZ ODE d   1     -18.194   3.497  36.577  0.00  0.00    -0.361 OA
ATOM     23  H3  ODE d   1     -18.698   2.749  36.278  0.00  0.00     0.217 HD
ENDBRANCH  16  22
ENDBRANCH   1  12
BRANCH   7  24
ATOM     24  CAH ODE d   1     -11.940   2.652  34.816  0.00  0.00    -0.026 A 
ATOM     25  CAM ODE d   1     -10.941   2.999  35.715  0.00  0.00    -0.070 A 
ATOM     26  CAW ODE d   1     -10.477   2.076  36.668  0.00  0.00    -0.050 A 
ATOM     27  H20 ODE d   1     -10.513   3.994  35.682  0.00  0.00     0.084 H 
ATOM     28  CAT ODE d   1     -11.018   0.799  36.704  0.00  0.00     0.065 A 
ATOM     29  H21 ODE d   1      -9.702   2.360  37.370  0.00  0.00     0.087 H 
ATOM     30  CAX ODE d   1     -12.005   0.420  35.781  0.00  0.00    -0.050 A 
ATOM     31  CAP ODE d   1     -12.445   1.343  34.835  0.00  0.00    -0.070 A 
ATOM     32  H23 ODE d   1     -12.421  -0.581  35.804  0.00  0.00     0.087 H 
ATOM     33  H24 ODE d   1     -13.188   1.046  34.103  0.00  0.00     0.084 H 
BRANCH  28  34
ATOM     34  OBE ODE d   1     -10.571  -0.060  37.636  0.00  0.00    -0.361 OA
ATOM     35  H22 ODE d   1     -11.025  -0.889  37.544  0.00  0.00     0.217 HD
ENDBRANCH  28  34
ENDBRANCH   7  24
BRANCH   4  36
ATOM     36  CAR ODE d   1     -12.643   6.662  32.942  0.00  0.00     0.266 C 
ATOM     37  OBD ODE d   1     -12.266   6.225  34.040  0.00  0.00    -0.265 OA
BRANCH  36  38
ATOM     38  OBA ODE d   1     -13.108   7.934  32.761  0.00  0.00    -0.321 OA
BRANCH  38  39
ATOM     39  CAJ ODE d   1     -12.763   8.475  31.505  0.00  0.00     0.025 C 
ATOM     40  H8  ODE d   1     -13.398   8.125  30.678  0.00  0.00     0.074 H 
ATOM     41  H9  ODE d   1     -11.705   8.341  31.236  0.00  0.00     0.074 H 
BRANCH  39  42
ATOM     42  CAU ODE d   1     -13.108   9.894  32.003  0.00  0.00    -0.056 C 
ATOM     43  H10 ODE d   1     -12.934  10.619  31.194  0.00  0.00     0.030 H 
ATOM     44  H11 ODE d   1     -12.471  10.145  32.864  0.00  0.00     0.030 H 
ATOM     45  H12 ODE d   1     -14.165   9.930  32.306  0.00  0.00     0.030 H 
ENDBRANCH  39  42
ENDBRANCH  38  39
ENDBRANCH  36  38
ENDBRANCH   4  36
BRANCH   5  46
ATOM     46  CAQ ODE d   1      -9.952   6.027  32.270  0.00  0.00     0.266 C 
ATOM     47  OAY ODE d   1     -10.173   7.166  32.655  0.00  0.00    -0.265 OA
BRANCH  46  48
ATOM     48  OBB ODE d   1      -8.603   5.721  32.239  0.00  0.00    -0.321 OA
BRANCH  48  49
ATOM     49  CAS ODE d   1      -8.316   4.364  32.666  0.00  0.00     0.025 C 
ATOM     50  H14 ODE d   1      -8.741   4.194  33.666  0.00  0.00     0.074 H 
ATOM     51  H15 ODE d   1      -7.227   4.210  32.699  0.00  0.00     0.074 H 
BRANCH  49  52
ATOM     52  CAG ODE d   1      -8.947   3.381  31.663  0.00  0.00    -0.056 C 
ATOM     53  H16 ODE d   1      -8.735   2.349  31.978  0.00  0.00     0.030 H 
ATOM     54  H17 ODE d   1      -8.522   3.554  30.663  0.00  0.00     0.030 H 
ATOM     55  H18 ODE d   1     -10.035   3.538  31.631  0.00  0.00     0.030 H 
ENDBRANCH  49  52
ENDBRANCH  48  49
ENDBRANCH  46  48
ENDBRANCH   5  46
TORSDOF 12
