REMARK  20 active torsions:
REMARK  status: ('A' for Active; 'I' for Inactive)
REMARK    1  A    between atoms: C10_13  and  N1_3 
REMARK    2  A    between atoms: C29_37  and  C4_6 
REMARK    3  A    between atoms: C11_14  and  C10_13 
REMARK    4  A    between atoms: C10_13  and  C13_17 
REMARK       I    between atoms: N3_15  and  C11_14 
REMARK    5  A    between atoms: C12_16  and  N3_15 
REMARK    6  A    between atoms: C12_16  and  C22_27 
REMARK    7  A    between atoms: C23_28  and  C12_16 
REMARK    8  A    between atoms: C13_17  and  C14_18 
REMARK    9  A    between atoms: C13_17  and  C15_19 
REMARK   10  A    between atoms: C22_27  and  C20_25 
REMARK   11  A    between atoms: C24_29  and  C23_28 
REMARK   12  A    between atoms: C25_30  and  C24_29 
REMARK   13  A    between atoms: C24_29  and  O4_36 
REMARK   14  A    between atoms: C25_30  and  N4_31 
REMARK   15  A    between atoms: C25_30  and  C29_37 
REMARK       I    between atoms: N4_31  and  C26_32 
REMARK   16  A    between atoms: C26_32  and  C27_33 
REMARK   17  A    between atoms: C27_33  and  O3_34 
REMARK   18  A    between atoms: O3_34  and  C28_35 
REMARK   19  A    between atoms: C30_39  and  C36_45 
REMARK   20  A    between atoms: C34_43  and  C35_44 
ROOT
ATOM      1  C23 AB1 d   1     -11.722  55.958   4.166  0.00  0.00    -0.020 C 
ATOM      2  H28 AB1 d   1     -10.818  56.570   4.300  0.00  0.00     0.040 H 
ATOM      3  H29 AB1 d   1     -12.048  56.009   3.117  0.00  0.00     0.040 H 
ENDROOT
BRANCH   1   4
ATOM      4  C12 AB1 d   1     -12.835  56.581   5.028  0.00  0.00     0.018 C 
ATOM      5  H13 AB1 d   1     -13.820  56.176   4.752  0.00  0.00     0.073 H 
BRANCH   4   6
ATOM      6  N3  AB1 d   1     -12.523  56.326   6.437  0.00  0.00    -0.354 N 
ATOM      7  C11 AB1 d   1     -13.397  55.749   7.277  0.00  0.00     0.241 C 
ATOM      8  O2  AB1 d   1     -14.533  55.397   6.964  0.00  0.00    -0.271 OA
ATOM      9  H12 AB1 d   1     -11.624  56.592   6.786  0.00  0.00     0.162 HD
BRANCH   7  10
ATOM     10  C10 AB1 d   1     -12.917  55.582   8.697  0.00  0.00     0.096 C 
ATOM     11  H11 AB1 d   1     -11.819  55.652   8.708  0.00  0.00     0.088 H 
BRANCH  10  12
ATOM     12  N1  AB1 d   1     -13.465  56.708   9.471  0.00  0.00    -0.320 N 
ATOM     13  C2  AB1 d   1     -14.918  56.693   9.678  0.00  0.00     0.002 C 
ATOM     14  C37 AB1 d   1     -15.225  57.511  10.949  0.00  0.00    -0.035 C 
ATOM     15  H3  AB1 d   1     -15.266  55.658   9.807  0.00  0.00     0.064 H 
ATOM     16  H4  AB1 d   1     -15.424  57.145   8.812  0.00  0.00     0.064 H 
ATOM     17  C1  AB1 d   1     -14.617  58.917  10.906  0.00  0.00    -0.002 C 
ATOM     18  H47 AB1 d   1     -16.316  57.602  11.054  0.00  0.00     0.037 H 
ATOM     19  H48 AB1 d   1     -14.816  56.977  11.819  0.00  0.00     0.037 H 
ATOM     20  N2  AB1 d   1     -13.217  58.698  10.560  0.00  0.00    -0.343 N 
ATOM     21  H1  AB1 d   1     -15.115  59.533  10.142  0.00  0.00     0.064 H 
ATOM     22  H2  AB1 d   1     -14.703  59.408  11.886  0.00  0.00     0.064 H 
ATOM     23  C3  AB1 d   1     -12.667  57.680   9.887  0.00  0.00     0.319 C 
ATOM     24  H5  AB1 d   1     -12.581  59.406  10.868  0.00  0.00     0.164 HD
ATOM     25  O1  AB1 d   1     -11.467  57.629   9.674  0.00  0.00    -0.247 OA
ENDBRANCH  10  12
BRANCH  10  26
ATOM     26  C13 AB1 d   1     -13.300  54.210   9.281  0.00  0.00    -0.033 C 
ATOM     27  H14 AB1 d   1     -14.398  54.181   9.340  0.00  0.00     0.042 H 
BRANCH  26  28
ATOM     28  C14 AB1 d   1     -12.849  53.046   8.406  0.00  0.00    -0.071 C 
ATOM     29  H15 AB1 d   1     -13.150  52.097   8.874  0.00  0.00     0.028 H 
ATOM     30  H16 AB1 d   1     -11.755  53.071   8.299  0.00  0.00     0.028 H 
ATOM     31  H17 AB1 d   1     -13.317  53.130   7.414  0.00  0.00     0.028 H 
ENDBRANCH  26  28
BRANCH  26  32
ATOM     32  C15 AB1 d   1     -12.750  53.995  10.688  0.00  0.00    -0.071 C 
ATOM     33  H18 AB1 d   1     -13.065  54.826  11.336  0.00  0.00     0.028 H 
ATOM     34  H19 AB1 d   1     -11.651  53.956  10.650  0.00  0.00     0.028 H 
ATOM     35  H20 AB1 d   1     -13.137  53.048  11.092  0.00  0.00     0.028 H 
ENDBRANCH  26  32
ENDBRANCH  10  26
ENDBRANCH   7  10
ENDBRANCH   4   6
BRANCH   4  36
ATOM     36  C22 AB1 d   1     -12.789  58.108   4.866  0.00  0.00    -0.022 C 
ATOM     37  H26 AB1 d   1     -12.998  58.345   3.812  0.00  0.00     0.043 H 
ATOM     38  H27 AB1 d   1     -11.775  58.448   5.125  0.00  0.00     0.043 H 
BRANCH  36  39
ATOM     39  C20 AB1 d   1     -13.781  58.881   5.730  0.00  0.00    -0.056 A 
ATOM     40  C19 AB1 d   1     -13.315  59.672   6.789  0.00  0.00    -0.077 A 
ATOM     41  C18 AB1 d   1     -14.197  60.396   7.600  0.00  0.00    -0.082 A 
ATOM     42  H24 AB1 d   1     -12.250  59.724   6.984  0.00  0.00     0.084 H 
ATOM     43  C17 AB1 d   1     -15.564  60.336   7.347  0.00  0.00    -0.083 A 
ATOM     44  H23 AB1 d   1     -13.818  60.998   8.418  0.00  0.00     0.083 H 
ATOM     45  C16 AB1 d   1     -16.027  59.556   6.288  0.00  0.00    -0.082 A 
ATOM     46  H22 AB1 d   1     -16.261  60.889   7.966  0.00  0.00     0.083 H 
ATOM     47  C21 AB1 d   1     -15.152  58.836   5.478  0.00  0.00    -0.077 A 
ATOM     48  H21 AB1 d   1     -17.092  59.509   6.091  0.00  0.00     0.083 H 
ATOM     49  H25 AB1 d   1     -15.535  58.243   4.655  0.00  0.00     0.084 H 
ENDBRANCH  36  39
ENDBRANCH   4  36
ENDBRANCH   1   4
BRANCH   1  50
ATOM     50  C24 AB1 d   1     -11.340  54.498   4.461  0.00  0.00     0.057 C 
ATOM     51  H30 AB1 d   1     -11.234  54.390   5.551  0.00  0.00     0.086 H 
BRANCH  50  52
ATOM     52  C25 AB1 d   1     -12.367  53.466   3.983  0.00  0.00     0.041 C 
ATOM     53  H31 AB1 d   1     -13.322  53.641   4.500  0.00  0.00     0.076 H 
BRANCH  52  54
ATOM     54  N4  AB1 d   1     -12.526  53.579   2.533  0.00  0.00    -0.352 N 
ATOM     55  C26 AB1 d   1     -13.688  54.017   2.032  0.00  0.00     0.242 C 
ATOM     56  O5  AB1 d   1     -14.630  54.351   2.739  0.00  0.00    -0.271 OA
ATOM     57  H32 AB1 d   1     -11.774  53.331   1.922  0.00  0.00     0.163 HD
BRANCH  55  58
ATOM     58  C27 AB1 d   1     -13.834  54.113   0.529  0.00  0.00     0.099 C 
ATOM     59  H33 AB1 d   1     -13.947  55.171   0.248  0.00  0.00     0.089 H 
ATOM     60  H34 AB1 d   1     -14.730  53.554   0.221  0.00  0.00     0.089 H 
BRANCH  58  61
ATOM     61  O3  AB1 d   1     -12.699  53.574  -0.145  0.00  0.00    -0.341 OA
BRANCH  61  62
ATOM     62  C28 AB1 d   1     -12.811  53.183  -1.452  0.00  0.00     0.081 A 
ATOM     63  C30 AB1 d   1     -12.925  54.151  -2.448  0.00  0.00    -0.028 A 
ATOM     64  C31 AB1 d   1     -13.042  53.769  -3.789  0.00  0.00    -0.074 A 
ATOM     65  C32 AB1 d   1     -13.050  52.423  -4.140  0.00  0.00    -0.082 A 
ATOM     66  H38 AB1 d   1     -13.127  54.527  -4.559  0.00  0.00     0.084 H 
ATOM     67  C33 AB1 d   1     -12.932  51.459  -3.136  0.00  0.00    -0.074 A 
ATOM     68  H39 AB1 d   1     -13.146  52.126  -5.178  0.00  0.00     0.083 H 
ATOM     69  C34 AB1 d   1     -12.812  51.834  -1.797  0.00  0.00    -0.028 A 
ATOM     70  H40 AB1 d   1     -12.934  50.408  -3.400  0.00  0.00     0.084 H 
BRANCH  63  71
ATOM     71  C36 AB1 d   1     -12.921  55.617  -2.087  0.00  0.00    -0.049 C 
ATOM     72  H44 AB1 d   1     -12.822  55.726  -0.997  0.00  0.00     0.033 H 
ATOM     73  H45 AB1 d   1     -13.863  56.079  -2.417  0.00  0.00     0.033 H 
ATOM     74  H46 AB1 d   1     -12.075  56.115  -2.584  0.00  0.00     0.033 H 
ENDBRANCH  63  71
BRANCH  69  75
ATOM     75  C35 AB1 d   1     -12.696  50.757  -0.750  0.00  0.00    -0.049 C 
ATOM     76  H41 AB1 d   1     -12.610  51.220   0.244  0.00  0.00     0.033 H 
ATOM     77  H42 AB1 d   1     -11.803  50.147  -0.949  0.00  0.00     0.033 H 
ATOM     78  H43 AB1 d   1     -13.591  50.118  -0.781  0.00  0.00     0.033 H 
ENDBRANCH  69  75
ENDBRANCH  61  62
ENDBRANCH  58  61
ENDBRANCH  55  58
ENDBRANCH  52  54
BRANCH  52  79
ATOM     79  C29 AB1 d   1     -11.913  52.024   4.188  0.00  0.00    -0.020 C 
ATOM     80  H36 AB1 d   1     -10.980  51.862   3.627  0.00  0.00     0.043 H 
ATOM     81  H37 AB1 d   1     -11.730  51.859   5.260  0.00  0.00     0.043 H 
BRANCH  79  82
ATOM     82  C4  AB1 d   1     -12.954  51.024   3.708  0.00  0.00    -0.056 A 
ATOM     83  C5  AB1 d   1     -12.585  50.033   2.793  0.00  0.00    -0.077 A 
ATOM     84  C6  AB1 d   1     -13.517  49.092   2.340  0.00  0.00    -0.082 A 
ATOM     85  H6  AB1 d   1     -11.564  49.993   2.430  0.00  0.00     0.084 H 
ATOM     86  C7  AB1 d   1     -14.826  49.141   2.802  0.00  0.00    -0.083 A 
ATOM     87  H7  AB1 d   1     -13.218  48.328   1.631  0.00  0.00     0.083 H 
ATOM     88  C8  AB1 d   1     -15.193  50.123   3.725  0.00  0.00    -0.082 A 
ATOM     89  H8  AB1 d   1     -15.557  48.423   2.449  0.00  0.00     0.083 H 
ATOM     90  C9  AB1 d   1     -14.271  51.066   4.178  0.00  0.00    -0.077 A 
ATOM     91  H9  AB1 d   1     -16.211  50.153   4.095  0.00  0.00     0.083 H 
ATOM     92  H10 AB1 d   1     -14.573  51.826   4.889  0.00  0.00     0.084 H 
ENDBRANCH  79  82
ENDBRANCH  52  79
ENDBRANCH  50  52
BRANCH  50  93
ATOM     93  O4  AB1 d   1     -10.096  54.222   3.847  0.00  0.00    -0.393 OA
ATOM     94  H35 AB1 d   1      -9.812  53.348   4.089  0.00  0.00     0.210 HD
ENDBRANCH  50  93
ENDBRANCH   1  50
TORSDOF 20
