REMARK  4 active torsions:
REMARK  status: ('A' for Active; 'I' for Inactive)
REMARK    1  A    between atoms: C12_1  and  C9_4 
REMARK    2  A    between atoms: N1_9  and  C8_3 
REMARK    3  A    between atoms: C9_4  and  O3_6 
REMARK    4  A    between atoms: O3_6  and  C3_14 
ROOT
ATOM      1  C7  7CS d   1      16.143  -2.944  14.390  0.00  0.00    -0.036 C 
ATOM      2  C6  7CS d   1      16.813  -4.002  13.542  0.00  0.00    -0.036 C 
ATOM      3  N1  7CS d   1      15.668  -4.983  15.189  0.00  0.00    -0.066 N 
ATOM      4  C5  7CS d   1      16.149  -5.354  13.787  0.00  0.00     0.106 C 
ATOM      5  C4  7CS d   1      14.906  -5.491  12.938  0.00  0.00    -0.013 C 
ATOM      6  C1  7CS d   1      15.047  -3.592  15.238  0.00  0.00     0.106 C 
ATOM      7  C2  7CS d   1      13.720  -3.697  14.509  0.00  0.00    -0.013 C 
ATOM      8  C3  7CS d   1      13.897  -4.322  13.053  0.00  0.00     0.052 C 
ATOM      9  H5  7CS d   1      15.698  -2.178  13.738  0.00  0.00     0.036 H 
ATOM     10  H6  7CS d   1      16.889  -2.476  15.049  0.00  0.00     0.036 H 
ATOM     11  H7  7CS d   1      17.878  -4.064  13.809  0.00  0.00     0.036 H 
ATOM     12  H8  7CS d   1      16.716  -3.734  12.479  0.00  0.00     0.036 H 
ATOM     13  H9  7CS d   1      14.858  -5.575  15.287  0.00  0.00     0.280 HD
ATOM     14  H10 7CS d   1      16.816  -6.226  13.715  0.00  0.00     0.084 H 
ATOM     15  H11 7CS d   1      14.391  -6.416  13.236  0.00  0.00     0.039 H 
ATOM     16  H12 7CS d   1      15.219  -5.568  11.886  0.00  0.00     0.039 H 
ATOM     17  H13 7CS d   1      14.933  -3.154  16.240  0.00  0.00     0.084 H 
ATOM     18  H14 7CS d   1      13.284  -2.692  14.415  0.00  0.00     0.039 H 
ATOM     19  H15 7CS d   1      13.042  -4.338  15.092  0.00  0.00     0.039 H 
ATOM     20  H16 7CS d   1      12.916  -4.728  12.765  0.00  0.00     0.084 H 
ENDROOT
BRANCH   8  21
ATOM     21  O3  7CS d   1      14.245  -3.238  12.076  0.00  0.00    -0.312 OA
BRANCH  21  22
ATOM     22  C9  7CS d   1      13.340  -2.288  11.716  0.00  0.00     0.296 C 
ATOM     23  O4  7CS d   1      12.216  -2.319  12.162  0.00  0.00    -0.259 OA
BRANCH  22  24
ATOM     24  C12 7CS d   1      13.837  -1.316  10.856  0.00  0.00     0.069 A 
ATOM     25  C11 7CS d   1      13.187  -0.235  10.346  0.00  0.00    -0.004 A 
ATOM     26  N10 7CS d   1      14.010   0.588   9.578  0.00  0.00    -0.349 N 
ATOM     27  H4  7CS d   1      12.131  -0.033  10.520  0.00  0.00     0.113 H 
ATOM     28  C15 7CS d   1      15.254  -0.022   9.504  0.00  0.00     0.138 A 
ATOM     29  H20 7CS d   1      13.743   1.484   9.145  0.00  0.00     0.167 HD
ATOM     30  N14 7CS d   1      16.440   0.432   8.849  0.00  0.00    -0.242 NA
ATOM     31  C16 7CS d   1      15.177  -1.222  10.302  0.00  0.00     0.028 A 
ATOM     32  C13 7CS d   1      17.656  -0.357   8.873  0.00  0.00     0.004 A 
ATOM     33  C18 7CS d   1      17.685  -1.604   9.625  0.00  0.00    -0.065 A 
ATOM     34  H17 7CS d   1      18.536  -0.022   8.336  0.00  0.00     0.114 H 
ATOM     35  C17 7CS d   1      16.423  -2.004  10.365  0.00  0.00    -0.067 A 
ATOM     36  H19 7CS d   1      18.575  -2.223   9.655  0.00  0.00     0.085 H 
ATOM     37  H18 7CS d   1      16.439  -2.905  10.967  0.00  0.00     0.085 H 
ENDBRANCH  22  24
ENDBRANCH  21  22
ENDBRANCH   8  21
BRANCH   3  38
ATOM     38  C8  7CS d   1      16.468  -5.417  16.368  0.00  0.00     0.067 C 
ATOM     39  H1  7CS d   1      16.853  -6.433  16.196  0.00  0.00     0.068 H 
ATOM     40  H2  7CS d   1      15.831  -5.413  17.265  0.00  0.00     0.068 H 
ATOM     41  H3  7CS d   1      17.311  -4.726  16.514  0.00  0.00     0.068 H 
ENDBRANCH   3  38
TORSDOF 4
