REMARK  3 active torsions:
REMARK  status: ('A' for Active; 'I' for Inactive)
REMARK    1  A    between atoms: N11_7  and  C18_12 
REMARK    2  A    between atoms: C18_12  and  C7_17 
REMARK    3  A    between atoms: C23_14  and  C9_15 
ROOT
ATOM      1  C1  582 d   1      20.695  -2.302   9.555  0.00  0.00    -0.081 A 
ATOM      2  C2  582 d   1      19.650  -2.943  10.319  0.00  0.00    -0.056 A 
ATOM      3  C3  582 d   1      18.300  -2.411  10.259  0.00  0.00     0.050 A 
ATOM      4  C4  582 d   1      18.032  -1.225   9.458  0.00  0.00     0.020 A 
ATOM      5  C5  582 d   1      19.059  -0.585   8.763  0.00  0.00    -0.069 A 
ATOM      6  C6  582 d   1      20.393  -1.120   8.792  0.00  0.00    -0.082 A 
ATOM      7  N11 582 d   1      17.222  -3.007  10.941  0.00  0.00    -0.313 N 
ATOM      8  C12 582 d   1      15.925  -2.516  10.857  0.00  0.00     0.262 A 
ATOM      9  C13 582 d   1      15.661  -1.277  10.107  0.00  0.00     0.087 A 
ATOM     10  C14 582 d   1      16.667  -0.659   9.454  0.00  0.00     0.080 A 
ATOM     11  O2  582 d   1      14.962  -3.013  11.410  0.00  0.00    -0.267 OA
ATOM     12  N1  582 d   1      16.120   0.559   8.878  0.00  0.00    -0.276 N 
ATOM     13  C23 582 d   1      14.461  -0.493   9.887  0.00  0.00     0.069 A 
ATOM     14  N2  582 d   1      14.837   0.597   9.146  0.00  0.00    -0.178 NA
ATOM     15  H1  582 d   1      21.700  -2.709   9.556  0.00  0.00     0.083 H 
ATOM     16  H2  582 d   1      19.871  -3.811  10.930  0.00  0.00     0.087 H 
ATOM     17  H3  582 d   1      18.850   0.318   8.200  0.00  0.00     0.085 H 
ATOM     18  H4  582 d   1      21.180  -0.627   8.233  0.00  0.00     0.083 H 
ATOM     19  H7  582 d   1      16.649   1.269   8.351  0.00  0.00     0.189 HD
ENDROOT
BRANCH   7  20
ATOM     20  C18 582 d   1      17.307  -4.238  11.807  0.00  0.00    -0.000 C 
ATOM     21  H5  582 d   1      16.390  -4.339  12.407  0.00  0.00     0.064 H 
ATOM     22  H6  582 d   1      18.177  -4.166  12.476  0.00  0.00     0.064 H 
BRANCH  20  23
ATOM     23  C7  582 d   1      17.460  -5.450  10.878  0.00  0.00    -0.061 C 
ATOM     24  H11 582 d   1      17.525  -6.368  11.481  0.00  0.00     0.029 H 
ATOM     25  H12 582 d   1      18.376  -5.339  10.279  0.00  0.00     0.029 H 
ATOM     26  H13 582 d   1      16.589  -5.511  10.209  0.00  0.00     0.029 H 
ENDBRANCH  20  23
ENDBRANCH   7  20
BRANCH  13  27
ATOM     27  C9  582 d   1      13.060  -0.762  10.398  0.00  0.00    -0.033 C 
ATOM     28  H8  582 d   1      12.383   0.031  10.047  0.00  0.00     0.035 H 
ATOM     29  H9  582 d   1      13.067  -0.777  11.498  0.00  0.00     0.035 H 
ATOM     30  H10 582 d   1      12.712  -1.735  10.020  0.00  0.00     0.035 H 
ENDBRANCH  13  27
TORSDOF 3
