REMARK WARNING: 32 MAX_TORS EXCEEDED!!!
REMARK  52 active torsions:
REMARK  status: ('A' for Active; 'I' for Inactive)
REMARK    1  A    between atoms: N_1  and  CA_2 
REMARK    2  A    between atoms: CA_2  and  C_3 
REMARK    3  A    between atoms: CA_2  and  CB_5 
REMARK       I    between atoms: C_3  and  N_8 
REMARK    4  A    between atoms: CB_5  and  CG1_6 
REMARK    5  A    between atoms: CB_5  and  CG2_7 
REMARK    6  A    between atoms: N_8  and  CA_9 
REMARK    7  A    between atoms: CA_9  and  C_10 
REMARK    8  A    between atoms: CA_9  and  CB_12 
REMARK       I    between atoms: C_10  and  N_17 
REMARK    9  A    between atoms: CB_12  and  CG_13 
REMARK   10  A    between atoms: CG_13  and  CD_14 
REMARK   11  A    between atoms: N_17  and  CA_18 
REMARK   12  A    between atoms: CA_18  and  C_19 
REMARK   13  A    between atoms: CA_18  and  CB_21 
REMARK       I    between atoms: C_19  and  N_26 
REMARK   14  A    between atoms: CB_21  and  CG_22 
REMARK   15  A    between atoms: CG_22  and  CD_23 
REMARK       I    between atoms: CD_23  and  NE2_25 
REMARK   16  A    between atoms: N_26  and  CA_27 
REMARK   17  A    between atoms: CA_27  and  C_28 
REMARK   18  A    between atoms: CA_27  and  CB_30 
REMARK       I    between atoms: C_28  and  N_36 
REMARK   19  A    between atoms: CB_30  and  CG_31 
REMARK   20  A    between atoms: N_36  and  CA_37 
REMARK   21  A    between atoms: CA_37  and  C_38 
REMARK   22  A    between atoms: CA_37  and  CB_40 
REMARK       I    between atoms: C_38  and  N_46 
REMARK   23  A    between atoms: CB_40  and  CG_41 
REMARK   24  A    between atoms: N_46  and  CA_47 
REMARK   25  A    between atoms: CA_47  and  C_48 
REMARK   26  A    between atoms: CA_47  and  CB_50 
REMARK       I    between atoms: C_48  and  N_57 
REMARK   27  A    between atoms: CB_50  and  CG_51 
REMARK   28  A    between atoms: CG_51  and  CD_52 
REMARK   29  A    between atoms: CD_52  and  NE_53 
REMARK       I    between atoms: NE_53  and  CZ_54 
REMARK       I    between atoms: CZ_54  and  NH1_55 
REMARK       I    between atoms: CZ_54  and  NH2_56 
REMARK   30  A    between atoms: N_57  and  CA_58 
REMARK   31  A    between atoms: CA_58  and  C_59 
REMARK   32  A    between atoms: CA_58  and  CB_61 
REMARK       I    between atoms: C_59  and  N_68 
REMARK   33  A    between atoms: CB_61  and  CG_62 
REMARK   34  A    between atoms: CG_62  and  CD_63 
REMARK   35  A    between atoms: CD_63  and  NE_64 
REMARK       I    between atoms: NE_64  and  CZ_65 
REMARK       I    between atoms: CZ_65  and  NH1_66 
REMARK   36  A    between atoms: N_68  and  CA_69 
REMARK   37  A    between atoms: CA_69  and  C_70 
REMARK   38  A    between atoms: CA_69  and  CB_72 
REMARK       I    between atoms: C_70  and  N_75 
REMARK   39  A    between atoms: CB_72  and  OG1_73 
REMARK   40  A    between atoms: CB_72  and  CG2_74 
REMARK   41  A    between atoms: N_75  and  CA_76 
REMARK   42  A    between atoms: CA_76  and  C_77 
REMARK   43  A    between atoms: CA_76  and  CB_79 
REMARK       I    between atoms: C_77  and  N_83 
REMARK   44  A    between atoms: CB_79  and  CG_80 
REMARK   45  A    between atoms: N_83  and  CA_84 
REMARK   46  A    between atoms: CA_84  and  C_85 
REMARK   47  A    between atoms: CA_84  and  CB_87 
REMARK       I    between atoms: C_85  and  N_91 
REMARK   48  A    between atoms: CB_87  and  CG_88 
REMARK       I    between atoms: CG_88  and  ND2_90 
REMARK   49  A    between atoms: N_91  and  CA_92 
REMARK   50  A    between atoms: CA_92  and  C_93 
REMARK   51  A    between atoms: CA_92  and  CB_95 
REMARK   52  A    between atoms: CB_95  and  CG_96 
ROOT
ATOM      1  CA  ARG d   1      82.883 -18.781  57.361  0.00  0.00     0.089 C 
ATOM      2  H41 ARG d   1      81.896 -18.330  57.181  0.00  0.00     0.087 H 
ENDROOT
BRANCH   1   3
ATOM      3  N   ARG d   1      82.955 -20.082  56.672  0.00  0.00    -0.346 N 
ATOM      4  C   HIS d   1      82.528 -20.241  55.410  0.00  0.00     0.241 C 
ATOM      5  O   HIS d   1      81.939 -19.370  54.799  0.00  0.00    -0.271 OA
ATOM      6  H40 ARG d   1      83.333 -20.869  57.159  0.00  0.00     0.163 HD
BRANCH   4   7
ATOM      7  CA  HIS d   1      82.887 -21.542  54.692  0.00  0.00     0.094 C 
ATOM      8  H34 HIS d   1      82.839 -22.386  55.396  0.00  0.00     0.088 H 
BRANCH   7   9
ATOM      9  N   HIS d   1      81.952 -21.793  53.572  0.00  0.00    -0.346 N 
ATOM     10  C   HIS d   1      80.654 -22.032  53.776  0.00  0.00     0.241 C 
ATOM     11  O   HIS d   1      80.163 -22.145  54.893  0.00  0.00    -0.271 OA
ATOM     12  H33 HIS d   1      82.302 -21.783  52.636  0.00  0.00     0.163 HD
BRANCH  10  13
ATOM     13  CA  HIS d   1      79.740 -22.054  52.554  0.00  0.00     0.094 C 
ATOM     14  H27 HIS d   1      80.269 -22.416  51.660  0.00  0.00     0.088 H 
BRANCH  13  15
ATOM     15  N   HIS d   1      78.555 -22.909  52.830  0.00  0.00    -0.346 N 
ATOM     16  C   GLN d   1      78.496 -24.171  52.406  0.00  0.00     0.241 C 
ATOM     17  O   GLN d   1      79.380 -24.647  51.679  0.00  0.00    -0.271 OA
ATOM     18  H26 HIS d   1      77.786 -22.529  53.344  0.00  0.00     0.163 HD
BRANCH  16  19
ATOM     19  CA  GLN d   1      77.255 -25.002  52.814  0.00  0.00     0.090 C 
ATOM     20  H19 GLN d   1      76.493 -24.297  53.176  0.00  0.00     0.087 H 
BRANCH  19  21
ATOM     21  N   GLN d   1      76.671 -25.771  51.705  0.00  0.00    -0.346 N 
ATOM     22  C   GLU d   1      76.213 -25.181  50.602  0.00  0.00     0.241 C 
ATOM     23  O   GLU d   1      76.169 -23.944  50.478  0.00  0.00    -0.271 OA
ATOM     24  H18 GLN d   1      76.616 -26.767  51.781  0.00  0.00     0.163 HD
BRANCH  22  25
ATOM     25  CA  GLU d   1      75.726 -26.122  49.478  0.00  0.00     0.090 C 
ATOM     26  H13 GLU d   1      75.697 -27.135  49.905  0.00  0.00     0.087 H 
BRANCH  25  27
ATOM     27  N   GLU d   1      74.374 -25.822  49.003  0.00  0.00    -0.346 N 
ATOM     28  C   VAL d   1      73.322 -26.511  49.415  0.00  0.00     0.249 C 
ATOM     29  O   VAL d   1      73.421 -27.502  50.153  0.00  0.00    -0.271 OA
ATOM     30  H12 GLU d   1      74.242 -25.076  48.350  0.00  0.00     0.163 HD
BRANCH  28  31
ATOM     31  CA  VAL d   1      71.945 -25.988  48.964  0.00  0.00     0.178 C 
ATOM     32  H4  VAL d   1      72.069 -25.344  48.081  0.00  0.00     0.099 H 
BRANCH  31  33
ATOM     33  N   VAL d   1      71.093 -27.117  48.622  0.00  0.00    -0.066 N 
ATOM     34  H1  VAL d   1      71.519 -27.645  47.876  0.00  0.00     0.275 HD
ATOM     35  H2  VAL d   1      70.192 -26.779  48.322  0.00  0.00     0.275 HD
ATOM     36  H3  VAL d   1      70.979 -27.709  49.430  0.00  0.00     0.275 HD
ENDBRANCH  31  33
BRANCH  31  37
ATOM     37  CB  VAL d   1      71.300 -25.166  50.112  0.00  0.00    -0.025 C 
ATOM     38  H5  VAL d   1      71.257 -25.800  51.010  0.00  0.00     0.042 H 
BRANCH  37  39
ATOM     39  CG1 VAL d   1      72.094 -23.967  50.426  0.00  0.00    -0.071 C 
ATOM     40  H6  VAL d   1      71.610 -23.410  51.241  0.00  0.00     0.028 H 
ATOM     41  H7  VAL d   1      72.161 -23.327  49.534  0.00  0.00     0.028 H 
ATOM     42  H8  VAL d   1      73.105 -24.268  50.738  0.00  0.00     0.028 H 
ENDBRANCH  37  39
BRANCH  37  43
ATOM     43  CG2 VAL d   1      69.893 -24.758  49.741  0.00  0.00    -0.071 C 
ATOM     44  H9  VAL d   1      69.301 -25.655  49.507  0.00  0.00     0.028 H 
ATOM     45  H10 VAL d   1      69.922 -24.098  48.861  0.00  0.00     0.028 H 
ATOM     46  H11 VAL d   1      69.431 -24.224  50.585  0.00  0.00     0.028 H 
ENDBRANCH  37  43
ENDBRANCH  31  37
ENDBRANCH  28  31
ENDBRANCH  25  27
BRANCH  25  47
ATOM     47  CB  GLU d   1      76.719 -26.149  48.292  0.00  0.00    -0.029 C 
ATOM     48  H14 GLU d   1      76.447 -25.348  47.589  0.00  0.00     0.037 H 
ATOM     49  H15 GLU d   1      76.637 -27.123  47.788  0.00  0.00     0.037 H 
BRANCH  47  50
ATOM     50  CG  GLU d   1      78.179 -25.944  48.727  0.00  0.00     0.018 C 
ATOM     51  H16 GLU d   1      78.471 -26.783  49.376  0.00  0.00     0.049 H 
ATOM     52  H17 GLU d   1      78.246 -25.003  49.292  0.00  0.00     0.049 H 
BRANCH  50  53
ATOM     53  CD  GLU d   1      79.159 -25.876  47.552  0.00  0.00     0.172 C 
ATOM     54  OE1 GLU d   1      78.825 -26.450  46.483  0.00  0.00    -0.648 OA
ATOM     55  OE2 GLU d   1      80.251 -25.252  47.702  0.00  0.00    -0.648 OA
ENDBRANCH  50  53
ENDBRANCH  47  50
ENDBRANCH  25  47
ENDBRANCH  22  25
ENDBRANCH  19  21
BRANCH  19  56
ATOM     56  CB  GLN d   1      77.584 -25.966  53.931  0.00  0.00    -0.030 C 
ATOM     57  H20 GLN d   1      78.405 -26.613  53.587  0.00  0.00     0.037 H 
ATOM     58  H21 GLN d   1      76.690 -26.578  54.122  0.00  0.00     0.037 H 
BRANCH  56  59
ATOM     59  CG  GLN d   1      78.014 -25.327  55.267  0.00  0.00     0.011 C 
ATOM     60  H22 GLN d   1      77.222 -24.652  55.625  0.00  0.00     0.047 H 
ATOM     61  H23 GLN d   1      78.944 -24.757  55.121  0.00  0.00     0.047 H 
BRANCH  59  62
ATOM     62  CD  GLN d   1      78.242 -26.411  56.272  0.00  0.00     0.215 C 
ATOM     63  OE1 GLN d   1      78.677 -27.483  55.894  0.00  0.00    -0.274 OA
ATOM     64  NE2 GLN d   1      77.913 -26.175  57.534  0.00  0.00    -0.370 N 
ATOM     65  H24 GLN d   1      78.054 -26.881  58.228  0.00  0.00     0.159 HD
ATOM     66  H25 GLN d   1      77.524 -25.291  57.792  0.00  0.00     0.159 HD
ENDBRANCH  59  62
ENDBRANCH  56  59
ENDBRANCH  19  56
ENDBRANCH  16  19
ENDBRANCH  13  15
BRANCH  13  67
ATOM     67  CB  HIS d   1      79.324 -20.597  52.401  0.00  0.00     0.004 C 
ATOM     68  H28 HIS d   1      80.234 -19.979  52.380  0.00  0.00     0.046 H 
ATOM     69  H29 HIS d   1      78.713 -20.320  53.273  0.00  0.00     0.046 H 
BRANCH  67  70
ATOM     70  CG  HIS d   1      78.536 -20.310  51.168  0.00  0.00     0.053 A 
ATOM     71  ND1 HIS d   1      77.184 -20.585  51.062  0.00  0.00    -0.247 NA
ATOM     72  CE1 HIS d   1      76.754 -20.207  49.869  0.00  0.00     0.064 A 
ATOM     73  NE2 HIS d   1      77.776 -19.696  49.198  0.00  0.00    -0.359 N 
ATOM     74  H31 HIS d   1      75.733 -20.300  49.501  0.00  0.00     0.143 H 
ATOM     75  CD2 HIS d   1      78.899 -19.741  49.992  0.00  0.00     0.002 A 
ATOM     76  H32 HIS d   1      77.736 -19.325  48.238  0.00  0.00     0.166 HD
ATOM     77  H30 HIS d   1      79.893 -19.386  49.726  0.00  0.00     0.114 H 
ENDBRANCH  67  70
ENDBRANCH  13  67
ENDBRANCH  10  13
ENDBRANCH   7   9
BRANCH   7  78
ATOM     78  CB  HIS d   1      84.333 -21.367  54.180  0.00  0.00     0.004 C 
ATOM     79  H35 HIS d   1      84.989 -21.205  55.048  0.00  0.00     0.046 H 
ATOM     80  H36 HIS d   1      84.363 -20.482  53.528  0.00  0.00     0.046 H 
BRANCH  78  81
ATOM     81  CG  HIS d   1      84.860 -22.538  53.406  0.00  0.00     0.053 A 
ATOM     82  ND1 HIS d   1      85.809 -22.399  52.419  0.00  0.00    -0.247 NA
ATOM     83  CE1 HIS d   1      86.097 -23.590  51.917  0.00  0.00     0.064 A 
ATOM     84  NE2 HIS d   1      85.358 -24.494  52.534  0.00  0.00    -0.359 N 
ATOM     85  H38 HIS d   1      86.821 -23.790  51.129  0.00  0.00     0.143 H 
ATOM     86  CD2 HIS d   1      84.585 -23.864  53.480  0.00  0.00     0.002 A 
ATOM     87  H39 HIS d   1      85.361 -25.505  52.338  0.00  0.00     0.166 HD
ATOM     88  H37 HIS d   1      83.882 -24.341  54.162  0.00  0.00     0.114 H 
ENDBRANCH  78  81
ENDBRANCH   7  78
ENDBRANCH   4   7
ENDBRANCH   1   3
BRANCH   1  89
ATOM     89  C   ARG d   1      83.958 -17.909  56.704  0.00  0.00     0.241 C 
ATOM     90  O   ARG d   1      84.881 -18.449  56.101  0.00  0.00    -0.271 OA
ATOM     91  N   ARG d   1      83.796 -16.588  56.775  0.00  0.00    -0.346 N 
ATOM     92  H53 ARG d   1      82.974 -16.239  57.224  0.00  0.00     0.163 HD
BRANCH  91  93
ATOM     93  CA  ARG d   1      84.741 -15.627  56.240  0.00  0.00     0.089 C 
ATOM     94  H54 ARG d   1      85.343 -16.068  55.431  0.00  0.00     0.087 H 
BRANCH  93  95
ATOM     95  C   ARG d   1      85.586 -15.211  57.411  0.00  0.00     0.241 C 
ATOM     96  O   ARG d   1      85.081 -15.117  58.526  0.00  0.00    -0.271 OA
ATOM     97  N   THR d   1      86.868 -14.986  57.164  0.00  0.00    -0.344 N 
ATOM     98  H66 THR d   1      87.227 -15.193  56.254  0.00  0.00     0.163 HD
BRANCH  97  99
ATOM     99  CA  THR d   1      87.766 -14.453  58.160  0.00  0.00     0.113 C 
ATOM    100  H67 THR d   1      87.211 -13.831  58.878  0.00  0.00     0.091 H 
BRANCH  99 101
ATOM    101  C   THR d   1      88.751 -13.585  57.351  0.00  0.00     0.243 C 
ATOM    102  O   THR d   1      88.853 -13.731  56.137  0.00  0.00    -0.271 OA
ATOM    103  N   ASP d   1      89.409 -12.649  58.003  0.00  0.00    -0.345 N 
ATOM    104  H73 ASP d   1      89.206 -12.522  58.974  0.00  0.00     0.163 HD
BRANCH 103 105
ATOM    105  CA  ASP d   1      90.423 -11.781  57.392  0.00  0.00     0.098 C 
ATOM    106  H74 ASP d   1      89.952 -11.152  56.622  0.00  0.00     0.088 H 
BRANCH 105 107
ATOM    107  C   ASP d   1      91.534 -12.644  56.755  0.00  0.00     0.241 C 
ATOM    108  O   ASP d   1      91.967 -13.649  57.339  0.00  0.00    -0.271 OA
ATOM    109  N   ASN d   1      92.010 -12.236  55.594  0.00  0.00    -0.346 N 
ATOM    110  H77 ASN d   1      91.630 -11.401  55.196  0.00  0.00     0.163 HD
BRANCH 109 111
ATOM    111  CA  ASN d   1      93.095 -12.956  54.831  0.00  0.00     0.097 C 
ATOM    112  H78 ASN d   1      93.162 -12.463  53.850  0.00  0.00     0.088 H 
BRANCH 111 113
ATOM    113  C   ASN d   1      92.853 -14.455  54.577  0.00  0.00     0.241 C 
ATOM    114  O   ASN d   1      93.785 -15.244  54.795  0.00  0.00    -0.271 OA
ATOM    115  N   ASP d   1      91.630 -14.840  54.161  0.00  0.00    -0.344 N 
ATOM    116  H83 ASP d   1      90.925 -14.140  54.047  0.00  0.00     0.163 HD
BRANCH 115 117
ATOM    117  CA  ASP d   1      91.278 -16.246  53.865  0.00  0.00     0.105 C 
ATOM    118  H84 ASP d   1      91.994 -16.868  54.422  0.00  0.00     0.090 H 
BRANCH 117 119
ATOM    119  C   ASP d   1      91.445 -16.625  52.372  0.00  0.00     0.197 C 
ATOM    120  O   ASP d   1      92.079 -15.833  51.640  0.00  0.00    -0.646 OA
ATOM    121  OXT ASP d   1      91.007 -17.674  51.831  0.00  0.00    -0.646 OA
ENDBRANCH 117 119
BRANCH 117 122
ATOM    122  CB  ASP d   1      89.893 -16.597  54.394  0.00  0.00     0.044 C 
ATOM    123  H85 ASP d   1      89.877 -16.413  55.478  0.00  0.00     0.053 H 
ATOM    124  H86 ASP d   1      89.706 -17.664  54.201  0.00  0.00     0.053 H 
BRANCH 122 125
ATOM    125  CG  ASP d   1      88.749 -15.769  53.736  0.00  0.00     0.175 C 
ATOM    126  OD1 ASP d   1      89.057 -14.860  52.923  0.00  0.00    -0.648 OA
ATOM    127  OD2 ASP d   1      87.553 -16.020  54.053  0.00  0.00    -0.648 OA
ENDBRANCH 122 125
ENDBRANCH 117 122
ENDBRANCH 115 117
ENDBRANCH 111 113
BRANCH 111 128
ATOM    128  CB  ASN d   1      94.462 -12.845  55.513  0.00  0.00     0.036 C 
ATOM    129  H79 ASN d   1      95.223 -13.282  54.849  0.00  0.00     0.051 H 
ATOM    130  H80 ASN d   1      94.431 -13.409  56.457  0.00  0.00     0.051 H 
BRANCH 128 131
ATOM    131  CG  ASN d   1      94.850 -11.415  55.817  0.00  0.00     0.217 C 
ATOM    132  OD1 ASN d   1      95.155 -11.069  56.964  0.00  0.00    -0.274 OA
ATOM    133  ND2 ASN d   1      94.820 -10.568  54.798  0.00  0.00    -0.370 N 
ATOM    134  H81 ASN d   1      95.066  -9.609  54.938  0.00  0.00     0.159 HD
ATOM    135  H82 ASN d   1      94.551 -10.888  53.890  0.00  0.00     0.159 HD
ENDBRANCH 128 131
ENDBRANCH 111 128
ENDBRANCH 109 111
ENDBRANCH 105 107
BRANCH 105 136
ATOM    136  CB  ASP d   1      91.064 -10.891  58.472  0.00  0.00     0.043 C 
ATOM    137  H75 ASP d   1      91.651 -10.104  57.975  0.00  0.00     0.052 H 
ATOM    138  H76 ASP d   1      91.731 -11.512  59.088  0.00  0.00     0.052 H 
BRANCH 136 139
ATOM    139  CG  ASP d   1      90.045 -10.235  59.375  0.00  0.00     0.175 C 
ATOM    140  OD1 ASP d   1      89.674  -9.109  59.065  0.00  0.00    -0.648 OA
ATOM    141  OD2 ASP d   1      89.570 -10.825  60.380  0.00  0.00    -0.648 OA
ENDBRANCH 136 139
ENDBRANCH 105 136
ENDBRANCH 103 105
ENDBRANCH  99 101
BRANCH  99 142
ATOM    142  CB  THR d   1      88.494 -15.569  58.933  0.00  0.00     0.060 C 
ATOM    143  H68 THR d   1      87.755 -16.236  59.401  0.00  0.00     0.086 H 
BRANCH 142 144
ATOM    144  OG1 THR d   1      89.329 -14.956  59.942  0.00  0.00    -0.393 OA
ATOM    145  H69 THR d   1      89.785 -15.633  60.428  0.00  0.00     0.210 HD
ENDBRANCH 142 144
BRANCH 142 146
ATOM    146  CG2 THR d   1      89.431 -16.396  57.983  0.00  0.00    -0.050 C 
ATOM    147  H70 THR d   1      89.936 -17.184  58.561  0.00  0.00     0.031 H 
ATOM    148  H71 THR d   1      90.183 -15.728  57.538  0.00  0.00     0.031 H 
ATOM    149  H72 THR d   1      88.830 -16.856  57.184  0.00  0.00     0.031 H 
ENDBRANCH 142 146
ENDBRANCH  99 142
ENDBRANCH  97  99
ENDBRANCH  93  95
BRANCH  93 150
ATOM    150  CB  ARG d   1      84.013 -14.366  55.758  0.00  0.00    -0.036 C 
ATOM    151  H55 ARG d   1      84.772 -13.660  55.391  0.00  0.00     0.036 H 
ATOM    152  H56 ARG d   1      83.492 -13.928  56.622  0.00  0.00     0.036 H 
BRANCH 150 153
ATOM    153  CG  ARG d   1      82.981 -14.565  54.641  0.00  0.00    -0.048 C 
ATOM    154  H57 ARG d   1      82.613 -13.582  54.310  0.00  0.00     0.035 H 
ATOM    155  H58 ARG d   1      82.141 -15.160  55.028  0.00  0.00     0.035 H 
BRANCH 153 156
ATOM    156  CD  ARG d   1      83.605 -15.296  53.446  0.00  0.00     0.009 C 
ATOM    157  H59 ARG d   1      82.947 -15.157  52.575  0.00  0.00     0.064 H 
ATOM    158  H60 ARG d   1      83.667 -16.366  53.691  0.00  0.00     0.064 H 
BRANCH 156 159
ATOM    159  NE  ARG d   1      84.960 -14.825  53.083  0.00  0.00    -0.227 N 
ATOM    160  CZ  ARG d   1      85.163 -13.871  52.174  0.00  0.00     0.665 C 
ATOM    161  NH1 ARG d   1      86.390 -13.464  51.851  0.00  0.00    -0.235 N 
ATOM    162  NH2 ARG d   1      84.102 -13.315  51.590  0.00  0.00    -0.235 N 
ATOM    163  H62 ARG d   1      86.518 -12.725  51.145  0.00  0.00     0.174 HD
ATOM    164  H63 ARG d   1      87.210 -13.889  52.307  0.00  0.00     0.174 HD
ATOM    165  H64 ARG d   1      83.153 -13.629  51.839  0.00  0.00     0.174 HD
ATOM    166  H65 ARG d   1      84.231 -12.571  50.889  0.00  0.00     0.174 HD
ATOM    167  H61 ARG d   1      85.775 -15.249  53.549  0.00  0.00     0.177 HD
ENDBRANCH 156 159
ENDBRANCH 153 156
ENDBRANCH 150 153
ENDBRANCH  93 150
ENDBRANCH  91  93
ENDBRANCH   1  89
BRANCH   1 168
ATOM    168  CB  ARG d   1      83.066 -18.918  58.896  0.00  0.00    -0.036 C 
ATOM    169  H42 ARG d   1      82.453 -19.767  59.233  0.00  0.00     0.036 H 
ATOM    170  H43 ARG d   1      82.698 -17.992  59.362  0.00  0.00     0.036 H 
BRANCH 168 171
ATOM    171  CG  ARG d   1      84.531 -19.157  59.400  0.00  0.00    -0.048 C 
ATOM    172  H44 ARG d   1      85.161 -18.299  59.123  0.00  0.00     0.035 H 
ATOM    173  H45 ARG d   1      84.935 -20.072  58.941  0.00  0.00     0.035 H 
BRANCH 171 174
ATOM    174  CD  ARG d   1      84.513 -19.308  60.894  0.00  0.00     0.009 C 
ATOM    175  H46 ARG d   1      84.052 -20.275  61.145  0.00  0.00     0.064 H 
ATOM    176  H47 ARG d   1      83.912 -18.493  61.323  0.00  0.00     0.064 H 
BRANCH 174 177
ATOM    177  NE  ARG d   1      85.862 -19.261  61.485  0.00  0.00    -0.227 N 
ATOM    178  CZ  ARG d   1      86.636 -20.326  61.656  0.00  0.00     0.665 C 
ATOM    179  NH1 ARG d   1      87.854 -20.212  62.227  0.00  0.00    -0.235 N 
ATOM    180  NH2 ARG d   1      86.185 -21.507  61.223  0.00  0.00    -0.235 N 
ATOM    181  H49 ARG d   1      88.444 -21.047  62.353  0.00  0.00     0.174 HD
ATOM    182  H50 ARG d   1      88.194 -19.290  62.536  0.00  0.00     0.174 HD
ATOM    183  H51 ARG d   1      85.253 -21.575  60.790  0.00  0.00     0.174 HD
ATOM    184  H52 ARG d   1      86.769 -22.349  61.322  0.00  0.00     0.174 HD
ATOM    185  H48 ARG d   1      86.227 -18.345  61.784  0.00  0.00     0.177 HD
ENDBRANCH 174 177
ENDBRANCH 171 174
ENDBRANCH 168 171
ENDBRANCH   1 168
TORSDOF 52
