REMARK WARNING: 32 MAX_TORS EXCEEDED!!!
REMARK  44 active torsions:
REMARK  status: ('A' for Active; 'I' for Inactive)
REMARK    1  A    between atoms: N_1  and  CA_2 
REMARK    2  A    between atoms: CA_2  and  C_3 
REMARK    3  A    between atoms: CA_2  and  CB_5 
REMARK       I    between atoms: C_3  and  N_6 
REMARK    4  A    between atoms: N_6  and  CA_7 
REMARK    5  A    between atoms: CA_7  and  C_8 
REMARK    6  A    between atoms: CA_7  and  CB_10 
REMARK       I    between atoms: C_8  and  N_17 
REMARK    7  A    between atoms: CB_10  and  CG_11 
REMARK    8  A    between atoms: CG_11  and  CD_12 
REMARK    9  A    between atoms: CD_12  and  NE_13 
REMARK       I    between atoms: NE_13  and  CZ_14 
REMARK       I    between atoms: CZ_14  and  NH1_15 
REMARK       I    between atoms: CZ_14  and  NH2_16 
REMARK   10  A    between atoms: N_17  and  CA_18 
REMARK   11  A    between atoms: CA_18  and  C_19 
REMARK   12  A    between atoms: CA_18  and  CB_21 
REMARK       I    between atoms: C_19  and  N_24 
REMARK   13  A    between atoms: CB_21  and  OG1_22 
REMARK   14  A    between atoms: CB_21  and  CG2_23 
REMARK   15  A    between atoms: N_24  and  CA_25 
REMARK   16  A    between atoms: CA_25  and  CB_26 
REMARK   17  A    between atoms: CA_25  and  C_31 
REMARK   18  A    between atoms: CB_26  and  CG_27 
REMARK   19  A    between atoms: CG_27  and  CD_28 
REMARK   20  A    between atoms: CD_28  and  CE_29 
REMARK   21  A    between atoms: CE_29  and  NZ_30 
REMARK   22  A    between atoms: NZ_30  and  CM1_33 
REMARK   23  A    between atoms: NZ_30  and  CM2_34 
REMARK   24  A    between atoms: NZ_30  and  CM3_35 
REMARK       I    between atoms: C_31  and  N_36 
REMARK   25  A    between atoms: N_36  and  CA_37 
REMARK   26  A    between atoms: CA_37  and  C_38 
REMARK   27  A    between atoms: CA_37  and  CB_40 
REMARK       I    between atoms: C_38  and  N_45 
REMARK   28  A    between atoms: CB_40  and  CG_41 
REMARK   29  A    between atoms: CG_41  and  CD_42 
REMARK       I    between atoms: CD_42  and  NE2_44 
REMARK   30  A    between atoms: N_45  and  CA_46 
REMARK   31  A    between atoms: CA_46  and  C_47 
REMARK   32  A    between atoms: CA_46  and  CB_49 
REMARK       I    between atoms: C_47  and  N_52 
REMARK   33  A    between atoms: CB_49  and  OG1_50 
REMARK   34  A    between atoms: CB_49  and  CG2_51 
REMARK   35  A    between atoms: N_52  and  CA_53 
REMARK   36  A    between atoms: CA_53  and  C_54 
REMARK   37  A    between atoms: CA_53  and  CB_56 
REMARK       I    between atoms: C_54  and  N_57 
REMARK   38  A    between atoms: N_57  and  CA_58 
REMARK   39  A    between atoms: CA_58  and  C_59 
REMARK   40  A    between atoms: CA_58  and  CB_61 
REMARK   41  A    between atoms: C_59  and  O_136 
REMARK   42  A    between atoms: CB_61  and  CG_62 
REMARK   43  A    between atoms: CG_62  and  CD_63 
REMARK   44  A    between atoms: CD_63  and  NE_64 
REMARK       I    between atoms: NE_64  and  CZ_65 
REMARK       I    between atoms: CZ_65  and  NH1_66 
ROOT
ATOM      1  CA  M3L d   1       0.886  32.663   9.085  0.00  0.00     0.089 C 
ATOM      2  H29 M3L d   1       0.154  32.143   8.449  0.00  0.00     0.087 H 
ENDROOT
BRANCH   1   3
ATOM      3  N   M3L d   1       0.180  33.233  10.218  0.00  0.00    -0.346 N 
ATOM      4  C   THR d   1      -1.081  33.639  10.120  0.00  0.00     0.243 C 
ATOM      5  O   THR d   1      -1.725  33.592   9.076  0.00  0.00    -0.271 OA
ATOM      6  H28 M3L d   1       0.654  33.322  11.094  0.00  0.00     0.163 HD
BRANCH   4   7
ATOM      7  CA  THR d   1      -1.703  34.173  11.397  0.00  0.00     0.113 C 
ATOM      8  H22 THR d   1      -0.967  34.764  11.962  0.00  0.00     0.091 H 
BRANCH   7   9
ATOM      9  N   THR d   1      -2.830  35.026  11.032  0.00  0.00    -0.344 N 
ATOM     10  C   ARG d   1      -3.078  36.157  11.684  0.00  0.00     0.241 C 
ATOM     11  O   ARG d   1      -2.406  36.536  12.636  0.00  0.00    -0.271 OA
ATOM     12  H21 THR d   1      -3.427  34.754  10.277  0.00  0.00     0.163 HD
BRANCH  10  13
ATOM     13  CA  ARG d   1      -4.275  36.977  11.201  0.00  0.00     0.089 C 
ATOM     14  H9  ARG d   1      -4.802  36.438  10.400  0.00  0.00     0.087 H 
BRANCH  13  15
ATOM     15  N   ARG d   1      -5.170  37.162  12.344  0.00  0.00    -0.346 N 
ATOM     16  C   ALA d   1      -6.287  36.453  12.472  0.00  0.00     0.248 C 
ATOM     17  O   ALA d   1      -6.654  35.627  11.639  0.00  0.00    -0.271 OA
ATOM     18  H8  ARG d   1      -4.936  37.837  13.044  0.00  0.00     0.163 HD
BRANCH  16  19
ATOM     19  CA  ALA d   1      -7.125  36.728  13.718  0.00  0.00     0.172 C 
ATOM     20  H4  ALA d   1      -7.333  37.807  13.775  0.00  0.00     0.098 H 
BRANCH  19  21
ATOM     21  N   ALA d   1      -8.416  35.991  13.641  0.00  0.00    -0.067 N 
ATOM     22  H1  ALA d   1      -8.960  36.180  14.468  0.00  0.00     0.275 HD
ATOM     23  H2  ALA d   1      -8.235  35.002  13.577  0.00  0.00     0.275 HD
ATOM     24  H3  ALA d   1      -8.927  36.293  12.826  0.00  0.00     0.275 HD
ENDBRANCH  19  21
BRANCH  19  25
ATOM     25  CB  ALA d   1      -6.358  36.304  14.971  0.00  0.00    -0.042 C 
ATOM     26  H5  ALA d   1      -5.406  36.852  15.021  0.00  0.00     0.030 H 
ATOM     27  H6  ALA d   1      -6.157  35.223  14.930  0.00  0.00     0.030 H 
ATOM     28  H7  ALA d   1      -6.959  36.531  15.864  0.00  0.00     0.030 H 
ENDBRANCH  19  25
ENDBRANCH  16  19
ENDBRANCH  13  15
BRANCH  13  29
ATOM     29  CB  ARG d   1      -3.784  38.328  10.667  0.00  0.00    -0.036 C 
ATOM     30  H10 ARG d   1      -3.094  38.135   9.833  0.00  0.00     0.036 H 
ATOM     31  H11 ARG d   1      -3.245  38.840  11.478  0.00  0.00     0.036 H 
BRANCH  29  32
ATOM     32  CG  ARG d   1      -4.888  39.263  10.164  0.00  0.00    -0.048 C 
ATOM     33  H12 ARG d   1      -5.560  39.507  11.000  0.00  0.00     0.035 H 
ATOM     34  H13 ARG d   1      -5.457  38.753   9.373  0.00  0.00     0.035 H 
BRANCH  32  35
ATOM     35  CD  ARG d   1      -4.300  40.564   9.598  0.00  0.00     0.009 C 
ATOM     36  H14 ARG d   1      -5.127  41.227   9.305  0.00  0.00     0.064 H 
ATOM     37  H15 ARG d   1      -3.693  40.322   8.713  0.00  0.00     0.064 H 
BRANCH  35  38
ATOM     38  NE  ARG d   1      -3.458  41.263  10.569  0.00  0.00    -0.227 N 
ATOM     39  CZ  ARG d   1      -2.139  41.407  10.463  0.00  0.00     0.665 C 
ATOM     40  NH1 ARG d   1      -1.490  40.903   9.424  0.00  0.00    -0.235 N 
ATOM     41  NH2 ARG d   1      -1.462  42.052  11.403  0.00  0.00    -0.235 N 
ATOM     42  H17 ARG d   1      -0.469  41.019   9.349  0.00  0.00     0.174 HD
ATOM     43  H18 ARG d   1      -2.006  40.396   8.691  0.00  0.00     0.174 HD
ATOM     44  H19 ARG d   1      -1.957  42.447  12.215  0.00  0.00     0.174 HD
ATOM     45  H20 ARG d   1      -0.441  42.157  11.321  0.00  0.00     0.174 HD
ATOM     46  H16 ARG d   1      -3.919  41.673  11.394  0.00  0.00     0.177 HD
ENDBRANCH  35  38
ENDBRANCH  32  35
ENDBRANCH  29  32
ENDBRANCH  13  29
ENDBRANCH  10  13
ENDBRANCH   7   9
BRANCH   7  47
ATOM     47  CB  THR d   1      -2.142  32.956  12.240  0.00  0.00     0.060 C 
ATOM     48  H23 THR d   1      -1.251  32.380  12.529  0.00  0.00     0.086 H 
BRANCH  47  49
ATOM     49  OG1 THR d   1      -3.010  32.125  11.461  0.00  0.00    -0.393 OA
ATOM     50  H24 THR d   1      -2.549  31.825  10.687  0.00  0.00     0.210 HD
ENDBRANCH  47  49
BRANCH  47  51
ATOM     51  CG2 THR d   1      -2.868  33.410  13.497  0.00  0.00    -0.050 C 
ATOM     52  H25 THR d   1      -3.172  32.530  14.083  0.00  0.00     0.031 H 
ATOM     53  H26 THR d   1      -3.760  33.989  13.216  0.00  0.00     0.031 H 
ATOM     54  H27 THR d   1      -2.197  34.039  14.101  0.00  0.00     0.031 H 
ENDBRANCH  47  51
ENDBRANCH   7  47
ENDBRANCH   4   7
ENDBRANCH   1   3
BRANCH   1  55
ATOM     55  CB  M3L d   1       1.590  33.724   8.218  0.00  0.00    -0.038 C 
ATOM     56  H30 M3L d   1       0.854  34.501   7.965  0.00  0.00     0.036 H 
ATOM     57  H31 M3L d   1       1.938  33.235   7.296  0.00  0.00     0.036 H 
BRANCH  55  58
ATOM     58  CG  M3L d   1       2.797  34.408   8.880  0.00  0.00    -0.061 C 
ATOM     59  H32 M3L d   1       3.539  33.639   9.139  0.00  0.00     0.033 H 
ATOM     60  H33 M3L d   1       2.457  34.913   9.796  0.00  0.00     0.033 H 
BRANCH  58  61
ATOM     61  CD  M3L d   1       3.464  35.445   7.967  0.00  0.00    -0.042 C 
ATOM     62  H34 M3L d   1       2.690  36.130   7.589  0.00  0.00     0.035 H 
ATOM     63  H35 M3L d   1       3.933  34.919   7.122  0.00  0.00     0.035 H 
BRANCH  61  64
ATOM     64  CE  M3L d   1       4.541  36.272   8.689  0.00  0.00     0.084 C 
ATOM     65  H36 M3L d   1       5.225  35.578   9.200  0.00  0.00     0.076 H 
ATOM     66  H37 M3L d   1       4.045  36.913   9.433  0.00  0.00     0.076 H 
BRANCH  64  67
ATOM     67  NZ  M3L d   1       5.364  37.161   7.763  0.00  0.00    -0.079 N 
BRANCH  67  68
ATOM     68  CM1 M3L d   1       4.525  38.250   7.184  0.00  0.00     0.067 C 
ATOM     69  H38 M3L d   1       5.142  38.875   6.521  0.00  0.00     0.068 H 
ATOM     70  H39 M3L d   1       4.116  38.869   7.996  0.00  0.00     0.068 H 
ATOM     71  H40 M3L d   1       3.699  37.809   6.607  0.00  0.00     0.068 H 
ENDBRANCH  67  68
BRANCH  67  72
ATOM     72  CM2 M3L d   1       5.988  36.522   6.557  0.00  0.00     0.067 C 
ATOM     73  H41 M3L d   1       6.637  35.693   6.876  0.00  0.00     0.068 H 
ATOM     74  H42 M3L d   1       6.587  37.269   6.015  0.00  0.00     0.068 H 
ATOM     75  H43 M3L d   1       5.198  36.136   5.896  0.00  0.00     0.068 H 
ENDBRANCH  67  72
BRANCH  67  76
ATOM     76  CM3 M3L d   1       6.458  37.812   8.543  0.00  0.00     0.067 C 
ATOM     77  H44 M3L d   1       6.035  38.292   9.438  0.00  0.00     0.068 H 
ATOM     78  H45 M3L d   1       6.952  38.571   7.918  0.00  0.00     0.068 H 
ATOM     79  H46 M3L d   1       7.193  37.053   8.848  0.00  0.00     0.068 H 
ENDBRANCH  67  76
ENDBRANCH  64  67
ENDBRANCH  61  64
ENDBRANCH  58  61
ENDBRANCH  55  58
ENDBRANCH   1  55
BRANCH   1  80
ATOM     80  C   M3L d   1       1.885  31.642   9.614  0.00  0.00     0.241 C 
ATOM     81  O   M3L d   1       2.383  31.770  10.736  0.00  0.00    -0.271 OA
ATOM     82  N   GLN d   1       2.149  30.622   8.806  0.00  0.00    -0.346 N 
ATOM     83  H47 GLN d   1       1.686  30.574   7.921  0.00  0.00     0.163 HD
BRANCH  82  84
ATOM     84  CA  GLN d   1       3.094  29.566   9.166  0.00  0.00     0.090 C 
ATOM     85  H48 GLN d   1       3.126  29.448  10.259  0.00  0.00     0.087 H 
BRANCH  84  86
ATOM     86  C   GLN d   1       4.459  29.979   8.645  0.00  0.00     0.241 C 
ATOM     87  O   GLN d   1       4.572  30.532   7.558  0.00  0.00    -0.271 OA
ATOM     88  N   THR d   1       5.500  29.719   9.422  0.00  0.00    -0.344 N 
ATOM     89  H55 THR d   1       5.361  29.280  10.310  0.00  0.00     0.163 HD
BRANCH  88  90
ATOM     90  CA  THR d   1       6.847  30.069   8.990  0.00  0.00     0.113 C 
ATOM     91  H56 THR d   1       6.888  31.141   8.747  0.00  0.00     0.091 H 
BRANCH  90  92
ATOM     92  C   THR d   1       7.166  29.243   7.733  0.00  0.00     0.243 C 
ATOM     93  O   THR d   1       6.845  28.056   7.667  0.00  0.00    -0.271 OA
ATOM     94  N   ALA d   1       7.780  29.881   6.740  0.00  0.00    -0.346 N 
ATOM     95  H62 ALA d   1       7.999  30.850   6.850  0.00  0.00     0.163 HD
BRANCH  94  96
ATOM     96  CA  ALA d   1       8.147  29.205   5.484  0.00  0.00     0.086 C 
ATOM     97  H63 ALA d   1       7.997  28.120   5.590  0.00  0.00     0.086 H 
BRANCH  96  98
ATOM     98  C   ALA d   1       9.623  29.494   5.207  0.00  0.00     0.240 C 
ATOM     99  O   ALA d   1      10.102  30.600   5.461  0.00  0.00    -0.271 OA
ATOM    100  N   ARG d   1      10.340  28.504   4.685  0.00  0.00    -0.345 N 
ATOM    101  H67 ARG d   1       9.897  27.630   4.486  0.00  0.00     0.163 HD
BRANCH 100 102
ATOM    102  CA  ARG d   1      11.768  28.669   4.395  0.00  0.00     0.093 C 
ATOM    103  H68 ARG d   1      12.292  28.967   5.315  0.00  0.00     0.089 H 
BRANCH 102 104
ATOM    104  C   ARG d   1      11.940  29.762   3.339  0.00  0.00     0.163 C 
ATOM    105  O   ARG d   1      10.915  30.217   2.788  0.00  0.00    -0.648 OA
BRANCH 104 106
ATOM    106  O   ARG d   1      13.148  30.216   3.016  0.00  0.00    -0.775 OA
ATOM    107  H80 ARG d   1      13.306  30.063   2.092  0.00  0.00     0.167 HD
ENDBRANCH 104 106
ENDBRANCH 102 104
BRANCH 102 108
ATOM    108  CB  ARG d   1      12.365  27.353   3.883  0.00  0.00    -0.035 C 
ATOM    109  H69 ARG d   1      11.906  26.528   4.447  0.00  0.00     0.036 H 
ATOM    110  H70 ARG d   1      13.448  27.372   4.076  0.00  0.00     0.036 H 
BRANCH 108 111
ATOM    111  CG  ARG d   1      12.154  27.085   2.397  0.00  0.00    -0.047 C 
ATOM    112  H71 ARG d   1      12.582  26.102   2.152  0.00  0.00     0.035 H 
ATOM    113  H72 ARG d   1      12.673  27.865   1.821  0.00  0.00     0.035 H 
BRANCH 111 114
ATOM    114  CD  ARG d   1      10.685  27.087   2.007  0.00  0.00     0.009 C 
ATOM    115  H73 ARG d   1      10.246  28.058   2.278  0.00  0.00     0.064 H 
ATOM    116  H74 ARG d   1      10.169  26.285   2.556  0.00  0.00     0.064 H 
BRANCH 114 117
ATOM    117  NE  ARG d   1      10.505  26.870   0.573  0.00  0.00    -0.227 N 
ATOM    118  CZ  ARG d   1      10.979  27.675  -0.375  0.00  0.00     0.665 C 
ATOM    119  NH1 ARG d   1      11.668  28.761  -0.049  0.00  0.00    -0.235 N 
ATOM    120  NH2 ARG d   1      10.765  27.392  -1.653  0.00  0.00    -0.235 N 
ATOM    121  H76 ARG d   1      12.033  29.380  -0.787  0.00  0.00     0.174 HD
ATOM    122  H77 ARG d   1      11.838  28.985   0.942  0.00  0.00     0.174 HD
ATOM    123  H78 ARG d   1      10.231  26.550  -1.912  0.00  0.00     0.174 HD
ATOM    124  H79 ARG d   1      11.133  28.014  -2.387  0.00  0.00     0.174 HD
ATOM    125  H75 ARG d   1       9.976  26.038   0.276  0.00  0.00     0.177 HD
ENDBRANCH 114 117
ENDBRANCH 111 114
ENDBRANCH 108 111
ENDBRANCH 102 108
ENDBRANCH 100 102
ENDBRANCH  96  98
BRANCH  96 126
ATOM    126  CB  ALA d   1       7.282  29.722   4.336  0.00  0.00    -0.049 C 
ATOM    127  H64 ALA d   1       7.565  29.210   3.404  0.00  0.00     0.030 H 
ATOM    128  H65 ALA d   1       7.435  30.805   4.221  0.00  0.00     0.030 H 
ATOM    129  H66 ALA d   1       6.223  29.523   4.556  0.00  0.00     0.030 H 
ENDBRANCH  96 126
ENDBRANCH  94  96
ENDBRANCH  90  92
BRANCH  90 130
ATOM    130  CB  THR d   1       7.872  29.766  10.100  0.00  0.00     0.060 C 
ATOM    131  H57 THR d   1       7.769  28.715  10.408  0.00  0.00     0.086 H 
BRANCH 130 132
ATOM    132  OG1 THR d   1       7.615  30.618  11.223  0.00  0.00    -0.393 OA
ATOM    133  H58 THR d   1       7.694  31.526  10.955  0.00  0.00     0.210 HD
ENDBRANCH 130 132
BRANCH 130 134
ATOM    134  CG2 THR d   1       9.288  30.002   9.607  0.00  0.00    -0.050 C 
ATOM    135  H59 THR d   1      10.000  29.779  10.416  0.00  0.00     0.031 H 
ATOM    136  H60 THR d   1       9.399  31.052   9.300  0.00  0.00     0.031 H 
ATOM    137  H61 THR d   1       9.492  29.345   8.748  0.00  0.00     0.031 H 
ENDBRANCH 130 134
ENDBRANCH  90 130
ENDBRANCH  88  90
ENDBRANCH  84  86
BRANCH  84 138
ATOM    138  CB  GLN d   1       2.683  28.241   8.520  0.00  0.00    -0.030 C 
ATOM    139  H49 GLN d   1       3.533  27.547   8.591  0.00  0.00     0.037 H 
ATOM    140  H50 GLN d   1       2.453  28.433   7.462  0.00  0.00     0.037 H 
BRANCH 138 141
ATOM    141  CG  GLN d   1       1.476  27.575   9.152  0.00  0.00     0.011 C 
ATOM    142  H51 GLN d   1       1.129  26.770   8.488  0.00  0.00     0.047 H 
ATOM    143  H52 GLN d   1       0.679  28.325   9.266  0.00  0.00     0.047 H 
BRANCH 141 144
ATOM    144  CD  GLN d   1       1.785  26.982  10.515  0.00  0.00     0.215 C 
ATOM    145  OE1 GLN d   1       2.176  27.690  11.441  0.00  0.00    -0.274 OA
ATOM    146  NE2 GLN d   1       1.611  25.671  10.641  0.00  0.00    -0.370 N 
ATOM    147  H53 GLN d   1       1.798  25.224  11.515  0.00  0.00     0.159 HD
ATOM    148  H54 GLN d   1       1.293  25.132   9.861  0.00  0.00     0.159 HD
ENDBRANCH 141 144
ENDBRANCH 138 141
ENDBRANCH  84 138
ENDBRANCH  82  84
ENDBRANCH   1  80
TORSDOF 44
