REMARK  30 active torsions:
REMARK  status: ('A' for Active; 'I' for Inactive)
REMARK    1  A    between atoms: C42_2  and  O44_3 
REMARK       I    between atoms: C42_2  and  N41_8 
REMARK    2  A    between atoms: O44_3  and  C46_4 
REMARK    3  A    between atoms: C46_4  and  C49_5 
REMARK    4  A    between atoms: C46_4  and  C48_6 
REMARK    5  A    between atoms: C46_4  and  C47_7 
REMARK    6  A    between atoms: N41_8  and  C39_9 
REMARK    7  A    between atoms: C39_9  and  C40_10 
REMARK    8  A    between atoms: C39_9  and  C37_12 
REMARK    9  A    between atoms: C40_10  and  O45_11 
REMARK       I    between atoms: C37_12  and  N36_14 
REMARK   10  A    between atoms: N36_14  and  C32_15 
REMARK   11  A    between atoms: C32_15  and  C33_16 
REMARK   12  A    between atoms: C32_15  and  C30_19 
REMARK   13  A    between atoms: C33_16  and  C35_17 
REMARK   14  A    between atoms: C33_16  and  C34_18 
REMARK   15  A    between atoms: C30_19  and  C29_21 
REMARK   16  A    between atoms: C29_21  and  C22_22 
REMARK   17  A    between atoms: C22_22  and  C23_23 
REMARK   18  A    between atoms: C22_22  and  C21_28 
REMARK   19  A    between atoms: C23_23  and  C24_24 
REMARK   20  A    between atoms: C25_25  and  C26_26 
REMARK   21  A    between atoms: C25_25  and  C27_27 
REMARK       I    between atoms: C21_28  and  N20_30 
REMARK   22  A    between atoms: N20_30  and  C12_31 
REMARK   23  A    between atoms: C12_31  and  C5_32 
REMARK   24  A    between atoms: C12_31  and  C19_39 
REMARK   25  A    between atoms: C5_32  and  C6_33 
REMARK   26  A    between atoms: C6_33  and  C7_34 
REMARK   27  A    between atoms: C7_34  and  O11_35 
REMARK   28  A    between atoms: O11_35  and  C9_36 
REMARK   29  A    between atoms: C9_36  and  C10_37 
REMARK   30  A    between atoms: C19_39  and  C13_40 
ROOT
ATOM      1  C22 CYV d   1      17.337 -41.568  21.319  0.00  0.00     0.033 C 
ATOM      2  H26 CYV d   1      16.579 -41.496  20.525  0.00  0.00     0.055 H 
ENDROOT
BRANCH   1   3
ATOM      3  C29 CYV d   1      18.148 -40.264  21.345  0.00  0.00     0.004 C 
ATOM      4  H24 CYV d   1      19.006 -40.403  22.019  0.00  0.00     0.045 H 
ATOM      5  H25 CYV d   1      18.511 -40.061  20.327  0.00  0.00     0.045 H 
BRANCH   3   6
ATOM      6  C30 CYV d   1      17.354 -39.057  21.821  0.00  0.00     0.150 C 
ATOM      7  O31 CYV d   1      16.132 -39.063  21.820  0.00  0.00    -0.296 OA
BRANCH   6   8
ATOM      8  C32 CYV d   1      18.096 -37.828  22.282  0.00  0.00     0.072 C 
ATOM      9  H16 CYV d   1      19.174 -38.047  22.258  0.00  0.00     0.085 H 
BRANCH   8  10
ATOM     10  N36 CYV d   1      17.791 -36.715  21.388  0.00  0.00    -0.347 N 
ATOM     11  C37 CYV d   1      18.678 -36.164  20.556  0.00  0.00     0.243 C 
ATOM     12  O38 CYV d   1      19.847 -36.531  20.456  0.00  0.00    -0.271 OA
ATOM     13  H15 CYV d   1      16.863 -36.343  21.399  0.00  0.00     0.163 HD
BRANCH  11  14
ATOM     14  C39 CYV d   1      18.137 -35.025  19.728  0.00  0.00     0.111 C 
ATOM     15  H11 CYV d   1      17.198 -34.676  20.182  0.00  0.00     0.091 H 
BRANCH  14  16
ATOM     16  N41 CYV d   1      19.077 -33.910  19.638  0.00  0.00    -0.322 N 
ATOM     17  C42 CYV d   1      19.221 -32.988  20.598  0.00  0.00     0.362 C 
ATOM     18  O43 CYV d   1      18.555 -32.990  21.627  0.00  0.00    -0.238 OA
ATOM     19  H10 CYV d   1      19.642 -33.831  18.817  0.00  0.00     0.165 HD
BRANCH  17  20
ATOM     20  O44 CYV d   1      20.204 -31.916  20.399  0.00  0.00    -0.294 OA
BRANCH  20  21
ATOM     21  C46 CYV d   1      21.538 -31.902  20.958  0.00  0.00     0.061 C 
BRANCH  21  22
ATOM     22  C49 CYV d   1      22.293 -30.717  20.357  0.00  0.00    -0.048 C 
ATOM     23  H1  CYV d   1      23.313 -30.685  20.768  0.00  0.00     0.031 H 
ATOM     24  H2  CYV d   1      21.768 -29.783  20.607  0.00  0.00     0.031 H 
ATOM     25  H3  CYV d   1      22.342 -30.829  19.264  0.00  0.00     0.031 H 
ENDBRANCH  21  22
BRANCH  21  26
ATOM     26  C48 CYV d   1      21.472 -31.716  22.477  0.00  0.00    -0.048 C 
ATOM     27  H4  CYV d   1      22.491 -31.707  22.890  0.00  0.00     0.031 H 
ATOM     28  H5  CYV d   1      20.903 -32.545  22.924  0.00  0.00     0.031 H 
ATOM     29  H6  CYV d   1      20.974 -30.763  22.708  0.00  0.00     0.031 H 
ENDBRANCH  21  26
BRANCH  21  30
ATOM     30  C47 CYV d   1      22.298 -33.185  20.605  0.00  0.00    -0.048 C 
ATOM     31  H7  CYV d   1      23.306 -33.146  21.043  0.00  0.00     0.031 H 
ATOM     32  H8  CYV d   1      22.376 -33.276  19.512  0.00  0.00     0.031 H 
ATOM     33  H9  CYV d   1      21.757 -34.054  21.008  0.00  0.00     0.031 H 
ENDBRANCH  21  30
ENDBRANCH  20  21
ENDBRANCH  17  20
ENDBRANCH  14  16
BRANCH  14  34
ATOM     34  C40 CYV d   1      17.880 -35.486  18.291  0.00  0.00     0.044 C 
ATOM     35  H12 CYV d   1      17.517 -34.631  17.703  0.00  0.00     0.077 H 
ATOM     36  H13 CYV d   1      17.114 -36.275  18.302  0.00  0.00     0.077 H 
BRANCH  34  37
ATOM     37  O45 CYV d   1      19.071 -36.003  17.673  0.00  0.00    -0.398 OA
ATOM     38  H14 CYV d   1      18.872 -36.278  16.786  0.00  0.00     0.209 HD
ENDBRANCH  34  37
ENDBRANCH  14  34
ENDBRANCH  11  14
ENDBRANCH   8  10
BRANCH   8  39
ATOM     39  C33 CYV d   1      17.714 -37.340  23.693  0.00  0.00    -0.035 C 
ATOM     40  H17 CYV d   1      16.723 -36.870  23.615  0.00  0.00     0.042 H 
BRANCH  39  41
ATOM     41  C35 CYV d   1      17.611 -38.460  24.725  0.00  0.00    -0.071 C 
ATOM     42  H18 CYV d   1      17.336 -38.035  25.701  0.00  0.00     0.028 H 
ATOM     43  H19 CYV d   1      18.581 -38.972  24.808  0.00  0.00     0.028 H 
ATOM     44  H20 CYV d   1      16.842 -39.180  24.409  0.00  0.00     0.028 H 
ENDBRANCH  39  41
BRANCH  39  45
ATOM     45  C34 CYV d   1      18.699 -36.286  24.200  0.00  0.00    -0.071 C 
ATOM     46  H21 CYV d   1      18.779 -35.474  23.462  0.00  0.00     0.028 H 
ATOM     47  H22 CYV d   1      19.687 -36.748  24.347  0.00  0.00     0.028 H 
ATOM     48  H23 CYV d   1      18.339 -35.878  25.156  0.00  0.00     0.028 H 
ENDBRANCH  39  45
ENDBRANCH   8  39
ENDBRANCH   6   8
ENDBRANCH   3   6
ENDBRANCH   1   3
BRANCH   1  49
ATOM     49  C23 CYV d   1      18.242 -42.765  21.027  0.00  0.00    -0.038 C 
ATOM     50  H27 CYV d   1      17.611 -43.655  20.884  0.00  0.00     0.040 H 
ATOM     51  H28 CYV d   1      18.906 -42.921  21.890  0.00  0.00     0.040 H 
BRANCH  49  52
ATOM     52  C24 CYV d   1      19.097 -42.574  19.788  0.00  0.00    -0.101 C 
ATOM     53  C25 CYV d   1      20.209 -43.307  19.546  0.00  0.00    -0.091 C 
ATOM     54  H29 CYV d   1      18.804 -41.816  19.063  0.00  0.00     0.077 H 
BRANCH  53  55
ATOM     55  C26 CYV d   1      21.006 -43.059  18.301  0.00  0.00    -0.055 C 
ATOM     56  H30 CYV d   1      21.867 -43.743  18.275  0.00  0.00     0.033 H 
ATOM     57  H31 CYV d   1      21.364 -42.019  18.296  0.00  0.00     0.033 H 
ATOM     58  H32 CYV d   1      20.372 -43.233  17.419  0.00  0.00     0.033 H 
ENDBRANCH  53  55
BRANCH  53  59
ATOM     59  C27 CYV d   1      20.699 -44.381  20.485  0.00  0.00    -0.055 C 
ATOM     60  H33 CYV d   1      20.021 -44.451  21.348  0.00  0.00     0.033 H 
ATOM     61  H34 CYV d   1      21.711 -44.129  20.834  0.00  0.00     0.033 H 
ATOM     62  H35 CYV d   1      20.722 -45.346  19.958  0.00  0.00     0.033 H 
ENDBRANCH  53  59
ENDBRANCH  49  52
ENDBRANCH   1  49
BRANCH   1  63
ATOM     63  C21 CYV d   1      16.640 -41.769  22.643  0.00  0.00     0.222 C 
ATOM     64  O28 CYV d   1      17.221 -41.507  23.691  0.00  0.00    -0.273 OA
ATOM     65  N20 CYV d   1      15.383 -42.230  22.631  0.00  0.00    -0.356 N 
ATOM     66  H36 CYV d   1      14.933 -42.443  21.764  0.00  0.00     0.162 HD
BRANCH  65  67
ATOM     67  C12 CYV d   1      14.670 -42.420  23.900  0.00  0.00     0.013 C 
ATOM     68  H37 CYV d   1      15.277 -42.042  24.736  0.00  0.00     0.072 H 
BRANCH  67  69
ATOM     69  C5  CYV d   1      14.415 -43.907  24.128  0.00  0.00    -0.038 C 
ATOM     70  H38 CYV d   1      13.750 -44.264  23.328  0.00  0.00     0.036 H 
ATOM     71  H39 CYV d   1      13.913 -44.021  25.100  0.00  0.00     0.036 H 
BRANCH  69  72
ATOM     72  C6  CYV d   1      15.664 -44.791  24.135  0.00  0.00     0.018 C 
ATOM     73  H40 CYV d   1      16.466 -44.285  24.691  0.00  0.00     0.048 H 
ATOM     74  H41 CYV d   1      15.991 -44.969  23.100  0.00  0.00     0.048 H 
BRANCH  72  75
ATOM     75  C7  CYV d   1      15.352 -46.118  24.799  0.00  0.00     0.258 C 
ATOM     76  O8  CYV d   1      14.197 -46.452  25.039  0.00  0.00    -0.265 OA
BRANCH  75  77
ATOM     77  O11 CYV d   1      16.434 -47.028  25.174  0.00  0.00    -0.322 OA
BRANCH  77  78
ATOM     78  C9  CYV d   1      17.190 -46.837  26.378  0.00  0.00     0.025 C 
ATOM     79  H42 CYV d   1      17.642 -45.835  26.360  0.00  0.00     0.074 H 
ATOM     80  H43 CYV d   1      17.984 -47.597  26.426  0.00  0.00     0.074 H 
BRANCH  78  81
ATOM     81  C10 CYV d   1      16.314 -46.961  27.612  0.00  0.00    -0.056 C 
ATOM     82  H44 CYV d   1      16.926 -46.809  28.513  0.00  0.00     0.030 H 
ATOM     83  H45 CYV d   1      15.861 -47.963  27.641  0.00  0.00     0.030 H 
ATOM     84  H46 CYV d   1      15.520 -46.201  27.576  0.00  0.00     0.030 H 
ENDBRANCH  78  81
ENDBRANCH  77  78
ENDBRANCH  75  77
ENDBRANCH  72  75
ENDBRANCH  69  72
ENDBRANCH  67  69
BRANCH  67  85
ATOM     85  C19 CYV d   1      13.409 -41.574  23.774  0.00  0.00    -0.035 C 
ATOM     86  H47 CYV d   1      12.553 -42.227  24.000  0.00  0.00     0.037 H 
ATOM     87  H48 CYV d   1      13.346 -41.235  22.730  0.00  0.00     0.037 H 
BRANCH  85  88
ATOM     88  C13 CYV d   1      13.275 -40.277  24.704  0.00  0.00     0.027 C 
ATOM     89  C14 CYV d   1      13.260 -40.310  26.234  0.00  0.00    -0.039 C 
ATOM     90  C15 CYV d   1      12.778 -38.866  26.604  0.00  0.00    -0.004 C 
ATOM     91  H50 CYV d   1      14.264 -40.508  26.637  0.00  0.00     0.036 H 
ATOM     92  H51 CYV d   1      12.558 -41.070  26.608  0.00  0.00     0.036 H 
ATOM     93  N16 CYV d   1      11.883 -38.538  25.515  0.00  0.00    -0.361 N 
ATOM     94  H52 CYV d   1      13.624 -38.164  26.646  0.00  0.00     0.064 H 
ATOM     95  H53 CYV d   1      12.248 -38.860  27.568  0.00  0.00     0.064 H 
ATOM     96  C17 CYV d   1      12.049 -39.383  24.570  0.00  0.00     0.221 C 
ATOM     97  H54 CYV d   1      11.239 -37.773  25.503  0.00  0.00     0.162 HD
ATOM     98  O18 CYV d   1      11.309 -39.452  23.611  0.00  0.00    -0.273 OA
ATOM     99  H49 CYV d   1      14.155 -39.686  24.410  0.00  0.00     0.054 H 
ENDBRANCH  85  88
ENDBRANCH  67  85
ENDBRANCH  65  67
ENDBRANCH   1  63
TORSDOF 30
