REMARK  5 active torsions:
REMARK  status: ('A' for Active; 'I' for Inactive)
REMARK    1  A    between atoms: C18_1  and  N2_2 
REMARK    2  A    between atoms: N2_2  and  C17_3 
REMARK    3  A    between atoms: C17_3  and  C16_4 
REMARK    4  A    between atoms: C16_4  and  C15_5 
REMARK    5  A    between atoms: C15_5  and  N1_6 
ROOT
ATOM      1  N1  DSM d   1      16.270 -10.633 -23.010  0.00  0.00    -0.346 N 
ATOM      2  C14 DSM d   1      15.878  -9.530 -22.119  0.00  0.00     0.041 A 
ATOM      3  C1  DSM d   1      15.508  -8.276 -22.701  0.00  0.00    -0.057 A 
ATOM      4  C2  DSM d   1      15.121  -7.141 -21.936  0.00  0.00    -0.081 A 
ATOM      5  C3  DSM d   1      15.110  -7.142 -20.539  0.00  0.00    -0.082 A 
ATOM      6  C4  DSM d   1      15.503  -8.453 -19.913  0.00  0.00    -0.075 A 
ATOM      7  C13 DSM d   1      15.885  -9.554 -20.661  0.00  0.00    -0.031 A 
ATOM      8  C5  DSM d   1      16.205 -10.703 -19.749  0.00  0.00    -0.035 C 
ATOM      9  C6  DSM d   1      16.599 -12.014 -20.410  0.00  0.00    -0.035 C 
ATOM     10  C12 DSM d   1      17.762 -11.862 -21.385  0.00  0.00    -0.031 A 
ATOM     11  C11 DSM d   1      17.526 -11.194 -22.604  0.00  0.00     0.041 A 
ATOM     12  C7  DSM d   1      19.015 -12.373 -21.074  0.00  0.00    -0.075 A 
ATOM     13  C8  DSM d   1      20.200 -12.244 -22.035  0.00  0.00    -0.082 A 
ATOM     14  C9  DSM d   1      19.946 -11.577 -23.243  0.00  0.00    -0.081 A 
ATOM     15  C10 DSM d   1      18.637 -11.095 -23.460  0.00  0.00    -0.057 A 
ATOM     16  H12 DSM d   1      15.524  -8.187 -23.781  0.00  0.00     0.086 H 
ATOM     17  H13 DSM d   1      14.823  -6.239 -22.458  0.00  0.00     0.083 H 
ATOM     18  H14 DSM d   1      14.841  -6.270 -19.954  0.00  0.00     0.083 H 
ATOM     19  H15 DSM d   1      15.486  -8.539 -18.832  0.00  0.00     0.084 H 
ATOM     20  H16 DSM d   1      15.315 -10.896 -19.132  0.00  0.00     0.040 H 
ATOM     21  H17 DSM d   1      17.039 -10.393 -19.103  0.00  0.00     0.040 H 
ATOM     22  H18 DSM d   1      15.730 -12.405 -20.959  0.00  0.00     0.040 H 
ATOM     23  H19 DSM d   1      16.890 -12.729 -19.626  0.00  0.00     0.040 H 
ATOM     24  H20 DSM d   1      19.158 -12.877 -20.125  0.00  0.00     0.084 H 
ATOM     25  H21 DSM d   1      21.178 -12.645 -21.796  0.00  0.00     0.083 H 
ATOM     26  H22 DSM d   1      20.726 -11.437 -23.982  0.00  0.00     0.083 H 
ATOM     27  H23 DSM d   1      18.468 -10.586 -24.402  0.00  0.00     0.086 H 
ENDROOT
BRANCH   1  28
ATOM     28  C15 DSM d   1      15.455 -11.086 -24.195  0.00  0.00     0.002 C 
ATOM     29  H10 DSM d   1      14.470 -11.385 -23.808  0.00  0.00     0.065 H 
ATOM     30  H11 DSM d   1      15.340 -10.213 -24.854  0.00  0.00     0.065 H 
BRANCH  28  31
ATOM     31  C16 DSM d   1      15.954 -12.234 -25.066  0.00  0.00    -0.027 C 
ATOM     32  H8  DSM d   1      15.465 -12.090 -26.041  0.00  0.00     0.037 H 
ATOM     33  H9  DSM d   1      17.036 -12.068 -25.171  0.00  0.00     0.037 H 
BRANCH  31  34
ATOM     34  C17 DSM d   1      15.799 -13.781 -24.746  0.00  0.00     0.083 C 
ATOM     35  H6  DSM d   1      16.312 -14.027 -23.805  0.00  0.00     0.075 H 
ATOM     36  H7  DSM d   1      14.735 -14.047 -24.664  0.00  0.00     0.075 H 
BRANCH  34  37
ATOM     37  N2  DSM d   1      16.443 -14.535 -25.912  0.00  0.00    -0.079 N 
ATOM     38  H4  DSM d   1      15.733 -15.201 -26.174  0.00  0.00     0.276 HD
ATOM     39  H5  DSM d   1      16.520 -13.829 -26.627  0.00  0.00     0.276 HD
BRANCH  37  40
ATOM     40  C18 DSM d   1      17.739 -15.329 -26.067  0.00  0.00     0.065 C 
ATOM     41  H1  DSM d   1      17.814 -15.711 -27.096  0.00  0.00     0.067 H 
ATOM     42  H2  DSM d   1      17.739 -16.173 -25.361  0.00  0.00     0.067 H 
ATOM     43  H3  DSM d   1      18.598 -14.675 -25.856  0.00  0.00     0.067 H 
ENDBRANCH  37  40
ENDBRANCH  34  37
ENDBRANCH  31  34
ENDBRANCH  28  31
ENDBRANCH   1  28
TORSDOF 5
