REMARK  20 active torsions:
REMARK  status: ('A' for Active; 'I' for Inactive)
REMARK    1  A    between atoms: C2_2  and  C33_40 
REMARK    2  A    between atoms: C4_4  and  C14_16 
REMARK    3  A    between atoms: C6_6  and  C7_7 
REMARK       I    between atoms: C7_7  and  N1_8 
REMARK    4  A    between atoms: N1_8  and  C8_10 
REMARK    5  A    between atoms: N1_8  and  C11_13 
REMARK    6  A    between atoms: C8_10  and  C9_11 
REMARK    7  A    between atoms: C9_11  and  C10_12 
REMARK    8  A    between atoms: C11_13  and  C12_14 
REMARK    9  A    between atoms: C12_14  and  C13_15 
REMARK       I    between atoms: C14_16  and  N2_17 
REMARK   10  A    between atoms: N2_17  and  C15_19 
REMARK   11  A    between atoms: C15_19  and  C16_20 
REMARK   12  A    between atoms: C15_19  and  C17_21 
REMARK   13  A    between atoms: C16_20  and  O3_22 
REMARK   14  A    between atoms: C16_20  and  C18_23 
REMARK   15  A    between atoms: C17_21  and  C21_27 
REMARK   16  A    between atoms: C18_23  and  N3_24 
REMARK   17  A    between atoms: N3_24  and  C19_25 
REMARK   18  A    between atoms: C19_25  and  C20_26 
REMARK   19  A    between atoms: C30_36  and  O4_38 
REMARK   20  A    between atoms: O4_38  and  C32_39 
ROOT
ATOM      1  C15 CS5 d   1      22.670  10.754  23.140  0.00  0.00     0.042 C 
ATOM      2  H19 CS5 d   1      21.837  11.397  22.820  0.00  0.00     0.077 H 
ENDROOT
BRANCH   1   3
ATOM      3  N2  CS5 d   1      23.810  11.630  23.460  0.00  0.00    -0.349 N 
ATOM      4  C14 CS5 d   1      23.522  12.947  23.618  0.00  0.00     0.252 C 
ATOM      5  O2  CS5 d   1      22.379  13.376  23.509  0.00  0.00    -0.268 OA
ATOM      6  H18 CS5 d   1      24.740  11.276  23.555  0.00  0.00     0.163 HD
BRANCH   4   7
ATOM      7  C4  CS5 d   1      24.671  13.802  23.925  0.00  0.00     0.033 A 
ATOM      8  C3  CS5 d   1      24.484  15.035  24.632  0.00  0.00    -0.062 A 
ATOM      9  C2  CS5 d   1      25.611  15.860  24.920  0.00  0.00    -0.060 A 
ATOM     10  H2  CS5 d   1      23.492  15.338  24.946  0.00  0.00     0.085 H 
ATOM     11  C1  CS5 d   1      26.915  15.462  24.497  0.00  0.00    -0.062 A 
ATOM     12  C6  CS5 d   1      27.111  14.237  23.787  0.00  0.00     0.033 A 
ATOM     13  H1  CS5 d   1      27.766  16.096  24.717  0.00  0.00     0.085 H 
ATOM     14  C5  CS5 d   1      25.979  13.407  23.503  0.00  0.00    -0.052 A 
ATOM     15  H3  CS5 d   1      26.114  12.475  22.966  0.00  0.00     0.086 H 
BRANCH   9  16
ATOM     16  C33 CS5 d   1      25.432  17.128  25.649  0.00  0.00    -0.051 C 
ATOM     17  H40 CS5 d   1      26.408  17.619  25.775  0.00  0.00     0.033 H 
ATOM     18  H41 CS5 d   1      24.994  16.924  26.637  0.00  0.00     0.033 H 
ATOM     19  H42 CS5 d   1      24.761  17.787  25.079  0.00  0.00     0.033 H 
ENDBRANCH   9  16
BRANCH  12  20
ATOM     20  C7  CS5 d   1      28.474  13.830  23.363  0.00  0.00     0.253 C 
ATOM     21  N1  CS5 d   1      28.708  13.675  22.017  0.00  0.00    -0.348 N 
ATOM     22  O1  CS5 d   1      29.372  13.625  24.182  0.00  0.00    -0.267 OA
BRANCH  21  23
ATOM     23  C8  CS5 d   1      27.718  13.902  20.973  0.00  0.00    -0.002 C 
ATOM     24  H4  CS5 d   1      26.809  14.339  21.413  0.00  0.00     0.064 H 
ATOM     25  H5  CS5 d   1      27.468  12.948  20.486  0.00  0.00     0.064 H 
BRANCH  23  26
ATOM     26  C9  CS5 d   1      28.301  14.859  19.951  0.00  0.00    -0.053 C 
ATOM     27  H6  CS5 d   1      27.541  15.073  19.185  0.00  0.00     0.034 H 
ATOM     28  H7  CS5 d   1      29.176  14.390  19.478  0.00  0.00     0.034 H 
BRANCH  26  29
ATOM     29  C10 CS5 d   1      28.732  16.172  20.607  0.00  0.00    -0.075 C 
ATOM     30  H8  CS5 d   1      29.150  16.844  19.843  0.00  0.00     0.027 H 
ATOM     31  H9  CS5 d   1      29.496  15.967  21.372  0.00  0.00     0.027 H 
ATOM     32  H10 CS5 d   1      27.860  16.650  21.078  0.00  0.00     0.027 H 
ENDBRANCH  26  29
ENDBRANCH  23  26
ENDBRANCH  21  23
BRANCH  21  33
ATOM     33  C11 CS5 d   1      30.050  13.270  21.619  0.00  0.00    -0.002 C 
ATOM     34  H11 CS5 d   1      30.738  13.448  22.459  0.00  0.00     0.064 H 
ATOM     35  H12 CS5 d   1      30.362  13.875  20.755  0.00  0.00     0.064 H 
BRANCH  33  36
ATOM     36  C12 CS5 d   1      30.113  11.790  21.234  0.00  0.00    -0.053 C 
ATOM     37  H13 CS5 d   1      31.134  11.426  21.421  0.00  0.00     0.034 H 
ATOM     38  H14 CS5 d   1      29.882  11.700  20.162  0.00  0.00     0.034 H 
BRANCH  36  39
ATOM     39  C13 CS5 d   1      29.140  10.914  22.011  0.00  0.00    -0.075 C 
ATOM     40  H15 CS5 d   1      29.243   9.870  21.681  0.00  0.00     0.027 H 
ATOM     41  H16 CS5 d   1      28.111  11.257  21.827  0.00  0.00     0.027 H 
ATOM     42  H17 CS5 d   1      29.363  10.983  23.086  0.00  0.00     0.027 H 
ENDBRANCH  36  39
ENDBRANCH  33  36
ENDBRANCH  21  33
ENDBRANCH  12  20
ENDBRANCH   4   7
ENDBRANCH   1   3
BRANCH   1  43
ATOM     43  C16 CS5 d   1      22.184   9.944  24.366  0.00  0.00     0.078 C 
ATOM     44  H20 CS5 d   1      23.035   9.412  24.815  0.00  0.00     0.088 H 
BRANCH  43  45
ATOM     45  O3  CS5 d   1      21.207   9.001  23.910  0.00  0.00    -0.392 OA
ATOM     46  H23 CS5 d   1      21.602   8.423  23.268  0.00  0.00     0.210 HD
ENDBRANCH  43  45
BRANCH  43  47
ATOM     47  C18 CS5 d   1      21.544  10.871  25.429  0.00  0.00     0.107 C 
ATOM     48  H24 CS5 d   1      20.825  11.546  24.942  0.00  0.00     0.079 H 
ATOM     49  H25 CS5 d   1      22.330  11.464  25.919  0.00  0.00     0.079 H 
BRANCH  47  50
ATOM     50  N3  CS5 d   1      20.842  10.049  26.442  0.00  0.00    -0.069 N 
ATOM     51  H26 CS5 d   1      21.528   9.639  27.057  0.00  0.00     0.277 HD
ATOM     52  H27 CS5 d   1      20.335   9.318  25.969  0.00  0.00     0.277 HD
BRANCH  50  53
ATOM     53  C19 CS5 d   1      19.888  10.839  27.255  0.00  0.00     0.105 C 
ATOM     54  H28 CS5 d   1      20.437  11.661  27.738  0.00  0.00     0.083 H 
ATOM     55  H29 CS5 d   1      19.457  10.183  28.026  0.00  0.00     0.083 H 
BRANCH  53  56
ATOM     56  C20 CS5 d   1      18.754  11.431  26.435  0.00  0.00    -0.030 A 
ATOM     57  C27 CS5 d   1      18.490  12.834  26.494  0.00  0.00    -0.075 A 
ATOM     58  C28 CS5 d   1      17.427  13.395  25.725  0.00  0.00    -0.080 A 
ATOM     59  H33 CS5 d   1      19.098  13.473  27.124  0.00  0.00     0.084 H 
ATOM     60  C29 CS5 d   1      16.624  12.555  24.897  0.00  0.00    -0.051 A 
ATOM     61  H34 CS5 d   1      17.229  14.460  25.770  0.00  0.00     0.083 H 
ATOM     62  C30 CS5 d   1      16.883  11.153  24.836  0.00  0.00     0.068 A 
ATOM     63  H35 CS5 d   1      15.816  12.982  24.314  0.00  0.00     0.087 H 
ATOM     64  C31 CS5 d   1      17.951  10.592  25.608  0.00  0.00    -0.043 A 
ATOM     65  H36 CS5 d   1      18.149   9.527  25.563  0.00  0.00     0.088 H 
BRANCH  62  66
ATOM     66  O4  CS5 d   1      16.090  10.356  24.023  0.00  0.00    -0.356 OA
BRANCH  66  67
ATOM     67  C32 CS5 d   1      16.283   8.968  24.275  0.00  0.00     0.010 C 
ATOM     68  H37 CS5 d   1      15.635   8.381  23.608  0.00  0.00     0.066 H 
ATOM     69  H38 CS5 d   1      16.029   8.747  25.322  0.00  0.00     0.066 H 
ATOM     70  H39 CS5 d   1      17.335   8.704  24.090  0.00  0.00     0.066 H 
ENDBRANCH  66  67
ENDBRANCH  62  66
ENDBRANCH  53  56
ENDBRANCH  50  53
ENDBRANCH  47  50
ENDBRANCH  43  47
ENDBRANCH   1  43
BRANCH   1  71
ATOM     71  C17 CS5 d   1      23.025   9.832  21.970  0.00  0.00    -0.020 C 
ATOM     72  H21 CS5 d   1      22.107   9.374  21.573  0.00  0.00     0.043 H 
ATOM     73  H22 CS5 d   1      23.707   9.043  22.319  0.00  0.00     0.043 H 
BRANCH  71  74
ATOM     74  C21 CS5 d   1      23.697  10.632  20.884  0.00  0.00    -0.050 A 
ATOM     75  C22 CS5 d   1      25.043  10.352  20.526  0.00  0.00    -0.039 A 
ATOM     76  C23 CS5 d   1      25.675  11.111  19.498  0.00  0.00     0.119 A 
ATOM     77  H30 CS5 d   1      25.588   9.564  21.033  0.00  0.00     0.089 H 
ATOM     78  C24 CS5 d   1      24.964  12.145  18.831  0.00  0.00    -0.009 A 
ATOM     79  F2  CS5 d   1      26.941  10.851  19.159  0.00  0.00    -0.206 F 
ATOM     80  C25 CS5 d   1      23.618  12.424  19.191  0.00  0.00     0.119 A 
ATOM     81  H31 CS5 d   1      25.447  12.720  18.049  0.00  0.00     0.092 H 
ATOM     82  C26 CS5 d   1      22.983  11.668  20.217  0.00  0.00    -0.039 A 
ATOM     83  F1  CS5 d   1      22.957  13.398  18.560  0.00  0.00    -0.206 F 
ATOM     84  H32 CS5 d   1      21.956  11.881  20.490  0.00  0.00     0.089 H 
ENDBRANCH  71  74
ENDBRANCH   1  71
TORSDOF 20
