REMARK  11 active torsions:
REMARK  status: ('A' for Active; 'I' for Inactive)
REMARK    1  A    between atoms: C2_2  and  NA2_3 
REMARK    2  A    between atoms: C9_13  and  C6_9 
REMARK    3  A    between atoms: N10_14  and  C9_13 
REMARK    4  A    between atoms: N10_14  and  CM_15 
REMARK    5  A    between atoms: C14_19  and  N10_14 
REMARK    6  A    between atoms: C11_16  and  C_22 
REMARK    7  A    between atoms: N_24  and  CA_25 
REMARK    8  A    between atoms: CA_25  and  CT_26 
REMARK    9  A    between atoms: CA_25  and  CB_29 
REMARK   10  A    between atoms: CB_29  and  CG_30 
REMARK   11  A    between atoms: CG_30  and  CD_31 
ROOT
ATOM      1  C11 MTX d   1      -1.520  -0.786  12.037  0.00  0.00     0.018 A 
ATOM      2  C12 MTX d   1      -2.121   0.433  12.389  0.00  0.00    -0.067 A 
ATOM      3  C13 MTX d   1      -3.291   0.430  13.138  0.00  0.00    -0.056 A 
ATOM      4  C14 MTX d   1      -3.898  -0.788  13.524  0.00  0.00     0.030 A 
ATOM      5  C15 MTX d   1      -3.275  -1.991  13.150  0.00  0.00    -0.056 A 
ATOM      6  C16 MTX d   1      -2.101  -1.944  12.379  0.00  0.00    -0.067 A 
ATOM      7  H11 MTX d   1      -1.675   1.371  12.078  0.00  0.00     0.085 H 
ATOM      8  H12 MTX d   1      -3.744   1.371  13.430  0.00  0.00     0.086 H 
ATOM      9  H13 MTX d   1      -3.695  -2.943  13.453  0.00  0.00     0.086 H 
ATOM     10  H14 MTX d   1      -1.651  -2.874  12.051  0.00  0.00     0.085 H 
ENDROOT
BRANCH   4  11
ATOM     11  N10 MTX d   1      -5.134  -0.780  14.283  0.00  0.00    -0.379 N 
BRANCH  11  12
ATOM     12  C9  MTX d   1      -6.004  -1.970  14.358  0.00  0.00     0.036 C 
ATOM     13  H6  MTX d   1      -6.945  -1.693  14.856  0.00  0.00     0.073 H 
ATOM     14  H7  MTX d   1      -6.218  -2.320  13.337  0.00  0.00     0.073 H 
BRANCH  12  15
ATOM     15  C6  MTX d   1      -5.359  -3.080  15.125  0.00  0.00     0.070 A 
ATOM     16  N5  MTX d   1      -5.828  -4.398  15.045  0.00  0.00    -0.242 NA
ATOM     17  C4A MTX d   1      -5.222  -5.415  15.758  0.00  0.00     0.151 A 
ATOM     18  C4  MTX d   1      -5.686  -6.735  15.694  0.00  0.00     0.173 A 
ATOM     19  C8A MTX d   1      -4.127  -5.102  16.575  0.00  0.00     0.201 A 
ATOM     20  N3  MTX d   1      -5.049  -7.665  16.473  0.00  0.00    -0.043 NA
ATOM     21  NA4 MTX d   1      -6.849  -7.101  15.101  0.00  0.00    -0.381 N 
ATOM     22  C2  MTX d   1      -3.962  -7.324  17.238  0.00  0.00     0.724 A 
ATOM     23  N1  MTX d   1      -3.495  -6.066  17.312  0.00  0.00    -0.041 NA
ATOM     24  H3  MTX d   1      -7.358  -6.430  14.508  0.00  0.00     0.157 HD
ATOM     25  H4  MTX d   1      -7.224  -8.050  15.244  0.00  0.00     0.157 HD
ATOM     26  N8  MTX d   1      -3.656  -3.794  16.675  0.00  0.00    -0.237 NA
ATOM     27  C7  MTX d   1      -4.270  -2.784  15.943  0.00  0.00     0.030 A 
ATOM     28  H5  MTX d   1      -3.902  -1.766  16.008  0.00  0.00     0.118 H 
BRANCH  22  29
ATOM     29  NA2 MTX d   1      -3.358  -8.245  17.938  0.00  0.00    -0.231 N 
ATOM     30  H1  MTX d   1      -2.541  -8.000  18.516  0.00  0.00     0.174 HD
ATOM     31  H2  MTX d   1      -3.698  -9.217  17.913  0.00  0.00     0.174 HD
ENDBRANCH  22  29
ENDBRANCH  12  15
ENDBRANCH  11  12
BRANCH  11  32
ATOM     32  CM  MTX d   1      -5.796   0.514  14.461  0.00  0.00    -0.018 C 
ATOM     33  H8  MTX d   1      -5.051   1.320  14.385  0.00  0.00     0.056 H 
ATOM     34  H9  MTX d   1      -6.274   0.548  15.451  0.00  0.00     0.056 H 
ATOM     35  H10 MTX d   1      -6.560   0.646  13.680  0.00  0.00     0.056 H 
ENDBRANCH  11  32
ENDBRANCH   4  11
BRANCH   1  36
ATOM     36  C   MTX d   1      -0.226  -0.831  11.256  0.00  0.00     0.185 C 
ATOM     37  O   MTX d   1       0.267   0.334  10.624  0.00  0.00    -0.172 OA
ATOM     38  N   MTX d   1       0.410  -2.005  11.238  0.00  0.00    -0.353 N 
ATOM     39  H15 MTX d   1      -0.003  -2.749  11.763  0.00  0.00     0.162 HD
BRANCH  38  40
ATOM     40  CA  MTX d   1       1.637  -2.306  10.534  0.00  0.00     0.096 C 
ATOM     41  H16 MTX d   1       1.955  -1.452   9.918  0.00  0.00     0.089 H 
BRANCH  40  42
ATOM     42  CT  MTX d   1       1.411  -3.531   9.654  0.00  0.00     0.196 C 
ATOM     43  O1  MTX d   1       0.745  -4.522  10.097  0.00  0.00    -0.646 OA
ATOM     44  O2  MTX d   1       1.864  -3.582   8.463  0.00  0.00    -0.646 OA
ENDBRANCH  40  42
BRANCH  40  45
ATOM     45  CB  MTX d   1       2.688  -2.617  11.612  0.00  0.00    -0.028 C 
ATOM     46  H17 MTX d   1       2.983  -3.668  11.477  0.00  0.00     0.037 H 
ATOM     47  H18 MTX d   1       2.192  -2.497  12.587  0.00  0.00     0.037 H 
BRANCH  45  48
ATOM     48  CG  MTX d   1       3.990  -1.787  11.665  0.00  0.00     0.018 C 
ATOM     49  H19 MTX d   1       4.672  -2.142  10.878  0.00  0.00     0.049 H 
ATOM     50  H20 MTX d   1       4.462  -1.925  12.649  0.00  0.00     0.049 H 
BRANCH  48  51
ATOM     51  CD  MTX d   1       3.720  -0.313  11.453  0.00  0.00     0.172 C 
ATOM     52  OE1 MTX d   1       4.066   0.255  10.376  0.00  0.00    -0.648 OA
ATOM     53  OE2 MTX d   1       3.143   0.367  12.337  0.00  0.00    -0.648 OA
ENDBRANCH  48  51
ENDBRANCH  45  48
ENDBRANCH  40  45
ENDBRANCH  38  40
ENDBRANCH   1  36
TORSDOF 11
