REMARK WARNING: 32 MAX_TORS EXCEEDED!!!
REMARK  57 active torsions:
REMARK  status: ('A' for Active; 'I' for Inactive)
REMARK    1  A    between atoms: CA_2  and  N_1 
REMARK    2  A    between atoms: CA_2  and  CB_5 
REMARK    3  A    between atoms: C_3  and  CA_2 
REMARK       I    between atoms: N_9  and  C_3 
REMARK    4  A    between atoms: CB_5  and  CG2_7 
REMARK    5  A    between atoms: CB_5  and  CG1_6 
REMARK    6  A    between atoms: CG1_6  and  CD1_8 
REMARK    7  A    between atoms: CA_10  and  N_9 
REMARK    8  A    between atoms: CA_10  and  CB_13 
REMARK    9  A    between atoms: C_11  and  CA_10 
REMARK       I    between atoms: N_15  and  C_11 
REMARK   10  A    between atoms: CB_13  and  SG_14 
REMARK   11  A    between atoms: CA_16  and  N_15 
REMARK   12  A    between atoms: CA_16  and  CB_19 
REMARK   13  A    between atoms: C_17  and  CA_16 
REMARK       I    between atoms: N_22  and  C_17 
REMARK   14  A    between atoms: CB_19  and  CG2_21 
REMARK   15  A    between atoms: CB_19  and  CG1_20 
REMARK   16  A    between atoms: CA_23  and  N_22 
REMARK   17  A    between atoms: CA_23  and  CB_26 
REMARK   18  A    between atoms: C_24  and  CA_23 
REMARK       I    between atoms: N_36  and  C_24 
REMARK   19  A    between atoms: CB_26  and  CG_27 
REMARK   20  A    between atoms: CA_37  and  N_36 
REMARK   21  A    between atoms: CA_37  and  CB_40 
REMARK   22  A    between atoms: C_38  and  CA_37 
REMARK       I    between atoms: N_45  and  C_38 
REMARK   23  A    between atoms: CB_40  and  CG_41 
REMARK   24  A    between atoms: CG_41  and  CD_42 
REMARK       I    between atoms: CD_42  and  NE2_44 
REMARK   25  A    between atoms: CA_46  and  N_45 
REMARK   26  A    between atoms: CA_46  and  CB_49 
REMARK   27  A    between atoms: C_47  and  CA_46 
REMARK       I    between atoms: N_53  and  C_47 
REMARK   28  A    between atoms: CB_49  and  CG_50 
REMARK   29  A    between atoms: CA_54  and  N_53 
REMARK   30  A    between atoms: CA_54  and  CB_57 
REMARK   31  A    between atoms: C_55  and  CA_54 
REMARK       I    between atoms: N_67  and  C_55 
REMARK   32  A    between atoms: CB_57  and  CG_58 
REMARK   33  A    between atoms: CA_68  and  N_67 
REMARK   34  A    between atoms: C_69  and  CA_68 
REMARK       I    between atoms: N_71  and  C_69 
REMARK   35  A    between atoms: CA_72  and  N_71 
REMARK   36  A    between atoms: CA_72  and  CB_75 
REMARK   37  A    between atoms: C_73  and  CA_72 
REMARK       I    between atoms: N_76  and  C_73 
REMARK   38  A    between atoms: CA_77  and  N_76 
REMARK   39  A    between atoms: CA_77  and  CB_80 
REMARK   40  A    between atoms: C_78  and  CA_77 
REMARK       I    between atoms: N_86  and  C_78 
REMARK   41  A    between atoms: CB_80  and  CG_81 
REMARK   42  A    between atoms: CA_87  and  N_86 
REMARK   43  A    between atoms: CA_87  and  CB_90 
REMARK   44  A    between atoms: C_88  and  CA_87 
REMARK       I    between atoms: N_97  and  C_88 
REMARK   45  A    between atoms: CB_90  and  CG_91 
REMARK   46  A    between atoms: CG_91  and  CD_92 
REMARK   47  A    between atoms: CD_92  and  NE_93 
REMARK       I    between atoms: NE_93  and  CZ_94 
REMARK       I    between atoms: CZ_94  and  NH1_95 
REMARK   48  A    between atoms: CA_98  and  N_97 
REMARK   49  A    between atoms: CA_98  and  CB_101 
REMARK   50  A    between atoms: C_99  and  CA_98 
REMARK       I    between atoms: C_99  and  N_103 
REMARK   51  A    between atoms: CB_101  and  SG_102 
REMARK   52  A    between atoms: N_103  and  CA_104 
REMARK   53  A    between atoms: CA_104  and  CB_107 
REMARK   54  A    between atoms: CA_104  and  C_105 
REMARK   55  A    between atoms: C_105  and  O1_110 
REMARK   56  A    between atoms: CB_107  and  CG2_109 
REMARK   57  A    between atoms: CB_107  and  OG1_108 
ROOT
ATOM      1  CA  TRP d   1      36.627  18.488 -44.324  0.00  0.00     0.093 C 
ATOM      2  H51 TRP d   1      35.847  18.974 -44.928  0.00  0.00     0.088 H 
ENDROOT
BRANCH   1   3
ATOM      3  N   TRP d   1      37.486  19.517 -43.737  0.00  0.00    -0.346 N 
ATOM      4  C   ASP d   1      37.822  20.642 -44.364  0.00  0.00     0.241 C 
ATOM      5  O   ASP d   1      37.540  20.870 -45.541  0.00  0.00    -0.271 OA
ATOM      6  H50 TRP d   1      37.840  19.367 -42.814  0.00  0.00     0.163 HD
BRANCH   4   7
ATOM      7  CA  ASP d   1      38.591  21.669 -43.520  0.00  0.00     0.098 C 
ATOM      8  H47 ASP d   1      37.837  22.229 -42.947  0.00  0.00     0.088 H 
BRANCH   7   9
ATOM      9  N   ASP d   1      39.498  21.064 -42.548  0.00  0.00    -0.346 N 
ATOM     10  C   GLN d   1      39.299  21.197 -41.240  0.00  0.00     0.241 C 
ATOM     11  O   GLN d   1      38.314  21.775 -40.771  0.00  0.00    -0.271 OA
ATOM     12  H46 ASP d   1      40.285  20.539 -42.873  0.00  0.00     0.163 HD
BRANCH  10  13
ATOM     13  CA  GLN d   1      40.369  20.601 -40.317  0.00  0.00     0.090 C 
ATOM     14  H39 GLN d   1      41.342  21.029 -40.600  0.00  0.00     0.087 H 
BRANCH  13  15
ATOM     15  N   GLN d   1      40.095  20.974 -38.927  0.00  0.00    -0.346 N 
ATOM     16  C   TRP d   1      40.962  20.809 -37.931  0.00  0.00     0.241 C 
ATOM     17  O   TRP d   1      42.068  20.283 -38.068  0.00  0.00    -0.271 OA
ATOM     18  H38 GLN d   1      39.205  21.376 -38.714  0.00  0.00     0.163 HD
BRANCH  16  19
ATOM     19  CA  TRP d   1      40.481  21.292 -36.568  0.00  0.00     0.093 C 
ATOM     20  H29 TRP d   1      39.644  21.986 -36.735  0.00  0.00     0.088 H 
BRANCH  19  21
ATOM     21  N   TRP d   1      39.986  20.183 -35.756  0.00  0.00    -0.346 N 
ATOM     22  C   VAL d   1      38.883  19.502 -36.069  0.00  0.00     0.241 C 
ATOM     23  O   VAL d   1      38.184  19.765 -37.053  0.00  0.00    -0.271 OA
ATOM     24  H28 TRP d   1      40.494  19.925 -34.934  0.00  0.00     0.163 HD
BRANCH  22  25
ATOM     25  CA  VAL d   1      38.508  18.353 -35.129  0.00  0.00     0.092 C 
ATOM     26  H20 VAL d   1      39.176  18.371 -34.255  0.00  0.00     0.088 H 
BRANCH  25  27
ATOM     27  N   VAL d   1      37.130  18.524 -34.668  0.00  0.00    -0.346 N 
ATOM     28  C   CYS d   1      36.778  18.624 -33.385  0.00  0.00     0.241 C 
ATOM     29  O   CYS d   1      37.575  18.552 -32.452  0.00  0.00    -0.271 OA
ATOM     30  H19 VAL d   1      36.407  18.569 -35.357  0.00  0.00     0.163 HD
BRANCH  28  31
ATOM     31  CA  CYS d   1      35.283  18.872 -33.137  0.00  0.00     0.097 C 
ATOM     32  H15 CYS d   1      34.738  18.231 -33.845  0.00  0.00     0.088 H 
BRANCH  31  33
ATOM     33  N   CYS d   1      34.788  18.527 -31.796  0.00  0.00    -0.345 N 
ATOM     34  C   ILE d   1      33.515  18.165 -31.595  0.00  0.00     0.249 C 
ATOM     35  O   ILE d   1      32.724  17.939 -32.522  0.00  0.00    -0.271 OA
ATOM     36  H14 CYS d   1      35.415  18.564 -31.018  0.00  0.00     0.163 HD
BRANCH  34  37
ATOM     37  CA  ILE d   1      33.042  18.039 -30.140  0.00  0.00     0.179 C 
ATOM     38  H4  ILE d   1      32.569  17.052 -30.029  0.00  0.00     0.099 H 
BRANCH  37  39
ATOM     39  N   ILE d   1      34.122  18.109 -29.155  0.00  0.00    -0.066 N 
ATOM     40  H1  ILE d   1      33.737  18.020 -28.228  0.00  0.00     0.275 HD
ATOM     41  H2  ILE d   1      34.596  18.995 -29.238  0.00  0.00     0.275 HD
ATOM     42  H3  ILE d   1      34.777  17.361 -29.321  0.00  0.00     0.275 HD
ENDBRANCH  37  39
BRANCH  37  43
ATOM     43  CB  ILE d   1      31.954  19.130 -29.879  0.00  0.00    -0.022 C 
ATOM     44  H5  ILE d   1      31.320  19.195 -30.775  0.00  0.00     0.043 H 
BRANCH  43  45
ATOM     45  CG2 ILE d   1      31.058  18.734 -28.699  0.00  0.00    -0.070 C 
ATOM     46  H8  ILE d   1      30.616  17.745 -28.890  0.00  0.00     0.028 H 
ATOM     47  H9  ILE d   1      30.256  19.478 -28.581  0.00  0.00     0.028 H 
ATOM     48  H10 ILE d   1      31.660  18.695 -27.779  0.00  0.00     0.028 H 
ENDBRANCH  43  45
BRANCH  43  49
ATOM     49  CG1 ILE d   1      32.598  20.508 -29.660  0.00  0.00    -0.063 C 
ATOM     50  H6  ILE d   1      33.555  20.529 -30.201  0.00  0.00     0.033 H 
ATOM     51  H7  ILE d   1      32.783  20.633 -28.583  0.00  0.00     0.033 H 
BRANCH  49  52
ATOM     52  CD1 ILE d   1      31.757  21.682 -30.137  0.00  0.00    -0.076 C 
ATOM     53  H11 ILE d   1      32.294  22.622 -29.941  0.00  0.00     0.027 H 
ATOM     54  H12 ILE d   1      30.798  21.689 -29.599  0.00  0.00     0.027 H 
ATOM     55  H13 ILE d   1      31.571  21.585 -31.217  0.00  0.00     0.027 H 
ENDBRANCH  49  52
ENDBRANCH  43  49
ENDBRANCH  37  43
ENDBRANCH  34  37
ENDBRANCH  31  33
BRANCH  31  56
ATOM     56  CB  CYS d   1      34.938  20.330 -33.466  0.00  0.00     0.001 C 
ATOM     57  H16 CYS d   1      33.893  20.509 -33.173  0.00  0.00     0.052 H 
ATOM     58  H17 CYS d   1      35.044  20.470 -34.552  0.00  0.00     0.052 H 
BRANCH  56  59
ATOM     59  SG  CYS d   1      35.982  21.568 -32.630  0.00  0.00    -0.180 SA
ATOM     60  H18 CYS d   1      36.944  21.429 -32.896  0.00  0.00     0.101 HD
ENDBRANCH  56  59
ENDBRANCH  31  56
ENDBRANCH  28  31
ENDBRANCH  25  27
BRANCH  25  61
ATOM     61  CB  VAL d   1      38.692  17.000 -35.871  0.00  0.00    -0.033 C 
ATOM     62  H21 VAL d   1      37.915  16.929 -36.646  0.00  0.00     0.042 H 
BRANCH  61  63
ATOM     63  CG2 VAL d   1      38.520  15.831 -34.917  0.00  0.00    -0.071 C 
ATOM     64  H25 VAL d   1      37.536  15.897 -34.430  0.00  0.00     0.028 H 
ATOM     65  H26 VAL d   1      39.310  15.862 -34.152  0.00  0.00     0.028 H 
ATOM     66  H27 VAL d   1      38.589  14.887 -35.477  0.00  0.00     0.028 H 
ENDBRANCH  61  63
BRANCH  61  67
ATOM     67  CG1 VAL d   1      40.053  16.922 -36.554  0.00  0.00    -0.071 C 
ATOM     68  H22 VAL d   1      40.150  15.954 -37.068  0.00  0.00     0.028 H 
ATOM     69  H23 VAL d   1      40.848  17.018 -35.800  0.00  0.00     0.028 H 
ATOM     70  H24 VAL d   1      40.143  17.737 -37.287  0.00  0.00     0.028 H 
ENDBRANCH  61  67
ENDBRANCH  25  61
ENDBRANCH  22  25
ENDBRANCH  19  21
BRANCH  19  71
ATOM     71  CB  TRP d   1      41.583  22.056 -35.831  0.00  0.00    -0.012 C 
ATOM     72  H30 TRP d   1      42.101  22.705 -36.552  0.00  0.00     0.044 H 
ATOM     73  H31 TRP d   1      42.295  21.328 -35.416  0.00  0.00     0.044 H 
BRANCH  71  74
ATOM     74  CG  TRP d   1      41.065  22.906 -34.712  0.00  0.00    -0.028 A 
ATOM     75  CD1 TRP d   1      41.117  22.627 -33.378  0.00  0.00    -0.015 A 
ATOM     76  NE1 TRP d   1      40.532  23.641 -32.653  0.00  0.00    -0.365 N 
ATOM     77  H32 TRP d   1      41.559  21.730 -32.947  0.00  0.00     0.112 H 
ATOM     78  CE2 TRP d   1      40.083  24.603 -33.521  0.00  0.00     0.042 A 
ATOM     79  H33 TRP d   1      40.446  23.672 -31.627  0.00  0.00     0.165 HD
ATOM     80  CD2 TRP d   1      40.401  24.172 -34.831  0.00  0.00    -0.002 A 
ATOM     81  CZ2 TRP d   1      39.421  25.812 -33.268  0.00  0.00    -0.056 A 
ATOM     82  CE3 TRP d   1      40.044  24.986 -35.917  0.00  0.00    -0.070 A 
ATOM     83  CZ3 TRP d   1      39.387  26.189 -35.662  0.00  0.00    -0.082 A 
ATOM     84  H34 TRP d   1      40.274  24.686 -36.933  0.00  0.00     0.084 H 
ATOM     85  CH2 TRP d   1      39.084  26.589 -34.349  0.00  0.00    -0.081 A 
ATOM     86  H36 TRP d   1      39.105  26.827 -36.491  0.00  0.00     0.083 H 
ATOM     87  H37 TRP d   1      38.573  27.531 -34.186  0.00  0.00     0.083 H 
ATOM     88  H35 TRP d   1      39.184  26.122 -32.257  0.00  0.00     0.086 H 
ENDBRANCH  71  74
ENDBRANCH  19  71
ENDBRANCH  16  19
ENDBRANCH  13  15
BRANCH  13  89
ATOM     89  CB  GLN d   1      40.461  19.073 -40.481  0.00  0.00    -0.030 C 
ATOM     90  H40 GLN d   1      41.360  18.726 -39.950  0.00  0.00     0.037 H 
ATOM     91  H41 GLN d   1      40.559  18.850 -41.554  0.00  0.00     0.037 H 
BRANCH  89  92
ATOM     92  CG  GLN d   1      39.266  18.297 -39.944  0.00  0.00     0.011 C 
ATOM     93  H42 GLN d   1      38.372  18.596 -40.511  0.00  0.00     0.047 H 
ATOM     94  H43 GLN d   1      39.130  18.555 -38.883  0.00  0.00     0.047 H 
BRANCH  92  95
ATOM     95  CD  GLN d   1      39.428  16.788 -40.058  0.00  0.00     0.215 C 
ATOM     96  NE2 GLN d   1      38.313  16.075 -39.968  0.00  0.00    -0.370 N 
ATOM     97  H44 GLN d   1      38.350  15.078 -40.035  0.00  0.00     0.159 HD
ATOM     98  H45 GLN d   1      37.435  16.535 -39.833  0.00  0.00     0.159 HD
ATOM     99  OE1 GLN d   1      40.536  16.270 -40.218  0.00  0.00    -0.274 OA
ENDBRANCH  92  95
ENDBRANCH  89  92
ENDBRANCH  13  89
ENDBRANCH  10  13
ENDBRANCH   7   9
BRANCH   7 100
ATOM    100  CB  ASP d   1      39.344  22.684 -44.391  0.00  0.00     0.043 C 
ATOM    101  H48 ASP d   1      38.670  23.034 -45.187  0.00  0.00     0.052 H 
ATOM    102  H49 ASP d   1      40.214  22.184 -44.841  0.00  0.00     0.052 H 
BRANCH 100 103
ATOM    103  CG  ASP d   1      39.833  23.897 -43.596  0.00  0.00     0.175 C 
ATOM    104  OD1 ASP d   1      39.283  24.170 -42.504  0.00  0.00    -0.648 OA
ATOM    105  OD2 ASP d   1      40.767  24.583 -44.070  0.00  0.00    -0.648 OA
ENDBRANCH 100 103
ENDBRANCH   7 100
ENDBRANCH   4   7
ENDBRANCH   1   3
BRANCH   1 106
ATOM    106  CB  TRP d   1      37.432  17.545 -45.231  0.00  0.00    -0.012 C 
ATOM    107  H52 TRP d   1      37.965  18.153 -45.976  0.00  0.00     0.044 H 
ATOM    108  H53 TRP d   1      36.728  16.872 -45.743  0.00  0.00     0.044 H 
BRANCH 106 109
ATOM    109  CG  TRP d   1      38.441  16.704 -44.497  0.00  0.00    -0.028 A 
ATOM    110  CD1 TRP d   1      39.715  17.063 -44.156  0.00  0.00    -0.015 A 
ATOM    111  NE1 TRP d   1      40.336  16.033 -43.489  0.00  0.00    -0.365 N 
ATOM    112  H54 TRP d   1      40.172  18.026 -44.380  0.00  0.00     0.112 H 
ATOM    113  CE2 TRP d   1      39.465  14.981 -43.386  0.00  0.00     0.042 A 
ATOM    114  H55 TRP d   1      41.300  16.050 -43.126  0.00  0.00     0.165 HD
ATOM    115  CD2 TRP d   1      38.258  15.366 -44.015  0.00  0.00    -0.002 A 
ATOM    116  CZ2 TRP d   1      39.636  13.725 -42.800  0.00  0.00    -0.056 A 
ATOM    117  CE3 TRP d   1      37.192  14.456 -44.048  0.00  0.00    -0.070 A 
ATOM    118  CZ3 TRP d   1      37.360  13.213 -43.464  0.00  0.00    -0.082 A 
ATOM    119  H56 TRP d   1      36.254  14.721 -44.522  0.00  0.00     0.084 H 
ATOM    120  CH2 TRP d   1      38.576  12.857 -42.846  0.00  0.00    -0.081 A 
ATOM    121  H58 TRP d   1      36.543  12.501 -43.482  0.00  0.00     0.083 H 
ATOM    122  H59 TRP d   1      38.675  11.875 -42.397  0.00  0.00     0.083 H 
ATOM    123  H57 TRP d   1      40.571  13.447 -42.327  0.00  0.00     0.086 H 
ENDBRANCH 106 109
ENDBRANCH   1 106
BRANCH   1 124
ATOM    124  C   TRP d   1      35.966  17.707 -43.189  0.00  0.00     0.241 C 
ATOM    125  O   TRP d   1      36.381  17.823 -42.033  0.00  0.00    -0.271 OA
ATOM    126  N   GLY d   1      34.935  16.929 -43.514  0.00  0.00    -0.351 N 
ATOM    127  H60 GLY d   1      34.591  16.946 -44.453  0.00  0.00     0.163 HD
BRANCH 126 128
ATOM    128  CA  GLY d   1      34.291  16.049 -42.536  0.00  0.00     0.069 C 
ATOM    129  H61 GLY d   1      35.064  15.695 -41.838  0.00  0.00     0.078 H 
ATOM    130  H62 GLY d   1      33.867  15.192 -43.079  0.00  0.00     0.078 H 
BRANCH 128 131
ATOM    131  C   GLY d   1      33.179  16.682 -41.720  0.00  0.00     0.236 C 
ATOM    132  O   GLY d   1      33.152  17.895 -41.523  0.00  0.00    -0.272 OA
ATOM    133  N   ALA d   1      32.274  15.840 -41.224  0.00  0.00    -0.347 N 
ATOM    134  H63 ALA d   1      32.419  14.858 -41.348  0.00  0.00     0.163 HD
BRANCH 133 135
ATOM    135  CA  ALA d   1      31.073  16.284 -40.504  0.00  0.00     0.086 C 
ATOM    136  H64 ALA d   1      30.541  16.985 -41.164  0.00  0.00     0.086 H 
BRANCH 135 137
ATOM    137  CB  ALA d   1      30.145  15.098 -40.239  0.00  0.00    -0.049 C 
ATOM    138  H65 ALA d   1      29.251  15.445 -39.700  0.00  0.00     0.030 H 
ATOM    139  H66 ALA d   1      30.672  14.349 -39.630  0.00  0.00     0.030 H 
ATOM    140  H67 ALA d   1      29.844  14.647 -41.196  0.00  0.00     0.030 H 
ENDBRANCH 135 137
BRANCH 135 141
ATOM    141  C   ALA d   1      31.371  17.032 -39.201  0.00  0.00     0.240 C 
ATOM    142  O   ALA d   1      30.594  17.898 -38.789  0.00  0.00    -0.271 OA
ATOM    143  N   HIS d   1      32.497  16.696 -38.569  0.00  0.00    -0.346 N 
ATOM    144  H68 HIS d   1      33.086  15.997 -38.975  0.00  0.00     0.163 HD
BRANCH 143 145
ATOM    145  CA  HIS d   1      32.903  17.310 -37.307  0.00  0.00     0.094 C 
ATOM    146  H69 HIS d   1      32.059  17.917 -36.948  0.00  0.00     0.088 H 
BRANCH 145 147
ATOM    147  CB  HIS d   1      33.187  16.233 -36.247  0.00  0.00     0.002 C 
ATOM    148  H70 HIS d   1      33.315  16.731 -35.274  0.00  0.00     0.046 H 
ATOM    149  H71 HIS d   1      34.119  15.717 -36.520  0.00  0.00     0.046 H 
BRANCH 147 150
ATOM    150  CG  HIS d   1      32.101  15.205 -36.112  0.00  0.00     0.030 A 
ATOM    151  ND1 HIS d   1      31.019  15.366 -35.271  0.00  0.00    -0.353 N 
ATOM    152  CE1 HIS d   1      30.231  14.310 -35.361  0.00  0.00     0.063 A 
ATOM    153  H72 HIS d   1      30.852  16.183 -34.667  0.00  0.00     0.166 HD
ATOM    154  NE2 HIS d   1      30.762  13.467 -36.229  0.00  0.00    -0.254 NA
ATOM    155  H74 HIS d   1      29.302  14.160 -34.813  0.00  0.00     0.143 H 
ATOM    156  CD2 HIS d   1      31.932  14.003 -36.713  0.00  0.00     0.025 A 
ATOM    157  H73 HIS d   1      32.598  13.546 -37.443  0.00  0.00     0.117 H 
ENDBRANCH 147 150
ENDBRANCH 145 147
BRANCH 145 158
ATOM    158  C   HIS d   1      34.105  18.253 -37.483  0.00  0.00     0.241 C 
ATOM    159  O   HIS d   1      35.180  18.031 -36.927  0.00  0.00    -0.271 OA
ATOM    160  N   ARG d   1      33.908  19.302 -38.277  0.00  0.00    -0.346 N 
ATOM    161  H75 ARG d   1      33.080  19.331 -38.837  0.00  0.00     0.163 HD
BRANCH 160 162
ATOM    162  CA  ARG d   1      34.852  20.413 -38.363  0.00  0.00     0.089 C 
ATOM    163  H76 ARG d   1      35.882  20.027 -38.376  0.00  0.00     0.087 H 
BRANCH 162 164
ATOM    164  CB  ARG d   1      34.596  21.251 -39.623  0.00  0.00    -0.036 C 
ATOM    165  H77 ARG d   1      35.257  22.130 -39.584  0.00  0.00     0.036 H 
ATOM    166  H78 ARG d   1      33.547  21.580 -39.602  0.00  0.00     0.036 H 
BRANCH 164 167
ATOM    167  CG  ARG d   1      34.837  20.545 -40.951  0.00  0.00    -0.048 C 
ATOM    168  H79 ARG d   1      34.445  19.519 -40.886  0.00  0.00     0.035 H 
ATOM    169  H80 ARG d   1      35.919  20.513 -41.147  0.00  0.00     0.035 H 
BRANCH 167 170
ATOM    170  CD  ARG d   1      34.147  21.266 -42.104  0.00  0.00     0.009 C 
ATOM    171  H81 ARG d   1      34.292  20.684 -43.026  0.00  0.00     0.064 H 
ATOM    172  H82 ARG d   1      34.600  22.261 -42.224  0.00  0.00     0.064 H 
BRANCH 170 173
ATOM    173  NE  ARG d   1      32.712  21.425 -41.865  0.00  0.00    -0.227 N 
ATOM    174  CZ  ARG d   1      31.760  20.622 -42.343  0.00  0.00     0.665 C 
ATOM    175  NH2 ARG d   1      30.488  20.865 -42.051  0.00  0.00    -0.235 N 
ATOM    176  NH1 ARG d   1      32.068  19.583 -43.113  0.00  0.00    -0.235 N 
ATOM    177  H86 ARG d   1      30.241  21.668 -41.455  0.00  0.00     0.174 HD
ATOM    178  H87 ARG d   1      29.748  20.251 -42.420  0.00  0.00     0.174 HD
ATOM    179  H84 ARG d   1      31.323  18.971 -43.475  0.00  0.00     0.174 HD
ATOM    180  H85 ARG d   1      33.052  19.390 -43.347  0.00  0.00     0.174 HD
ATOM    181  H83 ARG d   1      32.413  22.220 -41.282  0.00  0.00     0.177 HD
ENDBRANCH 170 173
ENDBRANCH 167 170
ENDBRANCH 164 167
ENDBRANCH 162 164
BRANCH 162 182
ATOM    182  C   ARG d   1      34.636  21.305 -37.150  0.00  0.00     0.241 C 
ATOM    183  O   ARG d   1      33.535  21.339 -36.593  0.00  0.00    -0.271 OA
ATOM    184  N   CYS d   1      35.674  22.037 -36.751  0.00  0.00    -0.345 N 
ATOM    185  H88 CYS d   1      36.563  21.905 -37.189  0.00  0.00     0.163 HD
BRANCH 184 186
ATOM    186  CA  CYS d   1      35.539  23.030 -35.685  0.00  0.00     0.097 C 
ATOM    187  H89 CYS d   1      34.861  22.610 -34.927  0.00  0.00     0.088 H 
BRANCH 186 188
ATOM    188  CB  CYS d   1      36.881  23.302 -35.002  0.00  0.00     0.001 C 
ATOM    189  H90 CYS d   1      36.769  24.192 -34.366  0.00  0.00     0.052 H 
ATOM    190  H91 CYS d   1      37.630  23.501 -35.782  0.00  0.00     0.052 H 
BRANCH 188 191
ATOM    191  SG  CYS d   1      37.490  21.928 -33.961  0.00  0.00    -0.180 SA
ATOM    192  H92 CYS d   1      36.821  21.739 -33.231  0.00  0.00     0.101 HD
ENDBRANCH 188 191
ENDBRANCH 186 188
BRANCH 186 193
ATOM    193  C   CYS d   1      34.906  24.324 -36.201  0.00  0.00     0.242 C 
ATOM    194  O   CYS d   1      35.235  24.791 -37.295  0.00  0.00    -0.271 OA
ATOM    195  N   THR d   1      34.000  24.879 -35.390  0.00  0.00    -0.343 N 
ATOM    196  H93 THR d   1      33.868  24.458 -34.492  0.00  0.00     0.163 HD
BRANCH 195 197
ATOM    197  CA  THR d   1      33.174  26.068 -35.712  0.00  0.00     0.117 C 
ATOM    198  H94 THR d   1      32.455  26.150 -34.884  0.00  0.00     0.093 H 
BRANCH 197 199
ATOM    199  CB  THR d   1      33.976  27.423 -35.720  0.00  0.00     0.061 C 
ATOM    200  H95 THR d   1      33.256  28.235 -35.538  0.00  0.00     0.086 H 
BRANCH 199 201
ATOM    201  CG2 THR d   1      35.034  27.483 -34.602  0.00  0.00    -0.050 C 
ATOM    202  H97 THR d   1      35.565  28.445 -34.651  0.00  0.00     0.031 H 
ATOM    203  H98 THR d   1      35.753  26.661 -34.733  0.00  0.00     0.031 H 
ATOM    204  H99 THR d   1      34.540  27.386 -33.624  0.00  0.00     0.031 H 
ENDBRANCH 199 201
BRANCH 199 205
ATOM    205  OG1 THR d   1      34.578  27.650 -37.007  0.00  0.00    -0.393 OA
ATOM    206  H96 THR d   1      35.235  26.983 -37.170  0.00  0.00     0.210 HD
ENDBRANCH 199 205
ENDBRANCH 197 199
BRANCH 197 207
ATOM    207  C   THR d   1      32.325  25.931 -36.990  0.00  0.00     0.166 C 
ATOM    208  O   THR d   1      32.362  24.868 -37.649  0.00  0.00    -0.648 OA
BRANCH 207 209
ATOM    209  O1  THR d   1      31.555  26.939 -37.391  0.00  0.00    -0.775 OA
ATOM    210 0H10 THR d   1      30.650  26.654 -37.417  0.00  0.00     0.167 HD
ENDBRANCH 207 209
ENDBRANCH 197 207
ENDBRANCH 195 197
ENDBRANCH 186 193
ENDBRANCH 184 186
ENDBRANCH 162 182
ENDBRANCH 160 162
ENDBRANCH 145 158
ENDBRANCH 143 145
ENDBRANCH 135 141
ENDBRANCH 133 135
ENDBRANCH 128 131
ENDBRANCH 126 128
ENDBRANCH   1 124
TORSDOF 57
