REMARK  14 active torsions:
REMARK  status: ('A' for Active; 'I' for Inactive)
REMARK    1  A    between atoms: C7_7  and  C1_1 
REMARK    2  A    between atoms: C5_5  and  C6_6 
REMARK       I    between atoms: N1_8  and  C5_5 
REMARK    3  A    between atoms: C6_6  and  N4_11 
REMARK    4  A    between atoms: C8_12  and  C7_7 
REMARK    5  A    between atoms: C7_7  and  O2_16 
REMARK    6  A    between atoms: N4_11  and  C11_22 
REMARK    7  A    between atoms: C9_17  and  C10_13 
REMARK    8  A    between atoms: C10_13  and  C12_19 
REMARK    9  A    between atoms: C10_13  and  C14_20 
REMARK   10  A    between atoms: C10_13  and  C16_21 
REMARK   11  A    between atoms: C11_22  and  C13_23 
REMARK   12  A    between atoms: C11_22  and  C15_24 
REMARK   13  A    between atoms: C11_22  and  C17_25 
REMARK   14  A    between atoms: C15_24  and  O4_26 
ROOT
ATOM      1  C1  NON d   1      12.396 -12.953   7.011  0.00  0.00     0.049 C 
ATOM      2  C2  NON d   1      12.837 -11.689   7.773  0.00  0.00    -0.013 C 
ATOM      3  C3  NON d   1      13.575 -12.204   8.967  0.00  0.00     0.096 C 
ATOM      4  C4  NON d   1      12.985 -13.556   9.272  0.00  0.00     0.027 C 
ATOM      5  C5  NON d   1      11.475 -15.157   7.975  0.00  0.00     0.246 C 
ATOM      6  N1  NON d   1      12.247 -13.977   8.079  0.00  0.00    -0.340 N 
ATOM      7  F1  NON d   1      14.871 -12.294   8.634  0.00  0.00    -0.248 F 
ATOM      8  O1  NON d   1      10.851 -15.460   6.975  0.00  0.00    -0.272 OA
ATOM      9  H1  NON d   1      11.415 -12.780   6.543  0.00  0.00     0.077 H 
ATOM     10  H2  NON d   1      11.963 -11.098   8.083  0.00  0.00     0.040 H 
ATOM     11  H3  NON d   1      13.496 -11.069   7.147  0.00  0.00     0.040 H 
ATOM     12  H4  NON d   1      13.454 -11.531   9.829  0.00  0.00     0.094 H 
ATOM     13  H5  NON d   1      12.304 -13.486  10.133  0.00  0.00     0.068 H 
ATOM     14  H6  NON d   1      13.786 -14.277   9.495  0.00  0.00     0.068 H 
ENDROOT
BRANCH   1  15
ATOM     15  C7  NON d   1      13.414 -13.324   5.854  0.00  0.00     0.120 C 
ATOM     16  H9  NON d   1      13.480 -12.451   5.188  0.00  0.00     0.099 H 
BRANCH  15  17
ATOM     17  C8  NON d   1      13.108 -14.533   5.009  0.00  0.00     0.199 A 
ATOM     18  N2  NON d   1      11.976 -15.084   4.674  0.00  0.00    -0.124 NA
ATOM     19  N3  NON d   1      12.277 -16.178   3.877  0.00  0.00    -0.126 NA
ATOM     20  C9  NON d   1      13.599 -16.221   3.774  0.00  0.00     0.176 A 
ATOM     21  O3  NON d   1      14.194 -15.201   4.473  0.00  0.00    -0.274 OA
BRANCH  20  22
ATOM     22  C10 NON d   1      14.504 -17.199   3.022  0.00  0.00     0.018 C 
BRANCH  22  23
ATOM     23  C12 NON d   1      15.163 -18.186   4.001  0.00  0.00    -0.062 C 
ATOM     24  H13 NON d   1      15.809 -18.880   3.443  0.00  0.00     0.029 H 
ATOM     25  H14 NON d   1      14.383 -18.755   4.529  0.00  0.00     0.029 H 
ATOM     26  H15 NON d   1      15.768 -17.629   4.731  0.00  0.00     0.029 H 
ENDBRANCH  22  23
BRANCH  22  27
ATOM     27  C14 NON d   1      15.599 -16.429   2.271  0.00  0.00    -0.062 C 
ATOM     28  H16 NON d   1      15.134 -15.721   1.569  0.00  0.00     0.029 H 
ATOM     29  H17 NON d   1      16.229 -17.138   1.714  0.00  0.00     0.029 H 
ATOM     30  H18 NON d   1      16.219 -15.876   2.992  0.00  0.00     0.029 H 
ENDBRANCH  22  27
BRANCH  22  31
ATOM     31  C16 NON d   1      13.700 -17.999   1.977  0.00  0.00    -0.062 C 
ATOM     32  H19 NON d   1      12.903 -18.565   2.482  0.00  0.00     0.029 H 
ATOM     33  H20 NON d   1      14.371 -18.697   1.454  0.00  0.00     0.029 H 
ATOM     34  H21 NON d   1      13.252 -17.306   1.250  0.00  0.00     0.029 H 
ENDBRANCH  22  31
ENDBRANCH  20  22
ENDBRANCH  15  17
BRANCH  15  35
ATOM     35  O2  NON d   1      14.699 -13.598   6.421  0.00  0.00    -0.385 OA
ATOM     36  H12 NON d   1      15.334 -13.713   5.723  0.00  0.00     0.210 HD
ENDBRANCH  15  35
ENDBRANCH   1  15
BRANCH   5  37
ATOM     37  C6  NON d   1      11.396 -16.089   9.180  0.00  0.00     0.155 C 
ATOM     38  H7  NON d   1      10.592 -16.821   9.014  0.00  0.00     0.090 H 
ATOM     39  H8  NON d   1      11.171 -15.494  10.078  0.00  0.00     0.090 H 
BRANCH  37  40
ATOM     40  N4  NON d   1      12.678 -16.818   9.392  0.00  0.00    -0.057 N 
ATOM     41  H10 NON d   1      12.991 -16.568  10.317  0.00  0.00     0.278 HD
ATOM     42  H11 NON d   1      13.323 -16.453   8.709  0.00  0.00     0.278 HD
BRANCH  40  43
ATOM     43  C11 NON d   1      12.785 -18.322   9.306  0.00  0.00     0.140 C 
BRANCH  43  44
ATOM     44  C13 NON d   1      14.045 -18.742  10.070  0.00  0.00    -0.043 C 
ATOM     45  H22 NON d   1      14.153 -19.836  10.027  0.00  0.00     0.030 H 
ATOM     46  H23 NON d   1      13.961 -18.423  11.119  0.00  0.00     0.030 H 
ATOM     47  H24 NON d   1      14.926 -18.268   9.613  0.00  0.00     0.030 H 
ENDBRANCH  43  44
BRANCH  43  48
ATOM     48  C15 NON d   1      11.536 -18.990   9.926  0.00  0.00     0.047 C 
ATOM     49  H25 NON d   1      11.214 -18.407  10.802  0.00  0.00     0.077 H 
ATOM     50  H26 NON d   1      11.794 -20.012  10.241  0.00  0.00     0.077 H 
BRANCH  48  51
ATOM     51  O4  NON d   1      10.473 -19.048   8.993  0.00  0.00    -0.398 OA
ATOM     52  H30 NON d   1      10.244 -18.167   8.721  0.00  0.00     0.209 HD
ENDBRANCH  48  51
ENDBRANCH  43  48
BRANCH  43  53
ATOM     53  C17 NON d   1      12.928 -18.689   7.804  0.00  0.00    -0.043 C 
ATOM     54  H27 NON d   1      13.009 -19.781   7.699  0.00  0.00     0.030 H 
ATOM     55  H28 NON d   1      13.832 -18.213   7.395  0.00  0.00     0.030 H 
ATOM     56  H29 NON d   1      12.045 -18.333   7.254  0.00  0.00     0.030 H 
ENDBRANCH  43  53
ENDBRANCH  40  43
ENDBRANCH  37  40
ENDBRANCH   5  37
TORSDOF 14
