REMARK  19 active torsions:
REMARK  status: ('A' for Active; 'I' for Inactive)
REMARK    1  A    between atoms: N_1  and  CA_2 
REMARK    2  A    between atoms: CA_2  and  C_3 
REMARK    3  A    between atoms: CA_2  and  CB_5 
REMARK       I    between atoms: C_3  and  N_9 
REMARK    4  A    between atoms: CB_5  and  CG_6 
REMARK    5  A    between atoms: N_9  and  CA_10 
REMARK    6  A    between atoms: CA_10  and  C_11 
REMARK    7  A    between atoms: CA_10  and  CB_13 
REMARK       I    between atoms: C_11  and  N_17 
REMARK    8  A    between atoms: CB_13  and  CG_14 
REMARK    9  A    between atoms: CG_14  and  SD_15 
REMARK   10  A    between atoms: SD_15  and  CE_16 
REMARK   11  A    between atoms: N_17  and  CA_18 
REMARK   12  A    between atoms: CA_18  and  C_19 
REMARK   13  A    between atoms: CA_18  and  CB_21 
REMARK       I    between atoms: C_19  and  N_26 
REMARK   14  A    between atoms: CB_21  and  CG_22 
REMARK   15  A    between atoms: CG_22  and  CD_23 
REMARK       I    between atoms: CD_23  and  NE2_25 
REMARK   16  A    between atoms: N_26  and  CA_27 
REMARK   17  A    between atoms: CA_27  and  C_28 
REMARK   18  A    between atoms: CA_27  and  CB_30 
REMARK   19  A    between atoms: CB_30  and  CG_31 
ROOT
ATOM      1  C   MET d   1      48.554 -17.091  32.912  0.00  0.00     0.241 C 
ATOM      2  O   MET d   1      47.896 -17.484  31.948  0.00  0.00    -0.271 OA
ATOM      3  N   GLN d   1      49.410 -17.871  33.571  0.00  0.00    -0.346 N 
ATOM      4  H16 GLN d   1      49.918 -17.497  34.347  0.00  0.00     0.163 HD
ENDROOT
BRANCH   1   5
ATOM      5  CA  MET d   1      48.409 -15.654  33.415  0.00  0.00     0.090 C 
ATOM      6  H8  MET d   1      49.409 -15.209  33.528  0.00  0.00     0.087 H 
BRANCH   5   7
ATOM      7  N   MET d   1      47.635 -14.855  32.466  0.00  0.00    -0.346 N 
ATOM      8  C   ASP d   1      48.138 -13.809  31.811  0.00  0.00     0.249 C 
ATOM      9  O   ASP d   1      49.301 -13.417  31.938  0.00  0.00    -0.271 OA
ATOM     10  H7  MET d   1      46.681 -15.106  32.300  0.00  0.00     0.163 HD
BRANCH   8  11
ATOM     11  CA  ASP d   1      47.179 -13.085  30.876  0.00  0.00     0.185 C 
ATOM     12  H4  ASP d   1      46.152 -13.209  31.250  0.00  0.00     0.100 H 
BRANCH  11  13
ATOM     13  N   ASP d   1      47.525 -11.662  30.780  0.00  0.00    -0.066 N 
ATOM     14  H1  ASP d   1      46.880 -11.201  30.158  0.00  0.00     0.275 HD
ATOM     15  H2  ASP d   1      48.463 -11.568  30.422  0.00  0.00     0.275 HD
ATOM     16  H3  ASP d   1      47.470 -11.240  31.694  0.00  0.00     0.275 HD
ENDBRANCH  11  13
BRANCH  11  17
ATOM     17  CB  ASP d   1      47.286 -13.595  29.433  0.00  0.00     0.050 C 
ATOM     18  H5  ASP d   1      47.182 -14.690  29.440  0.00  0.00     0.052 H 
ATOM     19  H6  ASP d   1      48.276 -13.323  29.038  0.00  0.00     0.052 H 
BRANCH  17  20
ATOM     20  CG  ASP d   1      46.216 -13.011  28.509  0.00  0.00     0.175 C 
ATOM     21  OD1 ASP d   1      45.014 -13.063  28.856  0.00  0.00    -0.648 OA
ATOM     22  OD2 ASP d   1      46.580 -12.511  27.424  0.00  0.00    -0.648 OA
ENDBRANCH  17  20
ENDBRANCH  11  17
ENDBRANCH   8  11
ENDBRANCH   5   7
BRANCH   5  23
ATOM     23  CB  MET d   1      47.703 -15.663  34.770  0.00  0.00    -0.030 C 
ATOM     24  H9  MET d   1      48.286 -16.294  35.457  0.00  0.00     0.037 H 
ATOM     25  H10 MET d   1      46.702 -16.098  34.633  0.00  0.00     0.037 H 
BRANCH  23  26
ATOM     26  CG  MET d   1      47.542 -14.293  35.407  0.00  0.00    -0.021 C 
ATOM     27  H11 MET d   1      46.760 -14.351  36.179  0.00  0.00     0.049 H 
ATOM     28  H12 MET d   1      47.238 -13.575  34.631  0.00  0.00     0.049 H 
BRANCH  26  29
ATOM     29  SD  MET d   1      49.070 -13.710  36.171  0.00  0.00    -0.173 SA
BRANCH  29  30
ATOM     30  CE  MET d   1      49.882 -12.874  34.769  0.00  0.00    -0.035 C 
ATOM     31  H13 MET d   1      50.847 -12.461  35.097  0.00  0.00     0.041 H 
ATOM     32  H14 MET d   1      49.239 -12.059  34.406  0.00  0.00     0.041 H 
ATOM     33  H15 MET d   1      50.050 -13.598  33.958  0.00  0.00     0.041 H 
ENDBRANCH  29  30
ENDBRANCH  26  29
ENDBRANCH  23  26
ENDBRANCH   5  23
ENDBRANCH   1   5
BRANCH   3  34
ATOM     34  CA  GLN d   1      49.620 -19.264  33.179  0.00  0.00     0.090 C 
ATOM     35  H17 GLN d   1      49.035 -19.448  32.266  0.00  0.00     0.087 H 
BRANCH  34  36
ATOM     36  C   GLN d   1      49.144 -20.249  34.256  0.00  0.00     0.240 C 
ATOM     37  O   GLN d   1      49.135 -19.927  35.445  0.00  0.00    -0.271 OA
ATOM     38  N   ASJ d   1      48.754 -21.448  33.827  0.00  0.00    -0.351 N 
ATOM     39  H24 ASJ d   1      48.790 -21.640  32.846  0.00  0.00     0.163 HD
BRANCH  38  40
ATOM     40  CA  ASJ d   1      48.276 -22.494  34.727  0.00  0.00     0.052 C 
ATOM     41  H25 ASJ d   1      48.310 -22.110  35.757  0.00  0.00     0.077 H 
BRANCH  40  42
ATOM     42  C   ASJ d   1      49.118 -23.735  34.633  0.00  0.00     0.122 C 
ATOM     43  O   ASJ d   1      49.800 -23.986  35.861  0.00  0.00    -0.230 OA
ATOM     44  H26 ASJ d   1      49.197 -24.360  33.745  0.00  0.00     0.095 H 
ENDBRANCH  40  42
BRANCH  40  45
ATOM     45  CB  ASJ d   1      46.842 -22.896  34.382  0.00  0.00     0.037 C 
ATOM     46  H27 ASJ d   1      46.651 -23.901  34.787  0.00  0.00     0.052 H 
ATOM     47  H28 ASJ d   1      46.736 -22.916  33.287  0.00  0.00     0.052 H 
BRANCH  45  48
ATOM     48  CG  ASJ d   1      45.817 -21.944  34.949  0.00  0.00     0.174 C 
ATOM     49  OD1 ASJ d   1      44.773 -21.737  34.297  0.00  0.00    -0.648 OA
ATOM     50  OD2 ASJ d   1      46.052 -21.401  36.045  0.00  0.00    -0.648 OA
ENDBRANCH  45  48
ENDBRANCH  40  45
ENDBRANCH  38  40
ENDBRANCH  34  36
BRANCH  34  51
ATOM     51  CB  GLN d   1      51.100 -19.524  32.866  0.00  0.00    -0.030 C 
ATOM     52  H18 GLN d   1      51.204 -20.577  32.567  0.00  0.00     0.037 H 
ATOM     53  H19 GLN d   1      51.678 -19.345  33.785  0.00  0.00     0.037 H 
BRANCH  51  54
ATOM     54  CG  GLN d   1      51.697 -18.656  31.755  0.00  0.00     0.011 C 
ATOM     55  H20 GLN d   1      50.899 -18.399  31.043  0.00  0.00     0.047 H 
ATOM     56  H21 GLN d   1      52.477 -19.234  31.238  0.00  0.00     0.047 H 
BRANCH  54  57
ATOM     57  CD  GLN d   1      52.315 -17.365  32.281  0.00  0.00     0.215 C 
ATOM     58  OE1 GLN d   1      53.151 -17.394  33.187  0.00  0.00    -0.274 OA
ATOM     59  NE2 GLN d   1      51.914 -16.230  31.712  0.00  0.00    -0.370 N 
ATOM     60  H22 GLN d   1      52.289 -15.356  32.021  0.00  0.00     0.159 HD
ATOM     61  H23 GLN d   1      51.238 -16.252  30.976  0.00  0.00     0.159 HD
ENDBRANCH  54  57
ENDBRANCH  51  54
ENDBRANCH  34  51
ENDBRANCH   3  34
TORSDOF 19
