REMARK  16 active torsions:
REMARK  status: ('A' for Active; 'I' for Inactive)
REMARK    1  A    between atoms: N_1  and  CA_2 
REMARK    2  A    between atoms: CA_2  and  C_3 
REMARK    3  A    between atoms: CA_2  and  CB_5 
REMARK       I    between atoms: C_3  and  N_9 
REMARK    4  A    between atoms: CB_5  and  CG1_6 
REMARK    5  A    between atoms: CB_5  and  CG2_7 
REMARK    6  A    between atoms: CG1_6  and  CD1_8 
REMARK    7  A    between atoms: N_9  and  CA_10 
REMARK    8  A    between atoms: CA_10  and  C_11 
REMARK    9  A    between atoms: CA_10  and  CB_13 
REMARK       I    between atoms: C_11  and  N_18 
REMARK   10  A    between atoms: CB_13  and  CG_14 
REMARK   11  A    between atoms: CG_14  and  CD_15 
REMARK   12  A    between atoms: CA_19  and  C_20 
REMARK       I    between atoms: C_20  and  N_25 
REMARK   13  A    between atoms: N_25  and  CA_26 
REMARK   14  A    between atoms: CA_26  and  C_27 
REMARK   15  A    between atoms: CA_26  and  CB_29 
REMARK   16  A    between atoms: CB_29  and  CG_30 
ROOT
ATOM      1  CA  GLU d   1     -54.634  26.182  -2.613  0.00  0.00     0.090 C 
ATOM      2  H15 GLU d   1     -55.454  25.453  -2.694  0.00  0.00     0.087 H 
ENDROOT
BRANCH   1   3
ATOM      3  N   GLU d   1     -55.040  27.229  -1.681  0.00  0.00    -0.346 N 
ATOM      4  C   ILE d   1     -56.120  27.123  -0.911  0.00  0.00     0.249 C 
ATOM      5  O   ILE d   1     -56.855  26.134  -0.912  0.00  0.00    -0.271 OA
ATOM      6  H14 GLU d   1     -54.485  28.058  -1.619  0.00  0.00     0.163 HD
BRANCH   4   7
ATOM      7  CA  ILE d   1     -56.411  28.317  -0.001  0.00  0.00     0.179 C 
ATOM      8  H4  ILE d   1     -55.858  29.184  -0.391  0.00  0.00     0.099 H 
BRANCH   7   9
ATOM      9  N   ILE d   1     -57.835  28.666   0.045  0.00  0.00    -0.066 N 
ATOM     10  H1  ILE d   1     -58.163  28.863  -0.887  0.00  0.00     0.275 HD
ATOM     11  H2  ILE d   1     -57.963  29.480   0.625  0.00  0.00     0.275 HD
ATOM     12  H3  ILE d   1     -58.358  27.894   0.429  0.00  0.00     0.275 HD
ENDBRANCH   7   9
BRANCH   7  13
ATOM     13  CB  ILE d   1     -55.918  28.017   1.426  0.00  0.00    -0.022 C 
ATOM     14  H5  ILE d   1     -56.342  28.762   2.115  0.00  0.00     0.043 H 
BRANCH  13  15
ATOM     15  CG1 ILE d   1     -54.396  28.106   1.469  0.00  0.00    -0.063 C 
ATOM     16  H6  ILE d   1     -54.085  29.027   0.954  0.00  0.00     0.033 H 
ATOM     17  H7  ILE d   1     -53.980  27.234   0.944  0.00  0.00     0.033 H 
BRANCH  15  18
ATOM     18  CD1 ILE d   1     -53.851  28.130   2.853  0.00  0.00    -0.076 C 
ATOM     19  H11 ILE d   1     -52.754  28.195   2.814  0.00  0.00     0.027 H 
ATOM     20  H12 ILE d   1     -54.146  27.210   3.379  0.00  0.00     0.027 H 
ATOM     21  H13 ILE d   1     -54.251  29.003   3.389  0.00  0.00     0.027 H 
ENDBRANCH  15  18
ENDBRANCH  13  15
BRANCH  13  22
ATOM     22  CG2 ILE d   1     -56.368  26.624   1.863  0.00  0.00    -0.070 C 
ATOM     23  H8  ILE d   1     -57.466  26.566   1.830  0.00  0.00     0.028 H 
ATOM     24  H9  ILE d   1     -56.022  26.432   2.889  0.00  0.00     0.028 H 
ATOM     25  H10 ILE d   1     -55.941  25.871   1.185  0.00  0.00     0.028 H 
ENDBRANCH  13  22
ENDBRANCH   7  13
ENDBRANCH   4   7
ENDBRANCH   1   3
BRANCH   1  26
ATOM     26  C   GLU d   1     -53.382  25.450  -2.139  0.00  0.00     0.243 C 
ATOM     27  O   GLU d   1     -52.523  26.035  -1.482  0.00  0.00    -0.271 OA
ATOM     28  N   PRO d   1     -53.272  24.149  -2.459  0.00  0.00    -0.337 N 
ATOM     29  CA  PRO d   1     -52.123  23.317  -2.075  0.00  0.00     0.091 C 
ATOM     30  CD  PRO d   1     -54.406  23.308  -2.894  0.00  0.00    -0.001 C 
ATOM     31  CB  PRO d   1     -52.747  21.938  -1.903  0.00  0.00    -0.036 C 
ATOM     32  H20 PRO d   1     -51.716  23.668  -1.115  0.00  0.00     0.087 H 
ATOM     33  CG  PRO d   1     -53.785  21.926  -2.981  0.00  0.00    -0.048 C 
ATOM     34  H21 PRO d   1     -53.203  21.828  -0.908  0.00  0.00     0.036 H 
ATOM     35  H22 PRO d   1     -52.004  21.142  -2.056  0.00  0.00     0.036 H 
ATOM     36  H23 PRO d   1     -54.537  21.145  -2.794  0.00  0.00     0.035 H 
ATOM     37  H24 PRO d   1     -53.325  21.763  -3.967  0.00  0.00     0.035 H 
ATOM     38  H25 PRO d   1     -54.788  23.633  -3.873  0.00  0.00     0.064 H 
ATOM     39  H26 PRO d   1     -55.222  23.330  -2.156  0.00  0.00     0.064 H 
BRANCH  29  40
ATOM     40  C   PRO d   1     -50.978  23.318  -3.101  0.00  0.00     0.241 C 
ATOM     41  O   PRO d   1     -51.169  23.691  -4.259  0.00  0.00    -0.271 OA
ATOM     42  N   ASJ d   1     -49.796  22.887  -2.662  0.00  0.00    -0.351 N 
ATOM     43  H27 ASJ d   1     -49.720  22.586  -1.712  0.00  0.00     0.163 HD
BRANCH  42  44
ATOM     44  CA  ASJ d   1     -48.604  22.835  -3.509  0.00  0.00     0.052 C 
ATOM     45  H28 ASJ d   1     -48.912  23.040  -4.545  0.00  0.00     0.077 H 
BRANCH  44  46
ATOM     46  C   ASJ d   1     -47.908  21.487  -3.468  0.00  0.00     0.122 C 
ATOM     47  O   ASJ d   1     -48.027  20.830  -4.727  0.00  0.00    -0.230 OA
ATOM     48  H29 ASJ d   1     -47.391  21.080  -2.600  0.00  0.00     0.095 H 
ENDBRANCH  44  46
BRANCH  44  49
ATOM     49  CB  ASJ d   1     -47.593  23.891  -3.069  0.00  0.00     0.037 C 
ATOM     50  H30 ASJ d   1     -46.579  23.494  -3.225  0.00  0.00     0.052 H 
ATOM     51  H31 ASJ d   1     -47.745  24.100  -2.000  0.00  0.00     0.052 H 
BRANCH  49  52
ATOM     52  CG  ASJ d   1     -47.731  25.182  -3.839  0.00  0.00     0.174 C 
ATOM     53  OD1 ASJ d   1     -47.238  26.220  -3.348  0.00  0.00    -0.648 OA
ATOM     54  OD2 ASJ d   1     -48.333  25.158  -4.933  0.00  0.00    -0.648 OA
ENDBRANCH  49  52
ENDBRANCH  44  49
ENDBRANCH  42  44
ENDBRANCH  29  40
ENDBRANCH   1  26
BRANCH   1  55
ATOM     55  CB  GLU d   1     -54.374  26.791  -3.993  0.00  0.00    -0.029 C 
ATOM     56  H16 GLU d   1     -53.888  26.028  -4.619  0.00  0.00     0.037 H 
ATOM     57  H17 GLU d   1     -53.697  27.649  -3.868  0.00  0.00     0.037 H 
BRANCH  55  58
ATOM     58  CG  GLU d   1     -55.622  27.272  -4.713  0.00  0.00     0.018 C 
ATOM     59  H18 GLU d   1     -56.273  27.782  -3.987  0.00  0.00     0.049 H 
ATOM     60  H19 GLU d   1     -56.148  26.399  -5.127  0.00  0.00     0.049 H 
BRANCH  58  61
ATOM     61  CD  GLU d   1     -55.310  28.235  -5.847  0.00  0.00     0.172 C 
ATOM     62  OE1 GLU d   1     -54.395  27.946  -6.654  0.00  0.00    -0.648 OA
ATOM     63  OE2 GLU d   1     -55.989  29.283  -5.935  0.00  0.00    -0.648 OA
ENDBRANCH  58  61
ENDBRANCH  55  58
ENDBRANCH   1  55
TORSDOF 16
