REMARK  19 active torsions:
REMARK  status: ('A' for Active; 'I' for Inactive)
REMARK    1  A    between atoms: N_1  and  CA_2 
REMARK    2  A    between atoms: CA_2  and  C_3 
REMARK    3  A    between atoms: CA_2  and  CB_5 
REMARK       I    between atoms: C_3  and  N_9 
REMARK    4  A    between atoms: CB_5  and  CG_6 
REMARK    5  A    between atoms: N_9  and  CA_10 
REMARK    6  A    between atoms: CA_10  and  C_11 
REMARK    7  A    between atoms: CA_10  and  CB_13 
REMARK       I    between atoms: C_11  and  N_18 
REMARK    8  A    between atoms: CB_13  and  CG_14 
REMARK    9  A    between atoms: CG_14  and  CD_15 
REMARK       I    between atoms: CD_15  and  NE2_17 
REMARK   10  A    between atoms: N_18  and  CA_19 
REMARK   11  A    between atoms: CA_19  and  C_20 
REMARK   12  A    between atoms: CA_19  and  CB_22 
REMARK       I    between atoms: C_20  and  N_26 
REMARK   13  A    between atoms: CB_22  and  CG_23 
REMARK   14  A    between atoms: CG_23  and  SD_24 
REMARK   15  A    between atoms: SD_24  and  CE_25 
REMARK   16  A    between atoms: N_26  and  CA_27 
REMARK   17  A    between atoms: CA_27  and  C_28 
REMARK   18  A    between atoms: CA_27  and  CB_30 
REMARK   19  A    between atoms: CB_30  and  CG_31 
ROOT
ATOM      1  C   GLN d   1     -52.952  25.081  -1.661  0.00  0.00     0.241 C 
ATOM      2  O   GLN d   1     -52.114  25.608  -0.925  0.00  0.00    -0.271 OA
ATOM      3  N   MET d   1     -52.843  23.831  -2.106  0.00  0.00    -0.346 N 
ATOM      4  H15 MET d   1     -53.555  23.460  -2.702  0.00  0.00     0.163 HD
ENDROOT
BRANCH   1   5
ATOM      5  CA  GLN d   1     -54.183  25.858  -2.114  0.00  0.00     0.090 C 
ATOM      6  H8  GLN d   1     -55.056  25.189  -2.111  0.00  0.00     0.087 H 
BRANCH   5   7
ATOM      7  N   GLN d   1     -54.430  26.966  -1.203  0.00  0.00    -0.346 N 
ATOM      8  C   ASP d   1     -55.573  27.086  -0.536  0.00  0.00     0.249 C 
ATOM      9  O   ASP d   1     -56.503  26.287  -0.644  0.00  0.00    -0.271 OA
ATOM     10  H7  GLN d   1     -53.719  27.657  -1.075  0.00  0.00     0.163 HD
BRANCH   8  11
ATOM     11  CA  ASP d   1     -55.693  28.294   0.385  0.00  0.00     0.185 C 
ATOM     12  H4  ASP d   1     -55.057  29.101  -0.009  0.00  0.00     0.100 H 
BRANCH  11  13
ATOM     13  N   ASP d   1     -57.081  28.761   0.516  0.00  0.00    -0.066 N 
ATOM     14  H1  ASP d   1     -57.111  29.558   1.132  0.00  0.00     0.275 HD
ATOM     15  H2  ASP d   1     -57.650  28.021   0.896  0.00  0.00     0.275 HD
ATOM     16  H3  ASP d   1     -57.434  29.024  -0.391  0.00  0.00     0.275 HD
ENDBRANCH  11  13
BRANCH  11  17
ATOM     17  CB  ASP d   1     -55.287  27.951   1.819  0.00  0.00     0.050 C 
ATOM     18  H5  ASP d   1     -54.287  27.493   1.802  0.00  0.00     0.052 H 
ATOM     19  H6  ASP d   1     -56.013  27.233   2.228  0.00  0.00     0.052 H 
BRANCH  17  20
ATOM     20  CG  ASP d   1     -55.247  29.166   2.722  0.00  0.00     0.175 C 
ATOM     21  OD1 ASP d   1     -54.594  30.161   2.345  0.00  0.00    -0.648 OA
ATOM     22  OD2 ASP d   1     -55.856  29.124   3.813  0.00  0.00    -0.648 OA
ENDBRANCH  17  20
ENDBRANCH  11  17
ENDBRANCH   8  11
ENDBRANCH   5   7
BRANCH   5  23
ATOM     23  CB  GLN d   1     -53.957  26.381  -3.534  0.00  0.00    -0.030 C 
ATOM     24  H9  GLN d   1     -53.841  25.517  -4.205  0.00  0.00     0.037 H 
ATOM     25  H10 GLN d   1     -53.032  26.976  -3.539  0.00  0.00     0.037 H 
BRANCH  23  26
ATOM     26  CG  GLN d   1     -55.080  27.247  -4.067  0.00  0.00     0.011 C 
ATOM     27  H11 GLN d   1     -55.131  28.168  -3.468  0.00  0.00     0.047 H 
ATOM     28  H12 GLN d   1     -56.027  26.695  -3.973  0.00  0.00     0.047 H 
BRANCH  26  29
ATOM     29  CD  GLN d   1     -54.877  27.623  -5.522  0.00  0.00     0.215 C 
ATOM     30  OE1 GLN d   1     -53.880  28.257  -5.885  0.00  0.00    -0.274 OA
ATOM     31  NE2 GLN d   1     -55.824  27.228  -6.369  0.00  0.00    -0.370 N 
ATOM     32  H13 GLN d   1     -55.747  27.446  -7.342  0.00  0.00     0.159 HD
ATOM     33  H14 GLN d   1     -56.613  26.713  -6.033  0.00  0.00     0.159 HD
ENDBRANCH  26  29
ENDBRANCH  23  26
ENDBRANCH   5  23
ENDBRANCH   1   5
BRANCH   3  34
ATOM     34  CA  MET d   1     -51.708  22.993  -1.742  0.00  0.00     0.090 C 
ATOM     35  H16 MET d   1     -51.248  23.417  -0.837  0.00  0.00     0.087 H 
BRANCH  34  36
ATOM     36  C   MET d   1     -50.651  22.949  -2.841  0.00  0.00     0.240 C 
ATOM     37  O   MET d   1     -50.965  23.083  -4.026  0.00  0.00    -0.271 OA
ATOM     38  N   ASJ d   1     -49.399  22.759  -2.427  0.00  0.00    -0.351 N 
ATOM     39  H24 ASJ d   1     -49.234  22.670  -1.445  0.00  0.00     0.163 HD
BRANCH  38  40
ATOM     40  CA  ASJ d   1     -48.256  22.674  -3.330  0.00  0.00     0.052 C 
ATOM     41  H25 ASJ d   1     -48.599  22.872  -4.356  0.00  0.00     0.077 H 
BRANCH  40  42
ATOM     42  C   ASJ d   1     -47.612  21.308  -3.265  0.00  0.00     0.122 C 
ATOM     43  O   ASJ d   1     -47.766  20.608  -4.490  0.00  0.00    -0.230 OA
ATOM     44  H26 ASJ d   1     -47.096  20.912  -2.391  0.00  0.00     0.095 H 
ENDBRANCH  40  42
BRANCH  40  45
ATOM     45  CB  ASJ d   1     -47.181  23.689  -2.942  0.00  0.00     0.037 C 
ATOM     46  H27 ASJ d   1     -46.198  23.283  -3.221  0.00  0.00     0.052 H 
ATOM     47  H28 ASJ d   1     -47.219  23.842  -1.853  0.00  0.00     0.052 H 
BRANCH  45  48
ATOM     48  CG  ASJ d   1     -47.361  25.023  -3.622  0.00  0.00     0.174 C 
ATOM     49  OD1 ASJ d   1     -46.942  26.039  -3.028  0.00  0.00    -0.648 OA
ATOM     50  OD2 ASJ d   1     -47.914  25.059  -4.743  0.00  0.00    -0.648 OA
ENDBRANCH  45  48
ENDBRANCH  40  45
ENDBRANCH  38  40
ENDBRANCH  34  36
BRANCH  34  51
ATOM     51  CB  MET d   1     -52.171  21.568  -1.433  0.00  0.00    -0.030 C 
ATOM     52  H17 MET d   1     -51.280  20.946  -1.264  0.00  0.00     0.037 H 
ATOM     53  H18 MET d   1     -52.723  21.189  -2.306  0.00  0.00     0.037 H 
BRANCH  51  54
ATOM     54  CG  MET d   1     -53.069  21.451  -0.216  0.00  0.00    -0.021 C 
ATOM     55  H19 MET d   1     -53.217  22.453   0.214  0.00  0.00     0.049 H 
ATOM     56  H20 MET d   1     -52.579  20.803   0.525  0.00  0.00     0.049 H 
BRANCH  54  57
ATOM     57  SD  MET d   1     -54.677  20.752  -0.627  0.00  0.00    -0.173 SA
BRANCH  57  58
ATOM     58  CE  MET d   1     -55.622  22.237  -0.909  0.00  0.00    -0.035 C 
ATOM     59  H21 MET d   1     -56.655  21.969  -1.177  0.00  0.00     0.041 H 
ATOM     60  H22 MET d   1     -55.167  22.811  -1.730  0.00  0.00     0.041 H 
ATOM     61  H23 MET d   1     -55.627  22.848   0.006  0.00  0.00     0.041 H 
ENDBRANCH  57  58
ENDBRANCH  54  57
ENDBRANCH  51  54
ENDBRANCH  34  51
ENDBRANCH   3  34
TORSDOF 19
