REMARK  19 active torsions:
REMARK  status: ('A' for Active; 'I' for Inactive)
REMARK    1  A    between atoms: N_1  and  CA_2 
REMARK    2  A    between atoms: CA_2  and  C_3 
REMARK    3  A    between atoms: CA_2  and  CB_5 
REMARK       I    between atoms: C_3  and  N_10 
REMARK    4  A    between atoms: CB_5  and  CG_6 
REMARK    5  A    between atoms: CG_6  and  CD_7 
REMARK    6  A    between atoms: N_10  and  CA_11 
REMARK    7  A    between atoms: CA_11  and  C_12 
REMARK    8  A    between atoms: CA_11  and  CB_14 
REMARK       I    between atoms: C_12  and  N_16 
REMARK    9  A    between atoms: CB_14  and  OG_15 
REMARK   10  A    between atoms: N_16  and  CA_17 
REMARK   11  A    between atoms: CA_17  and  C_18 
REMARK   12  A    between atoms: CA_17  and  CB_20 
REMARK       I    between atoms: C_18  and  N_24 
REMARK   13  A    between atoms: CB_20  and  CG_21 
REMARK   14  A    between atoms: CG_21  and  SD_22 
REMARK   15  A    between atoms: SD_22  and  CE_23 
REMARK   16  A    between atoms: N_24  and  CA_25 
REMARK   17  A    between atoms: CA_25  and  C_26 
REMARK   18  A    between atoms: CA_25  and  CB_28 
REMARK   19  A    between atoms: CB_28  and  CG_29 
ROOT
ATOM      1  C   SER d   1     -39.492  33.912 -33.578  0.00  0.00     0.243 C 
ATOM      2  O   SER d   1     -39.417  33.077 -32.676  0.00  0.00    -0.271 OA
ATOM      3  N   MET d   1     -40.640  34.234 -34.165  0.00  0.00    -0.346 N 
ATOM      4  H14 MET d   1     -40.637  34.893 -34.917  0.00  0.00     0.163 HD
ENDROOT
BRANCH   3   5
ATOM      5  CA  MET d   1     -41.905  33.647 -33.737  0.00  0.00     0.090 C 
ATOM      6  H15 MET d   1     -41.694  33.020 -32.859  0.00  0.00     0.087 H 
BRANCH   5   7
ATOM      7  C   MET d   1     -42.590  32.755 -34.770  0.00  0.00     0.240 C 
ATOM      8  O   MET d   1     -42.404  32.925 -35.978  0.00  0.00    -0.271 OA
ATOM      9  N   ASJ d   1     -43.390  31.808 -34.274  0.00  0.00    -0.351 N 
ATOM     10  H23 ASJ d   1     -43.494  31.746 -33.281  0.00  0.00     0.163 HD
BRANCH   9  11
ATOM     11  CA  ASJ d   1     -44.123  30.856 -35.111  0.00  0.00     0.052 C 
ATOM     12  H24 ASJ d   1     -43.818  31.012 -36.156  0.00  0.00     0.077 H 
BRANCH  11  13
ATOM     13  C   ASJ d   1     -45.627  31.022 -35.007  0.00  0.00     0.122 C 
ATOM     14  O   ASJ d   1     -46.194  31.422 -36.260  0.00  0.00    -0.230 OA
ATOM     15  H25 ASJ d   1     -46.202  30.858 -34.097  0.00  0.00     0.095 H 
ENDBRANCH  11  13
BRANCH  11  16
ATOM     16  CB  ASJ d   1     -43.803  29.420 -34.699  0.00  0.00     0.037 C 
ATOM     17  H26 ASJ d   1     -44.635  28.771 -35.011  0.00  0.00     0.052 H 
ATOM     18  H27 ASJ d   1     -43.700  29.383 -33.605  0.00  0.00     0.052 H 
BRANCH  16  19
ATOM     19  CG  ASJ d   1     -42.532  28.905 -35.319  0.00  0.00     0.174 C 
ATOM     20  OD1 ASJ d   1     -41.908  28.005 -34.717  0.00  0.00    -0.648 OA
ATOM     21  OD2 ASJ d   1     -42.160  29.401 -36.405  0.00  0.00    -0.648 OA
ENDBRANCH  16  19
ENDBRANCH  11  16
ENDBRANCH   9  11
ENDBRANCH   5   7
BRANCH   5  22
ATOM     22  CB  MET d   1     -42.848  34.771 -33.309  0.00  0.00    -0.030 C 
ATOM     23  H16 MET d   1     -43.801  34.327 -32.986  0.00  0.00     0.037 H 
ATOM     24  H17 MET d   1     -43.024  35.430 -34.172  0.00  0.00     0.037 H 
BRANCH  22  25
ATOM     25  CG  MET d   1     -42.289  35.605 -32.167  0.00  0.00    -0.021 C 
ATOM     26  H18 MET d   1     -41.191  35.596 -32.232  0.00  0.00     0.049 H 
ATOM     27  H19 MET d   1     -42.604  35.151 -31.216  0.00  0.00     0.049 H 
BRANCH  25  28
ATOM     28  SD  MET d   1     -42.850  37.314 -32.199  0.00  0.00    -0.173 SA
BRANCH  28  29
ATOM     29  CE  MET d   1     -41.566  38.064 -33.205  0.00  0.00    -0.035 C 
ATOM     30  H20 MET d   1     -41.772  39.138 -33.321  0.00  0.00     0.041 H 
ATOM     31  H21 MET d   1     -41.550  37.585 -34.195  0.00  0.00     0.041 H 
ATOM     32  H22 MET d   1     -40.590  37.928 -32.716  0.00  0.00     0.041 H 
ENDBRANCH  28  29
ENDBRANCH  25  28
ENDBRANCH  22  25
ENDBRANCH   5  22
ENDBRANCH   3   5
BRANCH   1  33
ATOM     33  CA  SER d   1     -38.237  34.628 -34.081  0.00  0.00     0.109 C 
ATOM     34  H10 SER d   1     -38.405  35.714 -34.035  0.00  0.00     0.090 H 
BRANCH  33  35
ATOM     35  N   SER d   1     -37.113  34.287 -33.214  0.00  0.00    -0.344 N 
ATOM     36  C   GLU d   1     -36.483  35.193 -32.468  0.00  0.00     0.249 C 
ATOM     37  O   GLU d   1     -36.770  36.391 -32.466  0.00  0.00    -0.271 OA
ATOM     38  H9  SER d   1     -36.804  33.337 -33.179  0.00  0.00     0.163 HD
BRANCH  36  39
ATOM     39  CA  GLU d   1     -35.352  34.660 -31.598  0.00  0.00     0.176 C 
ATOM     40  H4  GLU d   1     -34.916  33.792 -32.114  0.00  0.00     0.099 H 
BRANCH  39  41
ATOM     41  N   GLU d   1     -34.287  35.627 -31.299  0.00  0.00    -0.066 N 
ATOM     42  H1  GLU d   1     -33.587  35.188 -30.722  0.00  0.00     0.275 HD
ATOM     43  H2  GLU d   1     -34.678  36.417 -30.810  0.00  0.00     0.275 HD
ATOM     44  H3  GLU d   1     -33.865  35.939 -32.160  0.00  0.00     0.275 HD
ENDBRANCH  39  41
BRANCH  39  45
ATOM     45  CB  GLU d   1     -35.859  34.243 -30.219  0.00  0.00    -0.021 C 
ATOM     46  H5  GLU d   1     -36.910  33.935 -30.317  0.00  0.00     0.037 H 
ATOM     47  H6  GLU d   1     -35.793  35.113 -29.549  0.00  0.00     0.037 H 
BRANCH  45  48
ATOM     48  CG  GLU d   1     -35.085  33.100 -29.591  0.00  0.00     0.018 C 
ATOM     49  H7  GLU d   1     -34.224  32.861 -30.233  0.00  0.00     0.049 H 
ATOM     50  H8  GLU d   1     -35.745  32.223 -29.522  0.00  0.00     0.049 H 
BRANCH  48  51
ATOM     51  CD  GLU d   1     -34.579  33.437 -28.207  0.00  0.00     0.172 C 
ATOM     52  OE1 GLU d   1     -34.018  32.537 -27.544  0.00  0.00    -0.648 OA
ATOM     53  OE2 GLU d   1     -34.738  34.604 -27.786  0.00  0.00    -0.648 OA
ENDBRANCH  48  51
ENDBRANCH  45  48
ENDBRANCH  39  45
ENDBRANCH  36  39
ENDBRANCH  33  35
BRANCH  33  54
ATOM     54  CB  SER d   1     -37.939  34.243 -35.535  0.00  0.00     0.044 C 
ATOM     55  H11 SER d   1     -37.139  34.892 -35.920  0.00  0.00     0.077 H 
ATOM     56  H12 SER d   1     -38.849  34.386 -36.136  0.00  0.00     0.077 H 
BRANCH  54  57
ATOM     57  OG  SER d   1     -37.527  32.895 -35.639  0.00  0.00    -0.398 OA
ATOM     58  H13 SER d   1     -37.351  32.688 -36.549  0.00  0.00     0.209 HD
ENDBRANCH  54  57
ENDBRANCH  33  54
ENDBRANCH   1  33
TORSDOF 19
