REMARK  18 active torsions:
REMARK  status: ('A' for Active; 'I' for Inactive)
REMARK    1  A    between atoms: N_1  and  CA_2 
REMARK    2  A    between atoms: CA_2  and  C_3 
REMARK    3  A    between atoms: CA_2  and  CB_5 
REMARK       I    between atoms: C_3  and  N_9 
REMARK    4  A    between atoms: CB_5  and  CG_6 
REMARK    5  A    between atoms: N_9  and  CA_10 
REMARK    6  A    between atoms: CA_10  and  C_11 
REMARK    7  A    between atoms: CA_10  and  CB_13 
REMARK       I    between atoms: C_11  and  N_17 
REMARK    8  A    between atoms: CB_13  and  CG_14 
REMARK       I    between atoms: CG_14  and  ND2_16 
REMARK    9  A    between atoms: N_17  and  CA_18 
REMARK   10  A    between atoms: CA_18  and  C_19 
REMARK   11  A    between atoms: CA_18  and  CB_21 
REMARK       I    between atoms: C_19  and  N_25 
REMARK   12  A    between atoms: CB_21  and  CG_22 
REMARK   13  A    between atoms: CG_22  and  CD1_23 
REMARK   14  A    between atoms: CG_22  and  CD2_24 
REMARK   15  A    between atoms: N_25  and  CA_26 
REMARK   16  A    between atoms: CA_26  and  C_27 
REMARK   17  A    between atoms: CA_26  and  CB_29 
REMARK   18  A    between atoms: CB_29  and  CG_30 
ROOT
ATOM      1  C   ASN d   1     -48.735  17.164  32.956  0.00  0.00     0.241 C 
ATOM      2  O   ASN d   1     -48.226  17.532  31.900  0.00  0.00    -0.271 OA
ATOM      3  N   LEU d   1     -49.565  17.923  33.665  0.00  0.00    -0.346 N 
ATOM      4  H13 LEU d   1     -49.948  17.564  34.516  0.00  0.00     0.163 HD
ENDROOT
BRANCH   3   5
ATOM      5  CA  LEU d   1     -49.930  19.267  33.231  0.00  0.00     0.089 C 
ATOM      6  H14 LEU d   1     -49.465  19.455  32.252  0.00  0.00     0.087 H 
BRANCH   5   7
ATOM      7  C   LEU d   1     -49.423  20.322  34.220  0.00  0.00     0.240 C 
ATOM      8  O   LEU d   1     -49.477  20.119  35.437  0.00  0.00    -0.271 OA
ATOM      9  N   ASJ d   1     -48.942  21.447  33.686  0.00  0.00    -0.351 N 
ATOM     10  H24 ASJ d   1     -48.953  21.545  32.691  0.00  0.00     0.163 HD
BRANCH   9  11
ATOM     11  CA  ASJ d   1     -48.399  22.544  34.491  0.00  0.00     0.052 C 
ATOM     12  H25 ASJ d   1     -48.315  22.193  35.530  0.00  0.00     0.077 H 
BRANCH  11  13
ATOM     13  C   ASJ d   1     -49.263  23.796  34.473  0.00  0.00     0.122 C 
ATOM     14  O   ASJ d   1     -49.862  24.043  35.746  0.00  0.00    -0.230 OA
ATOM     15  H26 ASJ d   1     -49.407  24.427  33.597  0.00  0.00     0.095 H 
ENDBRANCH  11  13
BRANCH  11  16
ATOM     16  CB  ASJ d   1     -47.013  22.936  33.980  0.00  0.00     0.037 C 
ATOM     17  H27 ASJ d   1     -46.887  24.022  34.103  0.00  0.00     0.052 H 
ATOM     18  H28 ASJ d   1     -46.945  22.678  32.913  0.00  0.00     0.052 H 
BRANCH  16  19
ATOM     19  CG  ASJ d   1     -45.899  22.233  34.719  0.00  0.00     0.174 C 
ATOM     20  OD1 ASJ d   1     -44.823  22.023  34.117  0.00  0.00    -0.648 OA
ATOM     21  OD2 ASJ d   1     -46.103  21.891  35.905  0.00  0.00    -0.648 OA
ENDBRANCH  16  19
ENDBRANCH  11  16
ENDBRANCH   9  11
ENDBRANCH   5   7
BRANCH   5  22
ATOM     22  CB  LEU d   1     -51.448  19.378  33.082  0.00  0.00    -0.035 C 
ATOM     23  H15 LEU d   1     -51.672  20.399  32.741  0.00  0.00     0.037 H 
ATOM     24  H16 LEU d   1     -51.890  19.218  34.077  0.00  0.00     0.037 H 
BRANCH  22  25
ATOM     25  CG  LEU d   1     -52.133  18.409  32.113  0.00  0.00    -0.059 C 
ATOM     26  H17 LEU d   1     -51.935  17.376  32.437  0.00  0.00     0.038 H 
BRANCH  25  27
ATOM     27  CD1 LEU d   1     -53.631  18.662  32.141  0.00  0.00    -0.073 C 
ATOM     28  H18 LEU d   1     -54.133  17.971  31.448  0.00  0.00     0.028 H 
ATOM     29  H19 LEU d   1     -53.834  19.699  31.835  0.00  0.00     0.028 H 
ATOM     30  H20 LEU d   1     -54.011  18.500  33.160  0.00  0.00     0.028 H 
ENDBRANCH  25  27
BRANCH  25  31
ATOM     31  CD2 LEU d   1     -51.595  18.593  30.706  0.00  0.00    -0.073 C 
ATOM     32  H21 LEU d   1     -50.511  18.407  30.701  0.00  0.00     0.028 H 
ATOM     33  H22 LEU d   1     -51.792  19.622  30.370  0.00  0.00     0.028 H 
ATOM     34  H23 LEU d   1     -52.092  17.884  30.028  0.00  0.00     0.028 H 
ENDBRANCH  25  31
ENDBRANCH  22  25
ENDBRANCH   5  22
ENDBRANCH   3   5
BRANCH   1  35
ATOM     35  CA  ASN d   1     -48.429  15.787  33.523  0.00  0.00     0.097 C 
ATOM     36  H8  ASN d   1     -49.374  15.275  33.759  0.00  0.00     0.088 H 
BRANCH  35  37
ATOM     37  N   ASN d   1     -47.687  14.987  32.549  0.00  0.00    -0.346 N 
ATOM     38  C   ASP d   1     -48.202  13.901  31.972  0.00  0.00     0.249 C 
ATOM     39  O   ASP d   1     -49.338  13.474  32.213  0.00  0.00    -0.271 OA
ATOM     40  H7  ASN d   1     -46.758  15.265  32.306  0.00  0.00     0.163 HD
BRANCH  38  41
ATOM     41  CA  ASP d   1     -47.295  13.176  30.977  0.00  0.00     0.185 C 
ATOM     42  H4  ASP d   1     -46.255  13.254  31.326  0.00  0.00     0.100 H 
BRANCH  41  43
ATOM     43  N   ASP d   1     -47.681  11.767  30.828  0.00  0.00    -0.066 N 
ATOM     44  H1  ASP d   1     -47.066  11.318  30.168  0.00  0.00     0.275 HD
ATOM     45  H2  ASP d   1     -48.630  11.712  30.494  0.00  0.00     0.275 HD
ATOM     46  H3  ASP d   1     -47.612  11.303  31.720  0.00  0.00     0.275 HD
ENDBRANCH  41  43
BRANCH  41  47
ATOM     47  CB  ASP d   1     -47.422  13.742  29.557  0.00  0.00     0.050 C 
ATOM     48  H5  ASP d   1     -47.279  14.832  29.600  0.00  0.00     0.052 H 
ATOM     49  H6  ASP d   1     -48.431  13.519  29.179  0.00  0.00     0.052 H 
BRANCH  47  50
ATOM     50  CG  ASP d   1     -46.398  13.154  28.588  0.00  0.00     0.175 C 
ATOM     51  OD1 ASP d   1     -45.182  13.257  28.864  0.00  0.00    -0.648 OA
ATOM     52  OD2 ASP d   1     -46.804  12.598  27.544  0.00  0.00    -0.648 OA
ENDBRANCH  47  50
ENDBRANCH  41  47
ENDBRANCH  38  41
ENDBRANCH  35  37
BRANCH  35  53
ATOM     53  CB  ASN d   1     -47.613  15.949  34.803  0.00  0.00     0.036 C 
ATOM     54  H9  ASN d   1     -48.172  16.593  35.498  0.00  0.00     0.051 H 
ATOM     55  H10 ASN d   1     -46.654  16.426  34.551  0.00  0.00     0.051 H 
BRANCH  53  56
ATOM     56  CG  ASN d   1     -47.331  14.629  35.488  0.00  0.00     0.217 C 
ATOM     57  OD1 ASN d   1     -46.618  14.584  36.490  0.00  0.00    -0.274 OA
ATOM     58  ND2 ASN d   1     -47.890  13.546  34.957  0.00  0.00    -0.370 N 
ATOM     59  H11 ASN d   1     -47.735  12.649  35.371  0.00  0.00     0.159 HD
ATOM     60  H12 ASN d   1     -48.465  13.628  34.143  0.00  0.00     0.159 HD
ENDBRANCH  53  56
ENDBRANCH  35  53
ENDBRANCH   1  35
TORSDOF 18
