REMARK  17 active torsions:
REMARK  status: ('A' for Active; 'I' for Inactive)
REMARK    1  A    between atoms: N_1  and  CA_2 
REMARK    2  A    between atoms: CA_2  and  C_3 
REMARK    3  A    between atoms: CA_2  and  CB_5 
REMARK       I    between atoms: C_3  and  N_15 
REMARK    4  A    between atoms: CB_5  and  CG_6 
REMARK    5  A    between atoms: N_15  and  CA_16 
REMARK    6  A    between atoms: CA_16  and  C_17 
REMARK    7  A    between atoms: CA_16  and  CB_19 
REMARK       I    between atoms: C_17  and  N_24 
REMARK    8  A    between atoms: CB_19  and  CG_20 
REMARK    9  A    between atoms: CG_20  and  CD_21 
REMARK   10  A    between atoms: N_24  and  CA_25 
REMARK   11  A    between atoms: CA_25  and  C_26 
REMARK   12  A    between atoms: CA_25  and  CB_28 
REMARK       I    between atoms: C_26  and  N_34 
REMARK   13  A    between atoms: CB_28  and  CG_29 
REMARK   14  A    between atoms: N_34  and  CA_35 
REMARK   15  A    between atoms: CA_35  and  C_36 
REMARK   16  A    between atoms: CA_35  and  CB_38 
REMARK   17  A    between atoms: CB_38  and  CG_39 
ROOT
ATOM      1  CA  GLU d   1     -38.264  34.748 -33.965  0.00  0.00     0.090 C 
ATOM      2  H14 GLU d   1     -38.361  35.843 -33.922  0.00  0.00     0.087 H 
ENDROOT
BRANCH   1   3
ATOM      3  N   GLU d   1     -37.147  34.296 -33.093  0.00  0.00    -0.346 N 
ATOM      4  C   TRP d   1     -36.433  35.135 -32.295  0.00  0.00     0.249 C 
ATOM      5  O   TRP d   1     -36.687  36.326 -32.265  0.00  0.00    -0.271 OA
ATOM      6  H13 GLU d   1     -36.908  33.325 -33.093  0.00  0.00     0.163 HD
BRANCH   4   7
ATOM      7  CA  TRP d   1     -35.283  34.535 -31.394  0.00  0.00     0.179 C 
ATOM      8  H4  TRP d   1     -35.287  33.438 -31.468  0.00  0.00     0.099 H 
BRANCH   7   9
ATOM      9  N   TRP d   1     -34.040  35.019 -31.918  0.00  0.00    -0.066 N 
ATOM     10  H1  TRP d   1     -33.279  34.656 -31.366  0.00  0.00     0.275 HD
ATOM     11  H2  TRP d   1     -34.030  36.026 -31.883  0.00  0.00     0.275 HD
ATOM     12  H3  TRP d   1     -33.937  34.715 -32.874  0.00  0.00     0.275 HD
ENDBRANCH   7   9
BRANCH   7  13
ATOM     13  CB  TRP d   1     -35.567  34.922 -29.918  0.00  0.00    -0.004 C 
ATOM     14  H5  TRP d   1     -36.645  34.835 -29.717  0.00  0.00     0.044 H 
ATOM     15  H6  TRP d   1     -35.244  35.959 -29.742  0.00  0.00     0.044 H 
BRANCH  13  16
ATOM     16  CG  TRP d   1     -34.809  33.998 -29.001  0.00  0.00    -0.028 A 
ATOM     17  CD1 TRP d   1     -35.177  32.722 -28.710  0.00  0.00    -0.015 A 
ATOM     18  NE1 TRP d   1     -34.303  32.187 -27.789  0.00  0.00    -0.365 N 
ATOM     19  H7  TRP d   1     -36.032  32.202 -29.139  0.00  0.00     0.112 H 
ATOM     20  CE2 TRP d   1     -33.352  33.106 -27.480  0.00  0.00     0.042 A 
ATOM     21  H8  TRP d   1     -34.362  31.237 -27.396  0.00  0.00     0.165 HD
ATOM     22  CD2 TRP d   1     -33.615  34.270 -28.232  0.00  0.00    -0.002 A 
ATOM     23  CZ2 TRP d   1     -32.285  32.999 -26.582  0.00  0.00    -0.056 A 
ATOM     24  CE3 TRP d   1     -32.734  35.354 -28.042  0.00  0.00    -0.070 A 
ATOM     25  CZ3 TRP d   1     -31.681  35.242 -27.162  0.00  0.00    -0.082 A 
ATOM     26  H9  TRP d   1     -32.886  36.277 -28.590  0.00  0.00     0.084 H 
ATOM     27  CH2 TRP d   1     -31.465  34.085 -26.432  0.00  0.00    -0.081 A 
ATOM     28  H11 TRP d   1     -31.005  36.080 -27.038  0.00  0.00     0.083 H 
ATOM     29  H12 TRP d   1     -30.637  34.039 -25.734  0.00  0.00     0.083 H 
ATOM     30  H10 TRP d   1     -32.113  32.086 -26.023  0.00  0.00     0.086 H 
ENDBRANCH  13  16
ENDBRANCH   7  13
ENDBRANCH   4   7
ENDBRANCH   1   3
BRANCH   1  31
ATOM     31  C   GLU d   1     -39.530  34.079 -33.450  0.00  0.00     0.241 C 
ATOM     32  O   GLU d   1     -39.535  33.594 -32.327  0.00  0.00    -0.271 OA
ATOM     33  N   HIS d   1     -40.592  34.032 -34.250  0.00  0.00    -0.346 N 
ATOM     34  H19 HIS d   1     -40.553  34.445 -35.160  0.00  0.00     0.163 HD
BRANCH  33  35
ATOM     35  CA  HIS d   1     -41.814  33.376 -33.795  0.00  0.00     0.094 C 
ATOM     36  H20 HIS d   1     -41.513  32.614 -33.061  0.00  0.00     0.088 H 
BRANCH  35  37
ATOM     37  C   HIS d   1     -42.586  32.654 -34.899  0.00  0.00     0.241 C 
ATOM     38  O   HIS d   1     -42.408  32.935 -36.086  0.00  0.00    -0.271 OA
ATOM     39  N   ASJ d   1     -43.436  31.713 -34.488  0.00  0.00    -0.351 N 
ATOM     40  H26 ASJ d   1     -43.518  31.538 -33.507  0.00  0.00     0.163 HD
BRANCH  39  41
ATOM     41  CA  ASJ d   1     -44.254  30.925 -35.409  0.00  0.00     0.052 C 
ATOM     42  H27 ASJ d   1     -43.971  31.196 -36.437  0.00  0.00     0.077 H 
BRANCH  41  43
ATOM     43  C   ASJ d   1     -45.744  31.188 -35.225  0.00  0.00     0.122 C 
ATOM     44  O   ASJ d   1     -46.298  31.796 -36.407  0.00  0.00    -0.230 OA
ATOM     45  H28 ASJ d   1     -46.310  30.950 -34.326  0.00  0.00     0.095 H 
ENDBRANCH  41  43
BRANCH  41  46
ATOM     46  CB  ASJ d   1     -44.018  29.424 -35.204  0.00  0.00     0.037 C 
ATOM     47  H29 ASJ d   1     -44.673  28.869 -35.892  0.00  0.00     0.052 H 
ATOM     48  H30 ASJ d   1     -44.275  29.167 -34.166  0.00  0.00     0.052 H 
BRANCH  46  49
ATOM     49  CG  ASJ d   1     -42.582  29.009 -35.463  0.00  0.00     0.174 C 
ATOM     50  OD1 ASJ d   1     -42.058  28.177 -34.696  0.00  0.00    -0.648 OA
ATOM     51  OD2 ASJ d   1     -41.978  29.507 -36.434  0.00  0.00    -0.648 OA
ENDBRANCH  46  49
ENDBRANCH  41  46
ENDBRANCH  39  41
ENDBRANCH  35  37
BRANCH  35  52
ATOM     52  CB  HIS d   1     -42.735  34.378 -33.078  0.00  0.00     0.004 C 
ATOM     53  H21 HIS d   1     -42.201  34.772 -32.201  0.00  0.00     0.046 H 
ATOM     54  H22 HIS d   1     -43.637  33.843 -32.748  0.00  0.00     0.046 H 
BRANCH  52  55
ATOM     55  CG  HIS d   1     -43.160  35.536 -33.928  0.00  0.00     0.053 A 
ATOM     56  ND1 HIS d   1     -42.316  36.579 -34.244  0.00  0.00    -0.247 NA
ATOM     57  CE1 HIS d   1     -42.960  37.450 -35.001  0.00  0.00     0.064 A 
ATOM     58  NE2 HIS d   1     -44.191  37.009 -35.189  0.00  0.00    -0.359 N 
ATOM     59  H24 HIS d   1     -42.546  38.374 -35.402  0.00  0.00     0.143 H 
ATOM     60  CD2 HIS d   1     -44.342  35.813 -34.528  0.00  0.00     0.002 A 
ATOM     61  H25 HIS d   1     -44.919  37.484 -35.741  0.00  0.00     0.166 HD
ATOM     62  H23 HIS d   1     -45.243  35.203 -34.493  0.00  0.00     0.114 H 
ENDBRANCH  52  55
ENDBRANCH  35  52
ENDBRANCH  33  35
ENDBRANCH   1  31
BRANCH   1  63
ATOM     63  CB  GLU d   1     -38.023  34.303 -35.412  0.00  0.00    -0.029 C 
ATOM     64  H15 GLU d   1     -38.581  34.977 -36.079  0.00  0.00     0.037 H 
ATOM     65  H16 GLU d   1     -38.403  33.277 -35.526  0.00  0.00     0.037 H 
BRANCH  63  66
ATOM     66  CG  GLU d   1     -36.560  34.320 -35.830  0.00  0.00     0.018 C 
ATOM     67  H17 GLU d   1     -35.989  33.678 -35.143  0.00  0.00     0.049 H 
ATOM     68  H18 GLU d   1     -36.186  35.352 -35.763  0.00  0.00     0.049 H 
BRANCH  66  69
ATOM     69  CD  GLU d   1     -36.353  33.819 -37.248  0.00  0.00     0.172 C 
ATOM     70  OE1 GLU d   1     -35.181  33.654 -37.659  0.00  0.00    -0.648 OA
ATOM     71  OE2 GLU d   1     -37.364  33.593 -37.950  0.00  0.00    -0.648 OA
ENDBRANCH  66  69
ENDBRANCH  63  66
ENDBRANCH   1  63
TORSDOF 17
