REMARK  8 active torsions:
REMARK  status: ('A' for Active; 'I' for Inactive)
REMARK    1  A    between atoms: C12_3  and  C15_4 
REMARK    2  A    between atoms: C9_7  and  C8_8 
REMARK       I    between atoms: C8_8  and  N2_10 
REMARK       I    between atoms: N2_10  and  C7_11 
REMARK       I    between atoms: C7_11  and  N1_13 
REMARK    3  A    between atoms: N1_13  and  C1_14 
REMARK    4  A    between atoms: C5_16  and  C6_17 
REMARK    5  A    between atoms: C6_17  and  O6_18 
REMARK    6  A    between atoms: C4_19  and  O4_20 
REMARK    7  A    between atoms: C3_21  and  O3_22 
REMARK    8  A    between atoms: C2_23  and  O2_24 
ROOT
ATOM      1  C1  F68 d   1      33.213  22.908  28.017  0.00  0.00     0.135 C 
ATOM      2  O5  F68 d   1      33.153  21.465  28.255  0.00  0.00    -0.354 OA
ATOM      3  C5  F68 d   1      32.117  20.833  27.486  0.00  0.00     0.088 C 
ATOM      4  C4  F68 d   1      32.339  21.030  25.964  0.00  0.00     0.089 C 
ATOM      5  C3  F68 d   1      32.581  22.514  25.621  0.00  0.00     0.091 C 
ATOM      6  C2  F68 d   1      33.633  23.136  26.557  0.00  0.00     0.104 C 
ATOM      7  H10 F68 d   1      32.210  23.335  28.167  0.00  0.00     0.122 H 
ATOM      8  H11 F68 d   1      31.157  21.307  27.740  0.00  0.00     0.090 H 
ATOM      9  H15 F68 d   1      33.218  20.446  25.655  0.00  0.00     0.091 H 
ATOM     10  H17 F68 d   1      31.636  23.059  25.757  0.00  0.00     0.091 H 
ATOM     11  H19 F68 d   1      34.595  22.631  26.384  0.00  0.00     0.093 H 
ENDROOT
BRANCH   1  12
ATOM     12  N1  F68 d   1      34.146  23.570  28.970  0.00  0.00    -0.314 N 
ATOM     13  C7  F68 d   1      33.704  24.117  30.106  0.00  0.00     0.325 C 
ATOM     14  N2  F68 d   1      34.639  24.688  30.889  0.00  0.00    -0.275 N 
ATOM     15  O7  F68 d   1      32.506  24.096  30.402  0.00  0.00    -0.247 OA
ATOM     16  C8  F68 d   1      34.415  25.289  32.073  0.00  0.00     0.259 C 
ATOM     17  H8  F68 d   1      35.584  24.663  30.562  0.00  0.00     0.173 HD
ATOM     18  O8  F68 d   1      33.311  25.410  32.611  0.00  0.00    -0.267 OA
ATOM     19  H9  F68 d   1      35.122  23.606  28.756  0.00  0.00     0.167 HD
BRANCH  16  20
ATOM     20  C9  F68 d   1      35.672  25.865  32.755  0.00  0.00     0.032 A 
ATOM     21  C10 F68 d   1      36.711  26.381  31.978  0.00  0.00    -0.067 A 
ATOM     22  C11 F68 d   1      37.846  26.911  32.590  0.00  0.00    -0.076 A 
ATOM     23  H1  F68 d   1      36.635  26.369  30.897  0.00  0.00     0.085 H 
ATOM     24  C12 F68 d   1      37.940  26.933  33.984  0.00  0.00    -0.062 A 
ATOM     25  H2  F68 d   1      38.654  27.305  31.985  0.00  0.00     0.084 H 
ATOM     26  C13 F68 d   1      36.898  26.431  34.768  0.00  0.00    -0.076 A 
ATOM     27  C14 F68 d   1      35.764  25.899  34.150  0.00  0.00    -0.067 A 
ATOM     28  H6  F68 d   1      36.969  26.454  35.849  0.00  0.00     0.084 H 
ATOM     29  H7  F68 d   1      34.952  25.511  34.754  0.00  0.00     0.085 H 
BRANCH  24  30
ATOM     30  C15 F68 d   1      39.189  27.522  34.645  0.00  0.00    -0.051 C 
ATOM     31  H3  F68 d   1      39.090  27.456  35.739  0.00  0.00     0.033 H 
ATOM     32  H4  F68 d   1      39.298  28.576  34.349  0.00  0.00     0.033 H 
ATOM     33  H5  F68 d   1      40.076  26.957  34.322  0.00  0.00     0.033 H 
ENDBRANCH  24  30
ENDBRANCH  16  20
ENDBRANCH   1  12
BRANCH   6  34
ATOM     34  O2  F68 d   1      33.810  24.540  26.299  0.00  0.00    -0.389 OA
ATOM     35  H20 F68 d   1      32.985  24.992  26.433  0.00  0.00     0.210 HD
ENDBRANCH   6  34
BRANCH   3  36
ATOM     36  C6  F68 d   1      32.046  19.357  27.917  0.00  0.00     0.043 C 
ATOM     37  H12 F68 d   1      31.112  18.915  27.541  0.00  0.00     0.078 H 
ATOM     38  H13 F68 d   1      32.062  19.300  29.015  0.00  0.00     0.078 H 
BRANCH  36  39
ATOM     39  O6  F68 d   1      33.160  18.625  27.390  0.00  0.00    -0.398 OA
ATOM     40  H14 F68 d   1      33.968  19.003  27.715  0.00  0.00     0.209 HD
ENDBRANCH  36  39
ENDBRANCH   3  36
BRANCH   5  41
ATOM     41  O3  F68 d   1      32.982  22.638  24.253  0.00  0.00    -0.390 OA
ATOM     42  H18 F68 d   1      33.129  23.554  24.049  0.00  0.00     0.210 HD
ENDBRANCH   5  41
BRANCH   4  43
ATOM     43  O4  F68 d   1      31.189  20.562  25.254  0.00  0.00    -0.390 OA
ATOM     44  H16 F68 d   1      30.425  21.054  25.531  0.00  0.00     0.210 HD
ENDBRANCH   4  43
TORSDOF 8
