REMARK  8 active torsions:
REMARK  status: ('A' for Active; 'I' for Inactive)
REMARK    1  A    between atoms: C15_6  and  C12_7 
REMARK    2  A    between atoms: C9_12  and  C8_13 
REMARK       I    between atoms: C8_13  and  N2_15 
REMARK       I    between atoms: N2_15  and  C7_16 
REMARK       I    between atoms: C7_16  and  N1_18 
REMARK    3  A    between atoms: N1_18  and  C1_19 
REMARK    4  A    between atoms: C5_21  and  C6_22 
REMARK    5  A    between atoms: C6_22  and  O6_23 
REMARK    6  A    between atoms: C4_24  and  O4_25 
REMARK    7  A    between atoms: C3_26  and  O3_27 
REMARK    8  A    between atoms: C2_28  and  O2_29 
ROOT
ATOM      1  C8  F59 d   1      34.173  25.250  32.250  0.00  0.00     0.259 C 
ATOM      2  O8  F59 d   1      33.005  25.460  32.583  0.00  0.00    -0.267 OA
ATOM      3  N2  F59 d   1      34.530  24.613  31.121  0.00  0.00    -0.275 N 
ATOM      4  C7  F59 d   1      33.647  24.134  30.219  0.00  0.00     0.325 C 
ATOM      5  O7  F59 d   1      32.425  24.234  30.362  0.00  0.00    -0.247 OA
ATOM      6  N1  F59 d   1      34.160  23.534  29.139  0.00  0.00    -0.314 N 
ATOM      7  H10 F59 d   1      35.505  24.487  30.939  0.00  0.00     0.173 HD
ATOM      8  H11 F59 d   1      35.151  23.465  29.026  0.00  0.00     0.167 HD
ENDROOT
BRANCH   6   9
ATOM      9  C1  F59 d   1      33.248  22.970  28.106  0.00  0.00     0.135 C 
ATOM     10  O5  F59 d   1      33.162  21.535  28.335  0.00  0.00    -0.354 OA
ATOM     11  C5  F59 d   1      32.139  20.905  27.549  0.00  0.00     0.088 C 
ATOM     12  C4  F59 d   1      32.398  21.114  26.037  0.00  0.00     0.089 C 
ATOM     13  H13 F59 d   1      31.174  21.377  27.784  0.00  0.00     0.090 H 
ATOM     14  C3  F59 d   1      32.636  22.599  25.707  0.00  0.00     0.091 C 
ATOM     15  H17 F59 d   1      33.285  20.534  25.742  0.00  0.00     0.091 H 
ATOM     16  C2  F59 d   1      33.693  23.207  26.655  0.00  0.00     0.104 C 
ATOM     17  H19 F59 d   1      31.692  23.147  25.841  0.00  0.00     0.091 H 
ATOM     18  H21 F59 d   1      34.652  22.695  26.488  0.00  0.00     0.093 H 
ATOM     19  H12 F59 d   1      32.255  23.424  28.237  0.00  0.00     0.122 H 
BRANCH  11  20
ATOM     20  C6  F59 d   1      32.064  19.435  27.983  0.00  0.00     0.043 C 
ATOM     21  H14 F59 d   1      31.112  19.005  27.639  0.00  0.00     0.078 H 
ATOM     22  H15 F59 d   1      32.116  19.379  29.080  0.00  0.00     0.078 H 
BRANCH  20  23
ATOM     23  O6  F59 d   1      33.148  18.686  27.422  0.00  0.00    -0.398 OA
ATOM     24  H16 F59 d   1      33.972  19.053  27.719  0.00  0.00     0.209 HD
ENDBRANCH  20  23
ENDBRANCH  11  20
BRANCH  12  25
ATOM     25  O4  F59 d   1      31.271  20.659  25.309  0.00  0.00    -0.390 OA
ATOM     26  H18 F59 d   1      30.504  21.152  25.574  0.00  0.00     0.210 HD
ENDBRANCH  12  25
BRANCH  14  27
ATOM     27  O3  F59 d   1      33.047  22.721  24.347  0.00  0.00    -0.390 OA
ATOM     28  H20 F59 d   1      33.194  23.637  24.143  0.00  0.00     0.210 HD
ENDBRANCH  14  27
BRANCH  16  29
ATOM     29  O2  F59 d   1      33.882  24.608  26.412  0.00  0.00    -0.389 OA
ATOM     30  H22 F59 d   1      33.060  25.065  26.547  0.00  0.00     0.210 HD
ENDBRANCH  16  29
ENDBRANCH   6   9
BRANCH   1  31
ATOM     31  C9  F59 d   1      35.327  25.711  33.177  0.00  0.00     0.032 A 
ATOM     32  C14 F59 d   1      35.056  25.836  34.540  0.00  0.00    -0.067 A 
ATOM     33  C13 F59 d   1      36.048  26.242  35.439  0.00  0.00    -0.071 A 
ATOM     34  H7  F59 d   1      34.061  25.615  34.908  0.00  0.00     0.085 H 
ATOM     35  C12 F59 d   1      37.335  26.536  34.986  0.00  0.00    -0.026 A 
ATOM     36  H6  F59 d   1      35.816  26.329  36.494  0.00  0.00     0.084 H 
ATOM     37  C11 F59 d   1      37.619  26.411  33.617  0.00  0.00    -0.071 A 
ATOM     38  C10 F59 d   1      36.619  26.002  32.718  0.00  0.00    -0.067 A 
ATOM     39  H8  F59 d   1      38.615  26.631  33.251  0.00  0.00     0.084 H 
ATOM     40  H9  F59 d   1      36.849  25.911  31.663  0.00  0.00     0.085 H 
BRANCH  35  41
ATOM     41  C15 F59 d   1      38.306  26.939  35.915  0.00  0.00    -0.026 A 
ATOM     42  C16 F59 d   1      39.634  26.509  35.800  0.00  0.00    -0.072 A 
ATOM     43  C17 F59 d   1      40.588  26.913  36.740  0.00  0.00    -0.082 A 
ATOM     44  H1  F59 d   1      39.923  25.861  34.980  0.00  0.00     0.084 H 
ATOM     45  C18 F59 d   1      40.220  27.740  37.802  0.00  0.00    -0.083 A 
ATOM     46  H2  F59 d   1      41.616  26.583  36.643  0.00  0.00     0.083 H 
ATOM     47  C19 F59 d   1      38.897  28.163  37.928  0.00  0.00    -0.082 A 
ATOM     48  H3  F59 d   1      40.961  28.053  38.528  0.00  0.00     0.083 H 
ATOM     49  C20 F59 d   1      37.945  27.761  36.992  0.00  0.00    -0.072 A 
ATOM     50  H4  F59 d   1      38.609  28.804  38.753  0.00  0.00     0.083 H 
ATOM     51  H5  F59 d   1      36.917  28.087  37.098  0.00  0.00     0.084 H 
ENDBRANCH  35  41
ENDBRANCH   1  31
TORSDOF 8
