REMARK  9 active torsions:
REMARK  status: ('A' for Active; 'I' for Inactive)
REMARK    1  A    between atoms: C5_7  and  N1_8 
REMARK    2  A    between atoms: N1_8  and  C6_9 
REMARK    3  A    between atoms: C9_18  and  N11_19 
REMARK       I    between atoms: N11_19  and  C10_20 
REMARK    4  A    between atoms: C10_20  and  C11_22 
REMARK    5  A    between atoms: C11_22  and  C51_23 
REMARK    6  A    between atoms: C51_23  and  C61_24 
REMARK    7  A    between atoms: C61_24  and  N63_25 
REMARK    8  A    between atoms: N63_25  and  C65_26 
REMARK    9  A    between atoms: N63_25  and  C67_27 
ROOT
ATOM      1  C6  SR2 d   1       8.431   4.779   6.966  0.00  0.00     0.142 A 
ATOM      2  C7  SR2 d   1       9.326   5.503   6.123  0.00  0.00     0.041 A 
ATOM      3  C8  SR2 d   1       8.979   6.524   5.240  0.00  0.00    -0.041 A 
ATOM      4  N3  SR2 d   1       8.961   3.816   7.732  0.00  0.00    -0.224 NA
ATOM      5  C19 SR2 d   1      10.237   3.535   7.720  0.00  0.00     0.089 A 
ATOM      6  N2  SR2 d   1      11.089   4.180   6.970  0.00  0.00    -0.241 NA
ATOM      7  C18 SR2 d   1      10.679   5.157   6.171  0.00  0.00     0.072 A 
ATOM      8  C17 SR2 d   1      11.614   5.802   5.396  0.00  0.00    -0.052 A 
ATOM      9  C13 SR2 d   1      11.241   6.797   4.540  0.00  0.00    -0.055 A 
ATOM     10  C9  SR2 d   1       9.930   7.202   4.469  0.00  0.00     0.035 A 
ATOM     11  H6  SR2 d   1       7.936   6.803   5.147  0.00  0.00     0.088 H 
ATOM     12  H7  SR2 d   1      10.602   2.737   8.356  0.00  0.00     0.146 H 
ATOM     13  H8  SR2 d   1      12.658   5.517   5.466  0.00  0.00     0.087 H 
ATOM     14  H9  SR2 d   1      11.985   7.272   3.911  0.00  0.00     0.087 H 
ENDROOT
BRANCH  10  15
ATOM     15  N11 SR2 d   1       9.643   8.140   3.565  0.00  0.00    -0.327 N 
ATOM     16  C10 SR2 d   1       8.424   8.064   3.072  0.00  0.00     0.222 C 
ATOM     17  O61 SR2 d   1       7.578   7.408   3.646  0.00  0.00    -0.273 OA
ATOM     18  H10 SR2 d   1      10.298   8.842   3.285  0.00  0.00     0.169 HD
BRANCH  16  19
ATOM     19  C11 SR2 d   1       7.925   8.927   1.914  0.00  0.00     0.011 C 
ATOM     20  H11 SR2 d   1       7.851   9.946   2.322  0.00  0.00     0.047 H 
ATOM     21  H12 SR2 d   1       6.918   8.550   1.684  0.00  0.00     0.047 H 
BRANCH  19  22
ATOM     22  C51 SR2 d   1       8.616   9.085   0.559  0.00  0.00    -0.035 C 
ATOM     23  H13 SR2 d   1       8.395   8.243  -0.113  0.00  0.00     0.036 H 
ATOM     24  H14 SR2 d   1       9.705   9.193   0.666  0.00  0.00     0.036 H 
BRANCH  22  25
ATOM     25  C61 SR2 d   1       7.963  10.378   0.080  0.00  0.00     0.083 C 
ATOM     26  H15 SR2 d   1       8.751  11.062  -0.270  0.00  0.00     0.075 H 
ATOM     27  H16 SR2 d   1       7.428  10.836   0.925  0.00  0.00     0.075 H 
BRANCH  25  28
ATOM     28  N63 SR2 d   1       7.014  10.160  -1.011  0.00  0.00    -0.079 N 
ATOM     29  H17 SR2 d   1       7.579   9.887  -1.800  0.00  0.00     0.278 HD
BRANCH  28  30
ATOM     30  C65 SR2 d   1       6.039   9.107  -0.829  0.00  0.00     0.066 C 
ATOM     31  H18 SR2 d   1       5.392   9.049  -1.716  0.00  0.00     0.068 H 
ATOM     32  H19 SR2 d   1       5.426   9.324   0.058  0.00  0.00     0.068 H 
ATOM     33  H20 SR2 d   1       6.558   8.147  -0.691  0.00  0.00     0.068 H 
ENDBRANCH  28  30
BRANCH  28  34
ATOM     34  C67 SR2 d   1       6.300  11.358  -1.397  0.00  0.00     0.066 C 
ATOM     35  H21 SR2 d   1       7.016  12.180  -1.544  0.00  0.00     0.068 H 
ATOM     36  H22 SR2 d   1       5.586  11.630  -0.606  0.00  0.00     0.068 H 
ATOM     37  H23 SR2 d   1       5.756  11.174  -2.335  0.00  0.00     0.068 H 
ENDBRANCH  28  34
ENDBRANCH  25  28
ENDBRANCH  22  25
ENDBRANCH  19  22
ENDBRANCH  16  19
ENDBRANCH  10  15
BRANCH   1  38
ATOM     38  N1  SR2 d   1       7.095   4.956   7.054  0.00  0.00    -0.340 N 
ATOM     39  H5  SR2 d   1       6.659   5.510   6.303  0.00  0.00     0.167 HD
BRANCH  38  40
ATOM     40  C5  SR2 d   1       6.252   4.485   8.026  0.00  0.00     0.035 A 
ATOM     41  C4  SR2 d   1       5.157   3.661   7.727  0.00  0.00    -0.040 A 
ATOM     42  C3  SR2 d   1       4.265   3.191   8.707  0.00  0.00     0.013 A 
ATOM     43  H1  SR2 d   1       4.991   3.374   6.695  0.00  0.00     0.089 H 
ATOM     44 BRR1 SR2 d   1       2.764   2.045   8.331  0.00  0.00    -0.051 Br
ATOM     45  C22 SR2 d   1       4.516   3.580  10.025  0.00  0.00    -0.066 A 
ATOM     46  C21 SR2 d   1       5.584   4.387  10.387  0.00  0.00    -0.080 A 
ATOM     47  H2  SR2 d   1       3.844   3.235  10.802  0.00  0.00     0.085 H 
ATOM     48  C20 SR2 d   1       6.420   4.829   9.364  0.00  0.00    -0.057 A 
ATOM     49  H3  SR2 d   1       5.761   4.662  11.421  0.00  0.00     0.083 H 
ATOM     50  H4  SR2 d   1       7.248   5.478   9.625  0.00  0.00     0.086 H 
ENDBRANCH  38  40
ENDBRANCH   1  38
TORSDOF 9
