REMARK  18 active torsions:
REMARK  status: ('A' for Active; 'I' for Inactive)
REMARK    1  A    between atoms: N1_3  and  C1_4 
REMARK       I    between atoms: C21_26  and  N1_3 
REMARK    2  A    between atoms: C1_4  and  C2_5 
REMARK    3  A    between atoms: C1_4  and  C7_12 
REMARK    4  A    between atoms: C2_5  and  C3_6 
REMARK    5  A    between atoms: C2_5  and  O1_7 
REMARK    6  A    between atoms: C5_10  and  O4_31 
REMARK    7  A    between atoms: C7_12  and  C8_13 
REMARK    8  A    between atoms: C14_19  and  C20_25 
REMARK    9  A    between atoms: C16_21  and  C22_28 
REMARK   10  A    between atoms: C18_23  and  C21_26 
REMARK       I    between atoms: C20_25  and  N3_29 
REMARK   11  A    between atoms: N3_29  and  C30_39 
REMARK   12  A    between atoms: N3_29  and  C33_42 
REMARK   13  A    between atoms: O4_31  and  C23_32 
REMARK   14  A    between atoms: C23_32  and  C24_33 
REMARK   15  A    between atoms: C30_39  and  C31_40 
REMARK   16  A    between atoms: C31_40  and  C32_41 
REMARK   17  A    between atoms: C33_42  and  C34_43 
REMARK   18  A    between atoms: C34_43  and  C35_44 
ROOT
ATOM      1  C1  CS7 d   1      22.526  10.803  23.168  0.00  0.00     0.043 C 
ATOM      2  H2  CS7 d   1      21.677  11.402  22.807  0.00  0.00     0.077 H 
ENDROOT
BRANCH   1   3
ATOM      3  N1  CS7 d   1      23.631  11.730  23.500  0.00  0.00    -0.349 N 
ATOM      4  C21 CS7 d   1      23.408  13.068  23.586  0.00  0.00     0.252 C 
ATOM      5  O2  CS7 d   1      22.302  13.565  23.416  0.00  0.00    -0.268 OA
ATOM      6  H1  CS7 d   1      24.549  11.369  23.662  0.00  0.00     0.163 HD
BRANCH   4   7
ATOM      7  C18 CS7 d   1      24.592  13.872  23.894  0.00  0.00     0.033 A 
ATOM      8  C17 CS7 d   1      24.447  15.091  24.617  0.00  0.00    -0.062 A 
ATOM      9  C16 CS7 d   1      25.595  15.888  24.910  0.00  0.00    -0.060 A 
ATOM     10  H19 CS7 d   1      23.465  15.413  24.945  0.00  0.00     0.085 H 
ATOM     11  C15 CS7 d   1      26.884  15.472  24.482  0.00  0.00    -0.062 A 
ATOM     12  C14 CS7 d   1      27.034  14.257  23.748  0.00  0.00     0.033 A 
ATOM     13  H18 CS7 d   1      27.753  16.077  24.713  0.00  0.00     0.085 H 
ATOM     14  C19 CS7 d   1      25.880  13.456  23.461  0.00  0.00    -0.052 A 
ATOM     15  H20 CS7 d   1      25.991  12.528  22.911  0.00  0.00     0.086 H 
BRANCH   9  16
ATOM     16  C22 CS7 d   1      25.440  17.147  25.663  0.00  0.00    -0.051 C 
ATOM     17  H21 CS7 d   1      26.424  17.620  25.792  0.00  0.00     0.033 H 
ATOM     18  H22 CS7 d   1      25.004  16.933  26.650  0.00  0.00     0.033 H 
ATOM     19  H23 CS7 d   1      24.776  17.827  25.108  0.00  0.00     0.033 H 
ENDBRANCH   9  16
BRANCH  12  20
ATOM     20  C20 CS7 d   1      28.367  13.808  23.330  0.00  0.00     0.253 C 
ATOM     21  N3  CS7 d   1      28.615  13.594  22.011  0.00  0.00    -0.348 N 
ATOM     22  O3  CS7 d   1      29.239  13.617  24.160  0.00  0.00    -0.267 OA
BRANCH  21  23
ATOM     23  C30 CS7 d   1      29.958  13.132  21.676  0.00  0.00    -0.002 C 
ATOM     24  H31 CS7 d   1      30.603  13.221  22.562  0.00  0.00     0.064 H 
ATOM     25  H32 CS7 d   1      30.363  13.753  20.864  0.00  0.00     0.064 H 
BRANCH  23  26
ATOM     26  C31 CS7 d   1      29.923  11.654  21.218  0.00  0.00    -0.053 C 
ATOM     27  H33 CS7 d   1      30.958  11.287  21.153  0.00  0.00     0.034 H 
ATOM     28  H34 CS7 d   1      29.455  11.610  20.223  0.00  0.00     0.034 H 
BRANCH  26  29
ATOM     29  C32 CS7 d   1      29.136  10.726  22.167  0.00  0.00    -0.075 C 
ATOM     30  H35 CS7 d   1      29.157   9.698  21.776  0.00  0.00     0.027 H 
ATOM     31  H36 CS7 d   1      28.094  11.071  22.236  0.00  0.00     0.027 H 
ATOM     32  H37 CS7 d   1      29.596  10.747  23.166  0.00  0.00     0.027 H 
ENDBRANCH  26  29
ENDBRANCH  23  26
ENDBRANCH  21  23
BRANCH  21  33
ATOM     33  C33 CS7 d   1      27.649  13.806  20.937  0.00  0.00    -0.002 C 
ATOM     34  H38 CS7 d   1      26.700  14.166  21.361  0.00  0.00     0.064 H 
ATOM     35  H39 CS7 d   1      27.477  12.859  20.404  0.00  0.00     0.064 H 
BRANCH  33  36
ATOM     36  C34 CS7 d   1      28.202  14.847  19.965  0.00  0.00    -0.053 C 
ATOM     37  H40 CS7 d   1      27.381  15.202  19.325  0.00  0.00     0.034 H 
ATOM     38  H41 CS7 d   1      28.974  14.372  19.341  0.00  0.00     0.034 H 
BRANCH  36  39
ATOM     39  C35 CS7 d   1      28.824  16.054  20.682  0.00  0.00    -0.075 C 
ATOM     40  H42 CS7 d   1      29.204  16.768  19.936  0.00  0.00     0.027 H 
ATOM     41  H43 CS7 d   1      29.653  15.714  21.320  0.00  0.00     0.027 H 
ATOM     42  H44 CS7 d   1      28.061  16.545  21.303  0.00  0.00     0.027 H 
ENDBRANCH  36  39
ENDBRANCH  33  36
ENDBRANCH  21  33
ENDBRANCH  12  20
ENDBRANCH   4   7
ENDBRANCH   1   3
BRANCH   1  43
ATOM     43  C2  CS7 d   1      22.043   9.972  24.381  0.00  0.00     0.083 C 
ATOM     44  H3  CS7 d   1      22.889   9.371  24.745  0.00  0.00     0.089 H 
BRANCH  43  45
ATOM     45  C3  CS7 d   1      21.542  10.850  25.540  0.00  0.00     0.131 C 
ATOM     46  N2  CS7 d   1      21.233   9.977  26.690  0.00  0.00    -0.066 N 
ATOM     47  C4  CS7 d   1      20.400  10.827  27.564  0.00  0.00     0.106 C 
ATOM     48  H6  CS7 d   1      22.077   9.694  27.163  0.00  0.00     0.277 HD
ATOM     49  H7  CS7 d   1      20.724   9.159  26.393  0.00  0.00     0.277 HD
ATOM     50  C5  CS7 d   1      19.592  11.739  26.631  0.00  0.00     0.064 C 
ATOM     51  H8  CS7 d   1      21.036  11.430  28.229  0.00  0.00     0.079 H 
ATOM     52  H9  CS7 d   1      19.724  10.205  28.169  0.00  0.00     0.079 H 
ATOM     53  C6  CS7 d   1      20.251  11.626  25.250  0.00  0.00    -0.010 C 
ATOM     54  H10 CS7 d   1      19.599  12.781  26.982  0.00  0.00     0.086 H 
ATOM     55  H11 CS7 d   1      19.607  11.073  24.550  0.00  0.00     0.040 H 
ATOM     56  H12 CS7 d   1      20.473  12.621  24.837  0.00  0.00     0.040 H 
ATOM     57  H4  CS7 d   1      22.336  11.563  25.805  0.00  0.00     0.088 H 
BRANCH  50  58
ATOM     58  O4  CS7 d   1      18.268  11.236  26.594  0.00  0.00    -0.380 OA
BRANCH  58  59
ATOM     59  C23 CS7 d   1      17.460  12.088  25.799  0.00  0.00     0.044 C 
ATOM     60  H24 CS7 d   1      18.105  12.746  25.199  0.00  0.00     0.081 H 
ATOM     61  H25 CS7 d   1      16.821  12.699  26.454  0.00  0.00     0.081 H 
BRANCH  59  62
ATOM     62  C24 CS7 d   1      16.584  11.259  24.871  0.00  0.00    -0.035 A 
ATOM     63  C25 CS7 d   1      16.543   9.834  24.968  0.00  0.00    -0.075 A 
ATOM     64  C26 CS7 d   1      15.715   9.081  24.088  0.00  0.00    -0.082 A 
ATOM     65  H26 CS7 d   1      17.144   9.325  25.713  0.00  0.00     0.084 H 
ATOM     66  C27 CS7 d   1      14.926   9.749  23.110  0.00  0.00    -0.083 A 
ATOM     67  H27 CS7 d   1      15.686   8.000  24.163  0.00  0.00     0.083 H 
ATOM     68  C28 CS7 d   1      14.964  11.169  23.011  0.00  0.00    -0.082 A 
ATOM     69  H28 CS7 d   1      14.295   9.176  22.440  0.00  0.00     0.083 H 
ATOM     70  C29 CS7 d   1      15.793  11.923  23.893  0.00  0.00    -0.075 A 
ATOM     71  H29 CS7 d   1      14.363  11.677  22.265  0.00  0.00     0.083 H 
ATOM     72  H30 CS7 d   1      15.820  13.004  23.818  0.00  0.00     0.084 H 
ENDBRANCH  59  62
ENDBRANCH  58  59
ENDBRANCH  50  58
ENDBRANCH  43  45
BRANCH  43  73
ATOM     73  O1  CS7 d   1      20.988   9.087  23.961  0.00  0.00    -0.391 OA
ATOM     74  H5  CS7 d   1      21.297   8.545  23.245  0.00  0.00     0.210 HD
ENDBRANCH  43  73
ENDBRANCH   1  43
BRANCH   1  75
ATOM     75  C7  CS7 d   1      22.975   9.851  22.042  0.00  0.00    -0.020 C 
ATOM     76  H13 CS7 d   1      22.097   9.318  21.647  0.00  0.00     0.043 H 
ATOM     77  H14 CS7 d   1      23.693   9.123  22.448  0.00  0.00     0.043 H 
BRANCH  75  78
ATOM     78  C8  CS7 d   1      23.632  10.627  20.922  0.00  0.00    -0.050 A 
ATOM     79  C9  CS7 d   1      24.975  10.341  20.536  0.00  0.00    -0.039 A 
ATOM     80  C10 CS7 d   1      25.583  11.083  19.476  0.00  0.00     0.119 A 
ATOM     81  H15 CS7 d   1      25.533   9.563  21.045  0.00  0.00     0.089 H 
ATOM     82  F1  CS7 d   1      26.837  10.826  19.103  0.00  0.00    -0.206 F 
ATOM     83  C11 CS7 d   1      24.856  12.102  18.811  0.00  0.00    -0.009 A 
ATOM     84  C12 CS7 d   1      23.520  12.385  19.198  0.00  0.00     0.119 A 
ATOM     85  H16 CS7 d   1      25.320  12.664  18.008  0.00  0.00     0.092 H 
ATOM     86  F2  CS7 d   1      22.841  13.344  18.570  0.00  0.00    -0.206 F 
ATOM     87  C13 CS7 d   1      22.904  11.652  20.250  0.00  0.00    -0.039 A 
ATOM     88  H17 CS7 d   1      21.883  11.872  20.540  0.00  0.00     0.089 H 
ENDBRANCH  75  78
ENDBRANCH   1  75
TORSDOF 18
