REMARK  17 active torsions:
REMARK  status: ('A' for Active; 'I' for Inactive)
REMARK    1  A    between atoms: C2_2  and  C30_16 
REMARK    2  A    between atoms: C14_17  and  C4_4 
REMARK    3  A    between atoms: C6_6  and  C7_7 
REMARK       I    between atoms: C7_7  and  N1_8 
REMARK    4  A    between atoms: N1_8  and  C8_10 
REMARK    5  A    between atoms: N1_8  and  C11_13 
REMARK    6  A    between atoms: C8_10  and  C9_11 
REMARK    7  A    between atoms: C9_11  and  C10_12 
REMARK    8  A    between atoms: C11_13  and  C12_14 
REMARK    9  A    between atoms: C12_14  and  C13_15 
REMARK       I    between atoms: N2_18  and  C14_17 
REMARK   10  A    between atoms: C15_20  and  N2_18 
REMARK   11  A    between atoms: C16_21  and  C15_20 
REMARK   12  A    between atoms: C15_20  and  C17_22 
REMARK   13  A    between atoms: C16_21  and  O3_23 
REMARK   14  A    between atoms: C27_36  and  C16_21 
REMARK   15  A    between atoms: C17_22  and  C19_24 
REMARK   16  A    between atoms: C26_32  and  O4_37 
REMARK   17  A    between atoms: O4_37  and  C31_38 
ROOT
ATOM      1  C15 CS9 d   1      22.576  10.762  23.109  0.00  0.00     0.043 C 
ATOM      2  H22 CS9 d   1      21.696  11.332  22.776  0.00  0.00     0.077 H 
ENDROOT
BRANCH   1   3
ATOM      3  N2  CS9 d   1      23.666  11.717  23.431  0.00  0.00    -0.349 N 
ATOM      4  C14 CS9 d   1      23.465  13.071  23.551  0.00  0.00     0.252 C 
ATOM      5  O2  CS9 d   1      22.345  13.571  23.402  0.00  0.00    -0.268 OA
ATOM      6  H21 CS9 d   1      24.590  11.358  23.567  0.00  0.00     0.163 HD
BRANCH   4   7
ATOM      7  C4  CS9 d   1      24.670  13.878  23.859  0.00  0.00     0.033 A 
ATOM      8  C3  CS9 d   1      24.542  15.093  24.595  0.00  0.00    -0.062 A 
ATOM      9  C2  CS9 d   1      25.691  15.892  24.896  0.00  0.00    -0.060 A 
ATOM     10  H2  CS9 d   1      23.563  15.415  24.930  0.00  0.00     0.085 H 
ATOM     11  C1  CS9 d   1      26.966  15.465  24.454  0.00  0.00    -0.062 A 
ATOM     12  C6  CS9 d   1      27.108  14.264  23.719  0.00  0.00     0.033 A 
ATOM     13  H1  CS9 d   1      27.841  16.063  24.680  0.00  0.00     0.085 H 
ATOM     14  C5  CS9 d   1      25.952  13.476  23.430  0.00  0.00    -0.052 A 
ATOM     15  H3  CS9 d   1      26.062  12.553  22.872  0.00  0.00     0.086 H 
BRANCH   9  16
ATOM     16  C30 CS9 d   1      25.561  17.179  25.676  0.00  0.00    -0.051 C 
ATOM     17  H18 CS9 d   1      26.554  17.636  25.798  0.00  0.00     0.033 H 
ATOM     18  H19 CS9 d   1      25.131  16.966  26.666  0.00  0.00     0.033 H 
ATOM     19  H20 CS9 d   1      24.903  17.872  25.132  0.00  0.00     0.033 H 
ENDBRANCH   9  16
BRANCH  12  20
ATOM     20  C7  CS9 d   1      28.446  13.811  23.268  0.00  0.00     0.253 C 
ATOM     21  N1  CS9 d   1      28.760  13.612  21.902  0.00  0.00    -0.348 N 
ATOM     22  O1  CS9 d   1      29.290  13.593  24.128  0.00  0.00    -0.267 OA
BRANCH  21  23
ATOM     23  C8  CS9 d   1      27.846  13.841  20.741  0.00  0.00    -0.002 C 
ATOM     24  H4  CS9 d   1      26.845  14.092  21.121  0.00  0.00     0.064 H 
ATOM     25  H5  CS9 d   1      27.791  12.918  20.145  0.00  0.00     0.064 H 
BRANCH  23  26
ATOM     26  C9  CS9 d   1      28.338  14.991  19.834  0.00  0.00    -0.053 C 
ATOM     27  H6  CS9 d   1      27.547  15.224  19.106  0.00  0.00     0.034 H 
ATOM     28  H7  CS9 d   1      29.239  14.654  19.301  0.00  0.00     0.034 H 
BRANCH  26  29
ATOM     29  C10 CS9 d   1      28.682  16.276  20.610  0.00  0.00    -0.075 C 
ATOM     30  H8  CS9 d   1      29.024  17.049  19.906  0.00  0.00     0.027 H 
ATOM     31  H9  CS9 d   1      29.480  16.063  21.336  0.00  0.00     0.027 H 
ATOM     32  H10 CS9 d   1      27.788  16.634  21.142  0.00  0.00     0.027 H 
ENDBRANCH  26  29
ENDBRANCH  23  26
ENDBRANCH  21  23
BRANCH  21  33
ATOM     33  C11 CS9 d   1      30.137  13.138  21.592  0.00  0.00    -0.002 C 
ATOM     34  H11 CS9 d   1      30.743  13.182  22.509  0.00  0.00     0.064 H 
ATOM     35  H12 CS9 d   1      30.577  13.798  20.830  0.00  0.00     0.064 H 
BRANCH  33  36
ATOM     36  C12 CS9 d   1      30.142  11.676  21.055  0.00  0.00    -0.053 C 
ATOM     37  H13 CS9 d   1      31.186  11.335  21.001  0.00  0.00     0.034 H 
ATOM     38  H14 CS9 d   1      29.705  11.681  20.045  0.00  0.00     0.034 H 
BRANCH  36  39
ATOM     39  C13 CS9 d   1      29.350  10.667  21.917  0.00  0.00    -0.075 C 
ATOM     40  H15 CS9 d   1      29.411   9.668  21.461  0.00  0.00     0.027 H 
ATOM     41  H16 CS9 d   1      28.297  10.980  21.974  0.00  0.00     0.027 H 
ATOM     42  H17 CS9 d   1      29.778  10.634  22.930  0.00  0.00     0.027 H 
ENDBRANCH  36  39
ENDBRANCH  33  36
ENDBRANCH  21  33
ENDBRANCH  12  20
ENDBRANCH   4   7
ENDBRANCH   1   3
BRANCH   1  43
ATOM     43  C16 CS9 d   1      22.162   9.920  24.333  0.00  0.00     0.083 C 
ATOM     44  H23 CS9 d   1      23.030   9.321  24.646  0.00  0.00     0.089 H 
BRANCH  43  45
ATOM     45  O3  CS9 d   1      21.106   9.064  23.954  0.00  0.00    -0.391 OA
ATOM     46  H26 CS9 d   1      21.398   8.494  23.253  0.00  0.00     0.210 HD
ENDBRANCH  43  45
BRANCH  43  47
ATOM     47  C27 CS9 d   1      21.669  10.745  25.552  0.00  0.00     0.131 C 
ATOM     48  N3  CS9 d   1      21.256   9.883  26.665  0.00  0.00    -0.066 N 
ATOM     49  C18 CS9 d   1      20.464  10.780  27.511  0.00  0.00     0.106 C 
ATOM     50  H33 CS9 d   1      20.698   9.111  26.336  0.00  0.00     0.277 HD
ATOM     51  H34 CS9 d   1      22.057   9.530  27.164  0.00  0.00     0.277 HD
ATOM     52  C26 CS9 d   1      19.527  11.456  26.514  0.00  0.00     0.070 C 
ATOM     53  H31 CS9 d   1      19.897  10.214  28.265  0.00  0.00     0.079 H 
ATOM     54  H32 CS9 d   1      21.106  11.519  28.013  0.00  0.00     0.079 H 
ATOM     55  C20 CS9 d   1      20.441  11.642  25.279  0.00  0.00    -0.010 C 
ATOM     56  H30 CS9 d   1      19.137  12.420  26.873  0.00  0.00     0.086 H 
ATOM     57  H35 CS9 d   1      20.745  12.694  25.178  0.00  0.00     0.040 H 
ATOM     58  H36 CS9 d   1      19.924  11.321  24.363  0.00  0.00     0.040 H 
ATOM     59  H37 CS9 d   1      22.506  11.382  25.876  0.00  0.00     0.088 H 
BRANCH  52  60
ATOM     60  O4  CS9 d   1      18.455  10.521  26.300  0.00  0.00    -0.344 OA
BRANCH  60  61
ATOM     61  C31 CS9 d   1      17.472  10.812  25.338  0.00  0.00     0.069 A 
ATOM     62  C32 CS9 d   1      17.002  12.123  24.974  0.00  0.00    -0.051 A 
ATOM     63  C33 CS9 d   1      16.007  12.268  23.985  0.00  0.00    -0.080 A 
ATOM     64  H38 CS9 d   1      17.413  13.000  25.461  0.00  0.00     0.087 H 
ATOM     65  C34 CS9 d   1      15.467  11.127  23.346  0.00  0.00    -0.083 A 
ATOM     66  H39 CS9 d   1      15.655  13.257  23.714  0.00  0.00     0.083 H 
ATOM     67  C35 CS9 d   1      15.923   9.830  23.698  0.00  0.00    -0.080 A 
ATOM     68  H40 CS9 d   1      14.703  11.244  22.586  0.00  0.00     0.083 H 
ATOM     69  C36 CS9 d   1      16.920   9.678  24.688  0.00  0.00    -0.051 A 
ATOM     70  H41 CS9 d   1      15.507   8.957  23.208  0.00  0.00     0.083 H 
ATOM     71  H42 CS9 d   1      17.266   8.686  24.953  0.00  0.00     0.087 H 
ENDBRANCH  60  61
ENDBRANCH  52  60
ENDBRANCH  43  47
ENDBRANCH   1  43
BRANCH   1  72
ATOM     72  C17 CS9 d   1      23.063   9.861  21.936  0.00  0.00    -0.020 C 
ATOM     73  H24 CS9 d   1      22.200   9.306  21.539  0.00  0.00     0.043 H 
ATOM     74  H25 CS9 d   1      23.808   9.151  22.325  0.00  0.00     0.043 H 
BRANCH  72  75
ATOM     75  C19 CS9 d   1      23.692  10.650  20.805  0.00  0.00    -0.050 A 
ATOM     76  C21 CS9 d   1      25.030  10.379  20.413  0.00  0.00    -0.039 A 
ATOM     77  C22 CS9 d   1      25.611  11.120  19.356  0.00  0.00     0.119 A 
ATOM     78  H27 CS9 d   1      25.602   9.610  20.920  0.00  0.00     0.089 H 
ATOM     79  C23 CS9 d   1      24.910  12.131  18.668  0.00  0.00    -0.009 A 
ATOM     80  F2  CS9 d   1      26.862  10.852  19.005  0.00  0.00    -0.206 F 
ATOM     81  C24 CS9 d   1      23.581  12.388  19.073  0.00  0.00     0.119 A 
ATOM     82  H28 CS9 d   1      25.372  12.689  17.861  0.00  0.00     0.092 H 
ATOM     83  C25 CS9 d   1      22.965  11.670  20.121  0.00  0.00    -0.039 A 
ATOM     84  F1  CS9 d   1      22.888  13.338  18.444  0.00  0.00    -0.206 F 
ATOM     85  H29 CS9 d   1      21.943  11.893  20.405  0.00  0.00     0.089 H 
ENDBRANCH  72  75
ENDBRANCH   1  72
TORSDOF 17
