REMARK  11 active torsions:
REMARK  status: ('A' for Active; 'I' for Inactive)
REMARK    1  A    between atoms: O3_1  and  C3_2 
REMARK    2  A    between atoms: C2_3  and  O2_4 
REMARK    3  A    between atoms: C10_6  and  C25_7 
REMARK    4  A    between atoms: C19_13  and  C29_14 
REMARK    5  A    between atoms: C20_15  and  C30_16 
REMARK    6  A    between atoms: C17_19  and  C28_20 
REMARK    7  A    between atoms: C14_25  and  C27_26 
REMARK    8  A    between atoms: C8_27  and  C26_28 
REMARK    9  A    between atoms: C4_32  and  C24_33 
REMARK   10  A    between atoms: C4_32  and  C23_34 
REMARK   11  A    between atoms: C23_34  and  O23_35 
ROOT
ATOM      1  C3  0AS d   1      25.201  -3.224  54.477  0.00  0.00     0.069 C 
ATOM      2  C2  0AS d   1      26.451  -3.989  54.000  0.00  0.00     0.062 C 
ATOM      3  C1  0AS d   1      27.713  -3.105  54.028  0.00  0.00    -0.031 C 
ATOM      4  C10 0AS d   1      27.573  -1.821  53.180  0.00  0.00    -0.029 C 
ATOM      5  C9  0AS d   1      28.767  -0.874  53.528  0.00  0.00    -0.023 C 
ATOM      6  C11 0AS d   1      30.152  -1.530  53.246  0.00  0.00    -0.101 C 
ATOM      7  C12 0AS d   1      31.201  -0.613  53.308  0.00  0.00    -0.101 C 
ATOM      8  C13 0AS d   1      31.134   0.764  53.555  0.00  0.00    -0.025 C 
ATOM      9  C18 0AS d   1      32.478   1.549  53.550  0.00  0.00    -0.026 C 
ATOM     10  C19 0AS d   1      33.183   1.446  54.943  0.00  0.00    -0.049 C 
ATOM     11  C20 0AS d   1      34.170   2.585  55.318  0.00  0.00    -0.054 C 
ATOM     12  C21 0AS d   1      33.838   3.962  54.710  0.00  0.00    -0.060 C 
ATOM     13  C22 0AS d   1      33.494   3.875  53.214  0.00  0.00    -0.048 C 
ATOM     14  C17 0AS d   1      32.269   2.981  52.960  0.00  0.00     0.053 C 
ATOM     15  C16 0AS d   1      31.034   3.672  53.587  0.00  0.00    -0.047 C 
ATOM     16  C15 0AS d   1      29.729   2.911  53.309  0.00  0.00    -0.056 C 
ATOM     17  C14 0AS d   1      29.749   1.449  53.805  0.00  0.00    -0.029 C 
ATOM     18  C8  0AS d   1      28.672   0.621  53.033  0.00  0.00    -0.029 C 
ATOM     19  C7  0AS d   1      27.263   1.212  53.343  0.00  0.00    -0.057 C 
ATOM     20  C6  0AS d   1      26.101   0.297  52.926  0.00  0.00    -0.059 C 
ATOM     21  C5  0AS d   1      26.257  -1.076  53.620  0.00  0.00    -0.035 C 
ATOM     22  C4  0AS d   1      24.944  -1.936  53.658  0.00  0.00     0.010 C 
ATOM     23  H2  0AS d   1      25.369  -2.924  55.522  0.00  0.00     0.088 H 
ATOM     24  H3  0AS d   1      26.281  -4.325  52.967  0.00  0.00     0.086 H 
ATOM     25  H5  0AS d   1      28.559  -3.691  53.639  0.00  0.00     0.038 H 
ATOM     26  H6  0AS d   1      27.915  -2.816  55.070  0.00  0.00     0.038 H 
ATOM     27  H10 0AS d   1      28.721  -0.787  54.624  0.00  0.00     0.048 H 
ATOM     28  H11 0AS d   1      30.286  -2.588  53.025  0.00  0.00     0.077 H 
ATOM     29  H12 0AS d   1      32.198  -1.019  53.144  0.00  0.00     0.077 H 
ATOM     30  H13 0AS d   1      31.235   0.591  54.637  0.00  0.00     0.048 H 
ATOM     31  H14 0AS d   1      33.146   1.034  52.844  0.00  0.00     0.043 H 
ATOM     32  H15 0AS d   1      32.383   1.462  55.698  0.00  0.00     0.040 H 
ATOM     33  H19 0AS d   1      35.155   2.292  54.925  0.00  0.00     0.040 H 
ATOM     34  H23 0AS d   1      34.709   4.622  54.834  0.00  0.00     0.033 H 
ATOM     35  H24 0AS d   1      32.977   4.386  55.246  0.00  0.00     0.033 H 
ATOM     36  H25 0AS d   1      34.357   3.458  52.674  0.00  0.00     0.035 H 
ATOM     37  H26 0AS d   1      33.280   4.887  52.839  0.00  0.00     0.035 H 
ATOM     38  H27 0AS d   1      30.947   4.686  53.169  0.00  0.00     0.035 H 
ATOM     39  H28 0AS d   1      31.180   3.736  54.675  0.00  0.00     0.035 H 
ATOM     40  H29 0AS d   1      29.553   2.908  52.223  0.00  0.00     0.034 H 
ATOM     41  H30 0AS d   1      28.905   3.438  53.812  0.00  0.00     0.034 H 
ATOM     42  H37 0AS d   1      27.162   2.167  52.807  0.00  0.00     0.034 H 
ATOM     43  H38 0AS d   1      27.192   1.390  54.426  0.00  0.00     0.034 H 
ATOM     44  H39 0AS d   1      26.114   0.161  51.835  0.00  0.00     0.033 H 
ATOM     45  H40 0AS d   1      25.147   0.754  53.227  0.00  0.00     0.033 H 
ATOM     46  H41 0AS d   1      26.433  -0.829  54.677  0.00  0.00     0.042 H 
ENDROOT
BRANCH  22  47
ATOM     47  C24 0AS d   1      24.422  -2.282  52.253  0.00  0.00    -0.064 C 
ATOM     48  H42 0AS d   1      23.505  -2.883  52.340  0.00  0.00     0.028 H 
ATOM     49  H43 0AS d   1      25.186  -2.857  51.709  0.00  0.00     0.028 H 
ATOM     50  H44 0AS d   1      24.202  -1.354  51.705  0.00  0.00     0.028 H 
ENDBRANCH  22  47
BRANCH  22  51
ATOM     51  C23 0AS d   1      23.822  -1.130  54.343  0.00  0.00     0.026 C 
ATOM     52  H45 0AS d   1      22.937  -1.774  54.453  0.00  0.00     0.075 H 
ATOM     53  H46 0AS d   1      23.570  -0.265  53.713  0.00  0.00     0.075 H 
BRANCH  51  54
ATOM     54  O23 0AS d   1      24.215  -0.663  55.632  0.00  0.00    -0.400 OA
ATOM     55  H47 0AS d   1      24.429  -1.405  56.185  0.00  0.00     0.209 HD
ENDBRANCH  51  54
ENDBRANCH  22  51
BRANCH   1  56
ATOM     56  O3  0AS d   1      24.063  -4.093  54.441  0.00  0.00    -0.392 OA
ATOM     57  H1  0AS d   1      23.294  -3.619  54.736  0.00  0.00     0.210 HD
ENDBRANCH   1  56
BRANCH   2  58
ATOM     58  O2  0AS d   1      26.661  -5.129  54.833  0.00  0.00    -0.393 OA
ATOM     59  H4  0AS d   1      25.903  -5.700  54.784  0.00  0.00     0.210 HD
ENDBRANCH   2  58
BRANCH   4  60
ATOM     60  C25 0AS d   1      27.574  -2.200  51.683  0.00  0.00    -0.068 C 
ATOM     61  H7  0AS d   1      27.474  -1.289  51.074  0.00  0.00     0.028 H 
ATOM     62  H8  0AS d   1      26.730  -2.874  51.475  0.00  0.00     0.028 H 
ATOM     63  H9  0AS d   1      28.518  -2.706  51.434  0.00  0.00     0.028 H 
ENDBRANCH   4  60
BRANCH  18  64
ATOM     64  C26 0AS d   1      28.885   0.774  51.508  0.00  0.00    -0.068 C 
ATOM     65  H34 0AS d   1      28.124   0.189  50.971  0.00  0.00     0.028 H 
ATOM     66  H35 0AS d   1      29.887   0.407  51.239  0.00  0.00     0.028 H 
ATOM     67  H36 0AS d   1      28.796   1.835  51.230  0.00  0.00     0.028 H 
ENDBRANCH  18  64
BRANCH  17  68
ATOM     68  C27 0AS d   1      29.462   1.441  55.324  0.00  0.00    -0.068 C 
ATOM     69  H31 0AS d   1      30.232   2.029  55.846  0.00  0.00     0.028 H 
ATOM     70  H32 0AS d   1      29.478   0.406  55.695  0.00  0.00     0.028 H 
ATOM     71  H33 0AS d   1      28.473   1.883  55.513  0.00  0.00     0.028 H 
ENDBRANCH  17  68
BRANCH  10  72
ATOM     72  C29 0AS d   1      33.914   0.098  55.053  0.00  0.00    -0.072 C 
ATOM     73  H16 0AS d   1      34.409   0.028  56.033  0.00  0.00     0.028 H 
ATOM     74  H17 0AS d   1      34.668   0.024  54.256  0.00  0.00     0.028 H 
ATOM     75  H18 0AS d   1      33.188  -0.722  54.949  0.00  0.00     0.028 H 
ENDBRANCH  10  72
BRANCH  14  76
ATOM     76  C28 0AS d   1      32.046   2.892  51.430  0.00  0.00     0.182 C 
ATOM     77  O29 0AS d   1      31.537   3.890  50.870  0.00  0.00    -0.647 OA
ATOM     78  O28 0AS d   1      32.383   1.836  50.844  0.00  0.00    -0.647 OA
ENDBRANCH  14  76
BRANCH  11  79
ATOM     79  C30 0AS d   1      34.293   2.711  56.843  0.00  0.00    -0.073 C 
ATOM     80  H20 0AS d   1      34.995   3.521  57.089  0.00  0.00     0.028 H 
ATOM     81  H21 0AS d   1      34.666   1.764  57.260  0.00  0.00     0.028 H 
ATOM     82  H22 0AS d   1      33.306   2.938  57.273  0.00  0.00     0.028 H 
ENDBRANCH  11  79
TORSDOF 11
