REMARK  10 active torsions:
REMARK  status: ('A' for Active; 'I' for Inactive)
REMARK    1  A    between atoms: O3_1  and  C3_2 
REMARK    2  A    between atoms: C4_3  and  C23_4 
REMARK    3  A    between atoms: C4_3  and  C24_5 
REMARK    4  A    between atoms: C8_9  and  C26_10 
REMARK    5  A    between atoms: C14_11  and  C27_12 
REMARK    6  A    between atoms: C17_15  and  C28_16 
REMARK    7  A    between atoms: C20_21  and  C29_22 
REMARK    8  A    between atoms: C20_21  and  C30_23 
REMARK    9  A    between atoms: C10_30  and  C25_31 
REMARK   10  A    between atoms: C2_33  and  O2_34 
ROOT
ATOM      1  C3  0MA d   1      25.317  -2.895  54.520  0.00  0.00     0.067 C 
ATOM      2  C4  0MA d   1      24.961  -1.568  53.805  0.00  0.00    -0.015 C 
ATOM      3  C5  0MA d   1      26.245  -0.657  53.742  0.00  0.00    -0.038 C 
ATOM      4  C6  0MA d   1      26.021   0.756  53.137  0.00  0.00    -0.059 C 
ATOM      5  C7  0MA d   1      27.184   1.680  53.546  0.00  0.00    -0.057 C 
ATOM      6  C8  0MA d   1      28.602   1.156  53.167  0.00  0.00    -0.028 C 
ATOM      7  C14 0MA d   1      29.697   1.899  53.997  0.00  0.00    -0.013 C 
ATOM      8  C15 0MA d   1      29.722   3.417  53.676  0.00  0.00    -0.053 C 
ATOM      9  C16 0MA d   1      31.064   4.113  53.997  0.00  0.00    -0.047 C 
ATOM     10  C17 0MA d   1      32.234   3.464  53.237  0.00  0.00     0.056 C 
ATOM     11  C22 0MA d   1      33.545   4.261  53.457  0.00  0.00    -0.047 C 
ATOM     12  C21 0MA d   1      34.321   3.961  54.773  0.00  0.00    -0.058 C 
ATOM     13  C20 0MA d   1      34.421   2.477  55.210  0.00  0.00    -0.047 C 
ATOM     14  C19 0MA d   1      33.021   1.844  55.127  0.00  0.00    -0.051 C 
ATOM     15  C18 0MA d   1      32.411   1.991  53.712  0.00  0.00    -0.014 C 
ATOM     16  C13 0MA d   1      31.079   1.232  53.648  0.00  0.00    -0.069 C 
ATOM     17  C12 0MA d   1      31.172  -0.102  53.249  0.00  0.00    -0.099 C 
ATOM     18  C11 0MA d   1      30.125  -1.003  53.093  0.00  0.00    -0.045 C 
ATOM     19  C9  0MA d   1      28.757  -0.392  53.520  0.00  0.00    -0.036 C 
ATOM     20  C10 0MA d   1      27.552  -1.330  53.186  0.00  0.00    -0.033 C 
ATOM     21  C1  0MA d   1      27.795  -2.660  53.947  0.00  0.00    -0.031 C 
ATOM     22  C2  0MA d   1      26.570  -3.591  53.951  0.00  0.00     0.061 C 
ATOM     23  H2  0MA d   1      25.520  -2.654  55.574  0.00  0.00     0.088 H 
ATOM     24  H9  0MA d   1      26.474  -0.466  54.801  0.00  0.00     0.042 H 
ATOM     25  H10 0MA d   1      25.074   1.170  53.513  0.00  0.00     0.033 H 
ATOM     26  H11 0MA d   1      25.979   0.683  52.040  0.00  0.00     0.033 H 
ATOM     27  H12 0MA d   1      27.149   1.811  54.638  0.00  0.00     0.034 H 
ATOM     28  H13 0MA d   1      27.037   2.653  53.055  0.00  0.00     0.034 H 
ATOM     29  H20 0MA d   1      28.931   3.906  54.263  0.00  0.00     0.034 H 
ATOM     30  H21 0MA d   1      29.515   3.546  52.603  0.00  0.00     0.034 H 
ATOM     31  H22 0MA d   1      31.255   4.039  55.078  0.00  0.00     0.035 H 
ATOM     32  H23 0MA d   1      30.995   5.172  53.709  0.00  0.00     0.035 H 
ATOM     33  H24 0MA d   1      33.291   5.331  53.454  0.00  0.00     0.035 H 
ATOM     34  H25 0MA d   1      34.217   4.041  52.614  0.00  0.00     0.035 H 
ATOM     35  H26 0MA d   1      33.824   4.513  55.584  0.00  0.00     0.034 H 
ATOM     36  H27 0MA d   1      35.346   4.339  54.647  0.00  0.00     0.034 H 
ATOM     37  H34 0MA d   1      32.361   2.341  55.853  0.00  0.00     0.035 H 
ATOM     38  H35 0MA d   1      33.098   0.775  55.373  0.00  0.00     0.035 H 
ATOM     39  H36 0MA d   1      33.106   1.510  53.008  0.00  0.00     0.049 H 
ATOM     40  H37 0MA d   1      32.172  -0.477  53.037  0.00  0.00     0.077 H 
ATOM     41  H38 0MA d   1      30.326  -1.890  53.712  0.00  0.00     0.039 H 
ATOM     42  H39 0MA d   1      30.066  -1.299  52.035  0.00  0.00     0.039 H 
ATOM     43  H40 0MA d   1      28.790  -0.398  54.620  0.00  0.00     0.042 H 
ATOM     44  H44 0MA d   1      28.057  -2.423  54.989  0.00  0.00     0.038 H 
ATOM     45  H45 0MA d   1      28.633  -3.188  53.469  0.00  0.00     0.038 H 
ATOM     46  H46 0MA d   1      26.360  -3.904  52.917  0.00  0.00     0.086 H 
ENDROOT
BRANCH   2  47
ATOM     47  C23 0MA d   1      23.900  -0.854  54.647  0.00  0.00    -0.067 C 
ATOM     48  H3  0MA d   1      23.626   0.095  54.163  0.00  0.00     0.028 H 
ATOM     49  H4  0MA d   1      24.303  -0.651  55.650  0.00  0.00     0.028 H 
ATOM     50  H5  0MA d   1      23.009  -1.493  54.733  0.00  0.00     0.028 H 
ENDBRANCH   2  47
BRANCH   2  51
ATOM     51  C24 0MA d   1      24.378  -1.835  52.406  0.00  0.00    -0.067 C 
ATOM     52  H6  0MA d   1      25.129  -2.348  51.788  0.00  0.00     0.028 H 
ATOM     53  H7  0MA d   1      24.105  -0.880  51.934  0.00  0.00     0.028 H 
ATOM     54  H8  0MA d   1      23.483  -2.468  52.496  0.00  0.00     0.028 H 
ENDBRANCH   2  51
BRANCH   1  55
ATOM     55  O3  0MA d   1      24.216  -3.811  54.474  0.00  0.00    -0.392 OA
ATOM     56  H1  0MA d   1      23.464  -3.423  54.906  0.00  0.00     0.210 HD
ENDBRANCH   1  55
BRANCH  22  57
ATOM     57  O2  0MA d   1      26.870  -4.742  54.740  0.00  0.00    -0.393 OA
ATOM     58  H47 0MA d   1      26.119  -5.323  54.748  0.00  0.00     0.210 HD
ENDBRANCH  22  57
BRANCH  20  59
ATOM     59  C25 0MA d   1      27.514  -1.656  51.672  0.00  0.00    -0.068 C 
ATOM     60  H41 0MA d   1      26.660  -2.316  51.460  0.00  0.00     0.028 H 
ATOM     61  H42 0MA d   1      28.448  -2.160  51.382  0.00  0.00     0.028 H 
ATOM     62  H43 0MA d   1      27.408  -0.723  51.099  0.00  0.00     0.028 H 
ENDBRANCH  20  59
BRANCH   6  63
ATOM     63  C26 0MA d   1      28.811   1.415  51.660  0.00  0.00    -0.068 C 
ATOM     64  H14 0MA d   1      28.035   0.887  51.086  0.00  0.00     0.028 H 
ATOM     65  H15 0MA d   1      29.803   1.048  51.359  0.00  0.00     0.028 H 
ATOM     66  H16 0MA d   1      28.744   2.495  51.461  0.00  0.00     0.028 H 
ENDBRANCH   6  63
BRANCH   7  67
ATOM     67  C27 0MA d   1      29.467   1.731  55.517  0.00  0.00    -0.065 C 
ATOM     68  H17 0MA d   1      30.255   2.266  56.068  0.00  0.00     0.028 H 
ATOM     69  H18 0MA d   1      29.498   0.663  55.777  0.00  0.00     0.028 H 
ATOM     70  H19 0MA d   1      28.485   2.145  55.787  0.00  0.00     0.028 H 
ENDBRANCH   7  67
BRANCH  10  71
ATOM     71  C28 0MA d   1      31.892   3.513  51.723  0.00  0.00     0.182 C 
ATOM     72  O28 0MA d   1      32.152   2.512  51.014  0.00  0.00    -0.647 OA
ATOM     73  O29 0MA d   1      31.371   4.568  51.299  0.00  0.00    -0.647 OA
ENDBRANCH  10  71
BRANCH  13  74
ATOM     74  C29 0MA d   1      35.413   1.678  54.351  0.00  0.00    -0.069 C 
ATOM     75  H28 0MA d   1      35.445   0.636  54.702  0.00  0.00     0.028 H 
ATOM     76  H29 0MA d   1      36.414   2.125  54.436  0.00  0.00     0.028 H 
ATOM     77  H30 0MA d   1      35.089   1.701  53.300  0.00  0.00     0.028 H 
ENDBRANCH  13  74
BRANCH  13  78
ATOM     78  C30 0MA d   1      34.885   2.406  56.665  0.00  0.00    -0.069 C 
ATOM     79  H31 0MA d   1      34.188   2.973  57.300  0.00  0.00     0.028 H 
ATOM     80  H32 0MA d   1      35.893   2.839  56.750  0.00  0.00     0.028 H 
ATOM     81  H33 0MA d   1      34.908   1.356  56.992  0.00  0.00     0.028 H 
ENDBRANCH  13  78
TORSDOF 10
