REMARK  7 active torsions:
REMARK  status: ('A' for Active; 'I' for Inactive)
REMARK    1  A    between atoms: C9_7  and  C8_8 
REMARK       I    between atoms: C8_8  and  N2_10 
REMARK       I    between atoms: N2_10  and  C7_11 
REMARK       I    between atoms: C7_11  and  N1_13 
REMARK    2  A    between atoms: N1_13  and  C1_14 
REMARK    3  A    between atoms: C5_16  and  C6_17 
REMARK    4  A    between atoms: C6_17  and  O6_18 
REMARK    5  A    between atoms: C4_19  and  O4_20 
REMARK    6  A    between atoms: C3_21  and  O3_22 
REMARK    7  A    between atoms: C2_23  and  O2_24 
ROOT
ATOM      1  C1  F55 d   1      33.387  22.928  28.025  0.00  0.00     0.135 C 
ATOM      2  O5  F55 d   1      33.352  21.500  28.253  0.00  0.00    -0.354 OA
ATOM      3  C5  F55 d   1      32.280  20.880  27.494  0.00  0.00     0.088 C 
ATOM      4  C4  F55 d   1      32.499  21.058  25.972  0.00  0.00     0.089 C 
ATOM      5  C3  F55 d   1      32.796  22.526  25.598  0.00  0.00     0.091 C 
ATOM      6  C2  F55 d   1      33.817  23.161  26.565  0.00  0.00     0.104 C 
ATOM      7  H7  F55 d   1      32.382  23.350  28.173  0.00  0.00     0.122 H 
ATOM      8  H8  F55 d   1      31.328  21.366  27.755  0.00  0.00     0.090 H 
ATOM      9  H12 F55 d   1      33.360  20.442  25.672  0.00  0.00     0.091 H 
ATOM     10  H14 F55 d   1      31.859  23.100  25.652  0.00  0.00     0.091 H 
ATOM     11  H16 F55 d   1      34.791  22.675  26.408  0.00  0.00     0.093 H 
ENDROOT
BRANCH   1  12
ATOM     12  N1  F55 d   1      34.318  23.562  29.000  0.00  0.00    -0.314 N 
ATOM     13  C7  F55 d   1      33.862  24.136  30.119  0.00  0.00     0.325 C 
ATOM     14  N2  F55 d   1      34.796  24.679  30.919  0.00  0.00    -0.275 N 
ATOM     15  O7  F55 d   1      32.655  24.165  30.384  0.00  0.00    -0.247 OA
ATOM     16  C8  F55 d   1      34.549  25.304  32.084  0.00  0.00     0.259 C 
ATOM     17  H5  F55 d   1      35.749  24.613  30.625  0.00  0.00     0.173 HD
ATOM     18  O8  F55 d   1      33.432  25.469  32.580  0.00  0.00    -0.267 OA
ATOM     19  H6  F55 d   1      35.301  23.558  28.815  0.00  0.00     0.167 HD
BRANCH  16  20
ATOM     20  C9  F55 d   1      35.800  25.828  32.810  0.00  0.00     0.032 A 
ATOM     21  C14 F55 d   1      35.824  25.853  34.207  0.00  0.00    -0.066 A 
ATOM     22  C13 F55 d   1      36.952  26.321  34.882  0.00  0.00    -0.061 A 
ATOM     23  H1  F55 d   1      34.963  25.508  34.768  0.00  0.00     0.085 H 
ATOM     24  C12 F55 d   1      38.056  26.764  34.153  0.00  0.00     0.034 A 
ATOM     25  H2  F55 d   1      36.970  26.340  35.966  0.00  0.00     0.086 H 
ATOM     26 CL1  F55 d   1      39.461  27.344  34.989  0.00  0.00    -0.084 Cl
ATOM     27  C11 F55 d   1      38.037  26.742  32.759  0.00  0.00    -0.061 A 
ATOM     28  C10 F55 d   1      36.907  26.275  32.083  0.00  0.00    -0.066 A 
ATOM     29  H3  F55 d   1      38.899  27.087  32.200  0.00  0.00     0.086 H 
ATOM     30  H4  F55 d   1      36.889  26.259  30.999  0.00  0.00     0.085 H 
ENDBRANCH  16  20
ENDBRANCH   1  12
BRANCH   6  31
ATOM     31  O2  F55 d   1      33.964  24.561  26.299  0.00  0.00    -0.389 OA
ATOM     32  H17 F55 d   1      33.125  24.993  26.410  0.00  0.00     0.210 HD
ENDBRANCH   6  31
BRANCH   3  33
ATOM     33  C6  F55 d   1      32.213  19.409  27.932  0.00  0.00     0.043 C 
ATOM     34  H9  F55 d   1      31.258  18.974  27.604  0.00  0.00     0.078 H 
ATOM     35  H10 F55 d   1      32.285  19.351  29.028  0.00  0.00     0.078 H 
BRANCH  33  36
ATOM     36  O6  F55 d   1      33.295  18.677  27.346  0.00  0.00    -0.398 OA
ATOM     37  H11 F55 d   1      34.120  19.052  27.630  0.00  0.00     0.209 HD
ENDBRANCH  33  36
ENDBRANCH   3  33
BRANCH   5  38
ATOM     38  O3  F55 d   1      33.298  22.576  24.257  0.00  0.00    -0.390 OA
ATOM     39  H15 F55 d   1      33.482  23.478  24.023  0.00  0.00     0.210 HD
ENDBRANCH   5  38
BRANCH   4  40
ATOM     40  O4  F55 d   1      31.339  20.610  25.260  0.00  0.00    -0.390 OA
ATOM     41  H13 F55 d   1      30.585  21.121  25.532  0.00  0.00     0.210 HD
ENDBRANCH   4  40
TORSDOF 7
