REMARK  7 active torsions:
REMARK  status: ('A' for Active; 'I' for Inactive)
REMARK    1  A    between atoms: C1_2  and  N1_12 
REMARK    2  A    between atoms: C2_3  and  O2_4 
REMARK    3  A    between atoms: C3_5  and  O3_6 
REMARK    4  A    between atoms: C4_7  and  O4_8 
REMARK    5  A    between atoms: C5_9  and  C6_10 
REMARK    6  A    between atoms: C6_10  and  O6_11 
REMARK       I    between atoms: N1_12  and  C7_13 
REMARK       I    between atoms: C7_13  and  N2_15 
REMARK       I    between atoms: N2_15  and  C8_16 
REMARK    7  A    between atoms: C8_16  and  C9_18 
ROOT
ATOM      1  O5  BZD d   1      33.269  21.600  28.355  0.00  0.00    -0.354 OA
ATOM      2  C1  BZD d   1      33.325  23.017  28.076  0.00  0.00     0.135 C 
ATOM      3  C2  BZD d   1      33.786  23.182  26.615  0.00  0.00     0.104 C 
ATOM      4  C3  BZD d   1      32.746  22.553  25.662  0.00  0.00     0.091 C 
ATOM      5  C4  BZD d   1      32.461  21.092  26.062  0.00  0.00     0.089 C 
ATOM      6  C5  BZD d   1      32.223  20.942  27.586  0.00  0.00     0.088 C 
ATOM      7  H1  BZD d   1      32.326  23.465  28.185  0.00  0.00     0.122 H 
ATOM      8  H2  BZD d   1      34.743  22.655  26.485  0.00  0.00     0.093 H 
ATOM      9  H4  BZD d   1      31.812  23.129  25.736  0.00  0.00     0.091 H 
ATOM     10  H6  BZD d   1      33.338  20.486  25.791  0.00  0.00     0.091 H 
ATOM     11  H8  BZD d   1      31.256  21.411  27.822  0.00  0.00     0.090 H 
ENDROOT
BRANCH   2  12
ATOM     12  N1  BZD d   1      34.238  23.633  29.077  0.00  0.00    -0.314 N 
ATOM     13  C7  BZD d   1      33.746  24.197  30.186  0.00  0.00     0.325 C 
ATOM     14  O7  BZD d   1      32.535  24.217  30.415  0.00  0.00    -0.247 OA
ATOM     15  N2  BZD d   1      34.646  24.724  31.032  0.00  0.00    -0.275 N 
ATOM     16  C8  BZD d   1      34.331  25.326  32.192  0.00  0.00     0.259 C 
ATOM     17  H13 BZD d   1      35.613  24.665  30.783  0.00  0.00     0.173 HD
ATOM     18  O8  BZD d   1      33.187  25.474  32.630  0.00  0.00    -0.267 OA
ATOM     19  H12 BZD d   1      35.225  23.625  28.920  0.00  0.00     0.167 HD
BRANCH  16  20
ATOM     20  C9  BZD d   1      35.530  25.838  33.002  0.00  0.00     0.032 A 
ATOM     21  C10 BZD d   1      36.706  26.237  32.362  0.00  0.00    -0.068 A 
ATOM     22  C11 BZD d   1      37.781  26.687  33.136  0.00  0.00    -0.082 A 
ATOM     23  H14 BZD d   1      36.784  26.198  31.282  0.00  0.00     0.085 H 
ATOM     24  C12 BZD d   1      37.678  26.736  34.527  0.00  0.00    -0.083 A 
ATOM     25  H15 BZD d   1      38.700  27.000  32.652  0.00  0.00     0.083 H 
ATOM     26  C13 BZD d   1      36.504  26.345  35.170  0.00  0.00    -0.082 A 
ATOM     27  H16 BZD d   1      38.521  27.082  35.114  0.00  0.00     0.083 H 
ATOM     28  C14 BZD d   1      35.433  25.890  34.399  0.00  0.00    -0.068 A 
ATOM     29  H17 BZD d   1      36.425  26.394  36.250  0.00  0.00     0.083 H 
ATOM     30  H18 BZD d   1      34.517  25.574  34.886  0.00  0.00     0.085 H 
ENDBRANCH  16  20
ENDBRANCH   2  12
BRANCH   3  31
ATOM     31  O2  BZD d   1      33.987  24.564  26.315  0.00  0.00    -0.389 OA
ATOM     32  H3  BZD d   1      33.172  25.036  26.440  0.00  0.00     0.210 HD
ENDBRANCH   3  31
BRANCH   6  33
ATOM     33  C6  BZD d   1      32.184  19.477  28.050  0.00  0.00     0.043 C 
ATOM     34  H9  BZD d   1      31.227  19.027  27.749  0.00  0.00     0.078 H 
ATOM     35  H10 BZD d   1      32.277  19.441  29.145  0.00  0.00     0.078 H 
BRANCH  33  36
ATOM     36  O6  BZD d   1      33.264  18.734  27.458  0.00  0.00    -0.398 OA
ATOM     37  H11 BZD d   1      34.092  19.119  27.718  0.00  0.00     0.209 HD
ENDBRANCH  33  36
ENDBRANCH   6  33
BRANCH   4  38
ATOM     38  O3  BZD d   1      33.205  22.594  24.302  0.00  0.00    -0.390 OA
ATOM     39  H5  BZD d   1      33.349  23.497  24.044  0.00  0.00     0.210 HD
ENDBRANCH   4  38
BRANCH   5  40
ATOM     40  O4  BZD d   1      31.324  20.597  25.341  0.00  0.00    -0.390 OA
ATOM     41  H7  BZD d   1      30.565  21.131  25.544  0.00  0.00     0.210 HD
ENDBRANCH   5  40
TORSDOF 7
