REMARK  12 active torsions:
REMARK  status: ('A' for Active; 'I' for Inactive)
REMARK    1  A    between atoms: C11_1  and  C10_2 
REMARK    2  A    between atoms: C10_2  and  C9_3 
REMARK    3  A    between atoms: C9_3  and  C8_4 
REMARK    4  A    between atoms: C8_4  and  C7_5 
REMARK    5  A    between atoms: C7_5  and  C6_6 
REMARK    6  A    between atoms: C6_6  and  C5_7 
REMARK    7  A    between atoms: C5_7  and  C4_8 
REMARK    8  A    between atoms: C4_8  and  C3_9 
REMARK    9  A    between atoms: C3_9  and  C2_10 
REMARK   10  A    between atoms: C2_10  and  O2_11 
REMARK   11  A    between atoms: O2_11  and  C1_12 
REMARK   12  A    between atoms: C1_12  and  S1_14 
ROOT
ATOM      1  C6  UDT d   1      35.199  35.437  49.251  0.00  0.00    -0.065 C 
ATOM      2  H12 UDT d   1      35.287  36.457  48.849  0.00  0.00     0.033 H 
ATOM      3  H13 UDT d   1      34.321  35.377  49.910  0.00  0.00     0.033 H 
ENDROOT
BRANCH   1   4
ATOM      4  C7  UDT d   1      36.455  35.108  50.059  0.00  0.00    -0.065 C 
ATOM      5  H10 UDT d   1      36.203  35.114  51.130  0.00  0.00     0.033 H 
ATOM      6  H11 UDT d   1      36.813  34.108  49.772  0.00  0.00     0.033 H 
BRANCH   4   7
ATOM      7  C8  UDT d   1      37.571  36.131  49.803  0.00  0.00    -0.065 C 
ATOM      8  H8  UDT d   1      37.671  36.287  48.719  0.00  0.00     0.033 H 
ATOM      9  H9  UDT d   1      37.303  37.082  50.287  0.00  0.00     0.033 H 
BRANCH   7  10
ATOM     10  C9  UDT d   1      38.910  35.648  50.362  0.00  0.00    -0.065 C 
ATOM     11  H6  UDT d   1      38.931  34.548  50.340  0.00  0.00     0.033 H 
ATOM     12  H7  UDT d   1      39.723  36.042  49.734  0.00  0.00     0.033 H 
BRANCH  10  13
ATOM     13  C10 UDT d   1      39.120  36.123  51.807  0.00  0.00    -0.069 C 
ATOM     14  H4  UDT d   1      38.204  36.620  52.159  0.00  0.00     0.032 H 
ATOM     15  H5  UDT d   1      39.333  35.253  52.445  0.00  0.00     0.032 H 
BRANCH  13  16
ATOM     16  C11 UDT d   1      40.293  37.109  51.893  0.00  0.00    -0.077 C 
ATOM     17  H1  UDT d   1      40.423  37.434  52.936  0.00  0.00     0.027 H 
ATOM     18  H2  UDT d   1      40.084  37.984  51.260  0.00  0.00     0.027 H 
ATOM     19  H3  UDT d   1      41.213  36.616  51.545  0.00  0.00     0.027 H 
ENDBRANCH  13  16
ENDBRANCH  10  13
ENDBRANCH   7  10
ENDBRANCH   4   7
ENDBRANCH   1   4
BRANCH   1  20
ATOM     20  C5  UDT d   1      35.022  34.454  48.090  0.00  0.00    -0.065 C 
ATOM     21  H14 UDT d   1      34.928  33.435  48.494  0.00  0.00     0.033 H 
ATOM     22  H15 UDT d   1      35.905  34.509  47.436  0.00  0.00     0.033 H 
BRANCH  20  23
ATOM     23  C4  UDT d   1      33.770  34.782  47.267  0.00  0.00    -0.063 C 
ATOM     24  H16 UDT d   1      33.424  35.794  47.522  0.00  0.00     0.033 H 
ATOM     25  H17 UDT d   1      32.980  34.054  47.503  0.00  0.00     0.033 H 
BRANCH  23  26
ATOM     26  C3  UDT d   1      34.084  34.718  45.772  0.00  0.00    -0.044 C 
ATOM     27  H18 UDT d   1      34.827  33.926  45.596  0.00  0.00     0.036 H 
ATOM     28  H19 UDT d   1      34.496  35.686  45.451  0.00  0.00     0.036 H 
BRANCH  26  29
ATOM     29  C2  UDT d   1      32.830  34.415  44.953  0.00  0.00     0.030 C 
ATOM     30  H20 UDT d   1      31.956  34.843  45.466  0.00  0.00     0.075 H 
ATOM     31  H21 UDT d   1      32.710  33.325  44.873  0.00  0.00     0.075 H 
BRANCH  29  32
ATOM     32  O2  UDT d   1      32.918  34.981  43.615  0.00  0.00    -0.313 OA
BRANCH  32  33
ATOM     33  C1  UDT d   1      32.198  34.261  42.711  0.00  0.00     0.319 C 
ATOM     34  O1  UDT d   1      32.710  33.862  41.667  0.00  0.00    -0.252 OA
BRANCH  33  35
ATOM     35  S1  UDT d   1      30.537  33.900  43.032  0.00  0.00    -0.074 SA
ATOM     36  H22 UDT d   1      30.274  34.295  43.921  0.00  0.00     0.112 HD
ENDBRANCH  33  35
ENDBRANCH  32  33
ENDBRANCH  29  32
ENDBRANCH  26  29
ENDBRANCH  23  26
ENDBRANCH  20  23
ENDBRANCH   1  20
TORSDOF 12
