REMARK  11 active torsions:
REMARK  status: ('A' for Active; 'I' for Inactive)
REMARK    1  A    between atoms: C11_1  and  C10_2 
REMARK    2  A    between atoms: C10_2  and  C9_3 
REMARK    3  A    between atoms: C9_3  and  C8_4 
REMARK    4  A    between atoms: C8_4  and  C7_5 
REMARK    5  A    between atoms: C7_5  and  C6_6 
REMARK    6  A    between atoms: C6_6  and  C5_7 
REMARK    7  A    between atoms: C5_7  and  C4_8 
REMARK    8  A    between atoms: C4_8  and  C3_9 
REMARK    9  A    between atoms: C3_9  and  C2_10 
REMARK   10  A    between atoms: C2_10  and  O2_11 
REMARK   11  A    between atoms: O2_11  and  C1_12 
ROOT
ATOM      1  C6  DFD d   1      32.087  39.471  35.434  0.00  0.00    -0.065 C 
ATOM      2  H12 DFD d   1      32.105  38.688  34.662  0.00  0.00     0.033 H 
ATOM      3  H13 DFD d   1      31.113  39.982  35.415  0.00  0.00     0.033 H 
ENDROOT
BRANCH   1   4
ATOM      4  C7  DFD d   1      33.188  40.484  35.143  0.00  0.00    -0.065 C 
ATOM      5  H10 DFD d   1      34.062  40.249  35.769  0.00  0.00     0.033 H 
ATOM      6  H11 DFD d   1      33.467  40.410  34.081  0.00  0.00     0.033 H 
BRANCH   4   7
ATOM      7  C8  DFD d   1      32.741  41.911  35.437  0.00  0.00    -0.065 C 
ATOM      8  H8  DFD d   1      31.938  42.183  34.736  0.00  0.00     0.033 H 
ATOM      9  H9  DFD d   1      32.360  41.958  36.468  0.00  0.00     0.033 H 
BRANCH   7  10
ATOM     10  C9  DFD d   1      33.885  42.912  35.288  0.00  0.00    -0.065 C 
ATOM     11  H6  DFD d   1      33.713  43.749  35.981  0.00  0.00     0.033 H 
ATOM     12  H7  DFD d   1      34.828  42.409  35.547  0.00  0.00     0.033 H 
BRANCH  10  13
ATOM     13  C10 DFD d   1      34.001  43.468  33.870  0.00  0.00    -0.069 C 
ATOM     14  H4  DFD d   1      34.040  42.628  33.161  0.00  0.00     0.032 H 
ATOM     15  H5  DFD d   1      33.116  44.086  33.658  0.00  0.00     0.032 H 
BRANCH  13  16
ATOM     16  C11 DFD d   1      35.246  44.317  33.692  0.00  0.00    -0.077 C 
ATOM     17  H1  DFD d   1      35.288  44.695  32.660  0.00  0.00     0.027 H 
ATOM     18  H2  DFD d   1      36.138  43.707  33.895  0.00  0.00     0.027 H 
ATOM     19  H3  DFD d   1      35.215  45.165  34.392  0.00  0.00     0.027 H 
ENDBRANCH  13  16
ENDBRANCH  10  13
ENDBRANCH   7  10
ENDBRANCH   4   7
ENDBRANCH   1   4
BRANCH   1  20
ATOM     20  C5  DFD d   1      32.286  38.828  36.802  0.00  0.00    -0.065 C 
ATOM     21  H14 DFD d   1      31.938  39.523  37.581  0.00  0.00     0.033 H 
ATOM     22  H15 DFD d   1      33.356  38.619  36.949  0.00  0.00     0.033 H 
BRANCH  20  23
ATOM     23  C4  DFD d   1      31.505  37.528  36.909  0.00  0.00    -0.063 C 
ATOM     24  H16 DFD d   1      31.654  36.941  35.991  0.00  0.00     0.033 H 
ATOM     25  H17 DFD d   1      30.436  37.758  37.027  0.00  0.00     0.033 H 
BRANCH  23  26
ATOM     26  C3  DFD d   1      31.975  36.713  38.104  0.00  0.00    -0.045 C 
ATOM     27  H18 DFD d   1      32.578  37.354  38.764  0.00  0.00     0.036 H 
ATOM     28  H19 DFD d   1      32.589  35.872  37.749  0.00  0.00     0.036 H 
BRANCH  26  29
ATOM     29  C2  DFD d   1      30.786  36.171  38.882  0.00  0.00     0.028 C 
ATOM     30  H20 DFD d   1      29.956  35.965  38.191  0.00  0.00     0.075 H 
ATOM     31  H21 DFD d   1      30.466  36.911  39.630  0.00  0.00     0.075 H 
BRANCH  29  32
ATOM     32  O2  DFD d   1      31.172  34.965  39.538  0.00  0.00    -0.328 OA
BRANCH  32  33
ATOM     33  C1  DFD d   1      30.181  34.078  40.127  0.00  0.00     0.206 C 
ATOM     34  O1  DFD d   1      29.375  34.539  40.912  0.00  0.00    -0.276 OA
ATOM     35  H22 DFD d   1      30.161  33.020  39.870  0.00  0.00     0.192 H 
ENDBRANCH  32  33
ENDBRANCH  29  32
ENDBRANCH  26  29
ENDBRANCH  23  26
ENDBRANCH  20  23
ENDBRANCH   1  20
TORSDOF 11
