REMARK  13 active torsions:
REMARK  status: ('A' for Active; 'I' for Inactive)
REMARK    1  A    between atoms: C12_2  and  C11_4 
REMARK    2  A    between atoms: C11_4  and  C10_5 
REMARK    3  A    between atoms: C10_5  and  C9_6 
REMARK    4  A    between atoms: C9_6  and  C8_7 
REMARK    5  A    between atoms: C8_7  and  C7_8 
REMARK    6  A    between atoms: C7_8  and  C6_9 
REMARK    7  A    between atoms: C6_9  and  C5_10 
REMARK    8  A    between atoms: C5_10  and  C4_11 
REMARK    9  A    between atoms: C4_11  and  C3_12 
REMARK   10  A    between atoms: C3_12  and  C2_13 
REMARK   11  A    between atoms: C2_13  and  O2_14 
REMARK   12  A    between atoms: O2_14  and  C1_15 
REMARK   13  A    between atoms: C1_15  and  S1_17 
ROOT
ATOM      1  C6  VZZ d   1      38.524  35.810  51.569  0.00  0.00    -0.065 C 
ATOM      2  H11 VZZ d   1      38.025  34.830  51.597  0.00  0.00     0.033 H 
ATOM      3  H12 VZZ d   1      39.360  35.775  50.855  0.00  0.00     0.033 H 
ENDROOT
BRANCH   1   4
ATOM      4  C7  VZZ d   1      39.075  36.126  52.963  0.00  0.00    -0.065 C 
ATOM      5  H9  VZZ d   1      38.331  36.717  53.518  0.00  0.00     0.033 H 
ATOM      6  H10 VZZ d   1      39.266  35.183  53.496  0.00  0.00     0.033 H 
BRANCH   4   7
ATOM      7  C8  VZZ d   1      40.383  36.924  52.871  0.00  0.00    -0.065 C 
ATOM      8  H7  VZZ d   1      41.144  36.442  53.503  0.00  0.00     0.033 H 
ATOM      9  H8  VZZ d   1      40.726  36.932  51.826  0.00  0.00     0.033 H 
BRANCH   7  10
ATOM     10  C9  VZZ d   1      40.181  38.366  53.343  0.00  0.00    -0.065 C 
ATOM     11  H5  VZZ d   1      40.733  39.041  52.673  0.00  0.00     0.033 H 
ATOM     12  H6  VZZ d   1      39.108  38.607  53.304  0.00  0.00     0.033 H 
BRANCH  10  13
ATOM     13  C10 VZZ d   1      40.684  38.566  54.775  0.00  0.00    -0.056 C 
ATOM     14  H3  VZZ d   1      39.861  38.379  55.480  0.00  0.00     0.033 H 
ATOM     15  H4  VZZ d   1      41.505  37.862  54.975  0.00  0.00     0.033 H 
BRANCH  13  16
ATOM     16  C11 VZZ d   1      41.190  40.003  54.953  0.00  0.00     0.016 C 
ATOM     17  H1  VZZ d   1      42.227  40.055  54.589  0.00  0.00     0.049 H 
ATOM     18  H2  VZZ d   1      40.556  40.672  54.352  0.00  0.00     0.049 H 
BRANCH  16  19
ATOM     19  C12 VZZ d   1      41.162  40.487  56.415  0.00  0.00     0.172 C 
ATOM     20  O3  VZZ d   1      40.695  39.710  57.284  0.00  0.00    -0.648 OA
ATOM     21  O4  VZZ d   1      41.612  41.637  56.628  0.00  0.00    -0.648 OA
ENDBRANCH  16  19
ENDBRANCH  13  16
ENDBRANCH  10  13
ENDBRANCH   7  10
ENDBRANCH   4   7
ENDBRANCH   1   4
BRANCH   1  22
ATOM     22  C5  VZZ d   1      37.518  36.865  51.101  0.00  0.00    -0.065 C 
ATOM     23  H13 VZZ d   1      37.789  37.203  50.090  0.00  0.00     0.033 H 
ATOM     24  H14 VZZ d   1      37.540  37.721  51.792  0.00  0.00     0.033 H 
BRANCH  22  25
ATOM     25  C4  VZZ d   1      36.116  36.275  51.076  0.00  0.00    -0.063 C 
ATOM     26  H15 VZZ d   1      35.462  36.862  51.737  0.00  0.00     0.033 H 
ATOM     27  H16 VZZ d   1      36.153  35.233  51.428  0.00  0.00     0.033 H 
BRANCH  25  28
ATOM     28  C3  VZZ d   1      35.559  36.308  49.659  0.00  0.00    -0.044 C 
ATOM     29  H17 VZZ d   1      36.383  36.165  48.945  0.00  0.00     0.036 H 
ATOM     30  H18 VZZ d   1      35.086  37.285  49.481  0.00  0.00     0.036 H 
BRANCH  28  31
ATOM     31  C2  VZZ d   1      34.519  35.203  49.451  0.00  0.00     0.030 C 
ATOM     32  H19 VZZ d   1      33.976  35.035  50.393  0.00  0.00     0.075 H 
ATOM     33  H20 VZZ d   1      35.031  34.276  49.153  0.00  0.00     0.075 H 
BRANCH  31  34
ATOM     34  O2  VZZ d   1      33.579  35.578  48.422  0.00  0.00    -0.313 OA
BRANCH  34  35
ATOM     35  C1  VZZ d   1      33.884  35.056  47.198  0.00  0.00     0.319 C 
ATOM     36  O1  VZZ d   1      34.781  34.227  47.065  0.00  0.00    -0.252 OA
BRANCH  35  37
ATOM     37  S1  VZZ d   1      32.985  35.559  45.785  0.00  0.00    -0.074 SA
ATOM     38  H21 VZZ d   1      32.289  36.237  46.054  0.00  0.00     0.112 HD
ENDBRANCH  35  37
ENDBRANCH  34  35
ENDBRANCH  31  34
ENDBRANCH  28  31
ENDBRANCH  25  28
ENDBRANCH  22  25
ENDBRANCH   1  22
TORSDOF 13
