REMARK  10 active torsions:
REMARK  status: ('A' for Active; 'I' for Inactive)
REMARK    1  A    between atoms: C2_2  and  S1_10 
REMARK    2  A    between atoms: C8_8  and  N2_14 
REMARK    3  A    between atoms: S1_10  and  N1_13 
REMARK       I    between atoms: N2_14  and  C10_15 
REMARK    4  A    between atoms: C10_15  and  C11_17 
REMARK    5  A    between atoms: C11_17  and  C12_18 
REMARK    6  A    between atoms: C11_17  and  C15_21 
REMARK    7  A    between atoms: C12_18  and  C13_19 
REMARK    8  A    between atoms: C13_19  and  C14_20 
REMARK    9  A    between atoms: C15_21  and  C16_22 
REMARK   10  A    between atoms: C16_22  and  C17_23 
ROOT
ATOM      1  N2  3CC d   1      -2.159   6.377  12.529  0.00  0.00    -0.356 N 
ATOM      2  C10 3CC d   1      -2.319   7.495  11.764  0.00  0.00     0.222 C 
ATOM      3  O3  3CC d   1      -3.447   7.651  11.282  0.00  0.00    -0.273 OA
ATOM      4  H11 3CC d   1      -1.255   6.228  12.930  0.00  0.00     0.162 HD
ENDROOT
BRANCH   1   5
ATOM      5  C8  3CC d   1      -3.209   5.353  12.824  0.00  0.00     0.019 C 
ATOM      6  C7  3CC d   1      -4.281   5.906  13.618  0.00  0.00    -0.021 C 
ATOM      7  C6  3CC d   1      -4.828   4.793  14.392  0.00  0.00    -0.050 A 
ATOM      8  H4  3CC d   1      -3.895   6.686  14.291  0.00  0.00     0.043 H 
ATOM      9  H5  3CC d   1      -5.056   6.335  12.966  0.00  0.00     0.043 H 
ATOM     10  C4  3CC d   1      -6.041   4.668  15.024  0.00  0.00    -0.075 A 
ATOM     11  C5  3CC d   1      -3.847   3.765  14.401  0.00  0.00    -0.048 A 
ATOM     12  C3  3CC d   1      -6.337   3.480  15.711  0.00  0.00    -0.060 A 
ATOM     13  H3  3CC d   1      -6.761   5.477  14.993  0.00  0.00     0.084 H 
ATOM     14  C2  3CC d   1      -5.378   2.427  15.741  0.00  0.00     0.079 A 
ATOM     15  H2  3CC d   1      -7.290   3.365  16.215  0.00  0.00     0.085 H 
ATOM     16  C1  3CC d   1      -4.136   2.546  15.098  0.00  0.00    -0.054 A 
ATOM     17  H1  3CC d   1      -3.414   1.738  15.128  0.00  0.00     0.086 H 
ATOM     18  C9  3CC d   1      -2.664   4.222  13.629  0.00  0.00    -0.021 C 
ATOM     19  H7  3CC d   1      -2.282   3.421  12.979  0.00  0.00     0.043 H 
ATOM     20  H8  3CC d   1      -1.862   4.564  14.299  0.00  0.00     0.043 H 
ATOM     21  H6  3CC d   1      -3.607   4.974  11.871  0.00  0.00     0.073 H 
BRANCH  14  22
ATOM     22  S1  3CC d   1      -5.820   0.951  16.635  0.00  0.00     0.256 S 
ATOM     23  O1  3CC d   1      -5.271   1.078  17.954  0.00  0.00    -0.201 OA
ATOM     24  O2  3CC d   1      -7.249   0.809  16.501  0.00  0.00    -0.201 OA
BRANCH  22  25
ATOM     25  N1  3CC d   1      -5.146  -0.306  15.984  0.00  0.00    -0.324 N 
ATOM     26  H9  3CC d   1      -5.299  -1.214  16.374  0.00  0.00     0.169 HD
ATOM     27  H10 3CC d   1      -4.563  -0.200  15.178  0.00  0.00     0.169 HD
ENDBRANCH  22  25
ENDBRANCH  14  22
ENDBRANCH   1   5
BRANCH   2  28
ATOM     28  C11 3CC d   1      -1.201   8.559  11.466  0.00  0.00     0.024 C 
ATOM     29  H12 3CC d   1      -1.683   9.416  10.972  0.00  0.00     0.054 H 
BRANCH  28  30
ATOM     30  C12 3CC d   1      -0.533   9.094  12.775  0.00  0.00    -0.054 C 
ATOM     31  H13 3CC d   1       0.126   9.928  12.493  0.00  0.00     0.034 H 
ATOM     32  H14 3CC d   1       0.070   8.277  13.197  0.00  0.00     0.034 H 
BRANCH  30  33
ATOM     33  C13 3CC d   1      -1.475   9.602  13.893  0.00  0.00    -0.068 C 
ATOM     34  H15 3CC d   1      -2.428   9.057  13.832  0.00  0.00     0.032 H 
ATOM     35  H16 3CC d   1      -1.657  10.677  13.746  0.00  0.00     0.032 H 
BRANCH  33  36
ATOM     36  C14 3CC d   1      -0.866   9.386  15.282  0.00  0.00    -0.076 C 
ATOM     37  H17 3CC d   1      -1.561   9.758  16.049  0.00  0.00     0.027 H 
ATOM     38  H18 3CC d   1       0.086   9.932  15.354  0.00  0.00     0.027 H 
ATOM     39  H19 3CC d   1      -0.685   8.313  15.440  0.00  0.00     0.027 H 
ENDBRANCH  33  36
ENDBRANCH  30  33
ENDBRANCH  28  30
BRANCH  28  40
ATOM     40  C15 3CC d   1      -0.139   7.969  10.465  0.00  0.00    -0.054 C 
ATOM     41  H20 3CC d   1       0.439   7.207  11.008  0.00  0.00     0.034 H 
ATOM     42  H21 3CC d   1       0.528   8.792  10.169  0.00  0.00     0.034 H 
BRANCH  40  43
ATOM     43  C16 3CC d   1      -0.671   7.311   9.166  0.00  0.00    -0.068 C 
ATOM     44  H22 3CC d   1      -1.704   6.973   9.337  0.00  0.00     0.032 H 
ATOM     45  H23 3CC d   1      -0.038   6.445   8.923  0.00  0.00     0.032 H 
BRANCH  43  46
ATOM     46  C17 3CC d   1      -0.659   8.281   7.978  0.00  0.00    -0.076 C 
ATOM     47  H24 3CC d   1      -1.044   7.770   7.083  0.00  0.00     0.027 H 
ATOM     48  H25 3CC d   1       0.371   8.620   7.792  0.00  0.00     0.027 H 
ATOM     49  H26 3CC d   1      -1.295   9.149   8.207  0.00  0.00     0.027 H 
ENDBRANCH  43  46
ENDBRANCH  40  43
ENDBRANCH  28  40
ENDBRANCH   2  28
TORSDOF 10
