REMARK  2 active torsions:
REMARK  status: ('A' for Active; 'I' for Inactive)
REMARK    1  A    between atoms: C2_2  and  S1_10 
REMARK    2  A    between atoms: S1_10  and  N1_13 
ROOT
ATOM      1  C1  MAJ d   1      -5.906   3.304  15.262  0.00  0.00    -0.054 A 
ATOM      2  C2  MAJ d   1      -5.118   2.244  15.713  0.00  0.00     0.079 A 
ATOM      3  C3  MAJ d   1      -3.718   2.188  15.438  0.00  0.00    -0.060 A 
ATOM      4  C4  MAJ d   1      -3.123   3.227  14.687  0.00  0.00    -0.075 A 
ATOM      5  C5  MAJ d   1      -5.293   4.346  14.504  0.00  0.00    -0.050 A 
ATOM      6  C6  MAJ d   1      -3.901   4.278  14.242  0.00  0.00    -0.052 A 
ATOM      7  C7  MAJ d   1      -3.529   5.472  13.450  0.00  0.00    -0.040 C 
ATOM      8  C8  MAJ d   1      -4.750   6.176  13.114  0.00  0.00    -0.058 C 
ATOM      9  C9  MAJ d   1      -5.859   5.568  13.909  0.00  0.00    -0.040 C 
ATOM     10  H1  MAJ d   1      -6.967   3.335  15.484  0.00  0.00     0.086 H 
ATOM     11  H2  MAJ d   1      -3.120   1.360  15.800  0.00  0.00     0.085 H 
ATOM     12  H3  MAJ d   1      -2.063   3.199  14.462  0.00  0.00     0.084 H 
ATOM     13  H4  MAJ d   1      -3.009   5.165  12.531  0.00  0.00     0.040 H 
ATOM     14  H5  MAJ d   1      -2.871   6.125  14.043  0.00  0.00     0.040 H 
ATOM     15  H6  MAJ d   1      -4.959   6.072  12.039  0.00  0.00     0.033 H 
ATOM     16  H7  MAJ d   1      -4.649   7.242  13.366  0.00  0.00     0.033 H 
ATOM     17  H8  MAJ d   1      -6.192   6.260  14.696  0.00  0.00     0.040 H 
ATOM     18  H9  MAJ d   1      -6.709   5.320  13.256  0.00  0.00     0.040 H 
ENDROOT
BRANCH   2  19
ATOM     19  S1  MAJ d   1      -5.850   0.930  16.677  0.00  0.00     0.256 S 
ATOM     20  O1  MAJ d   1      -7.265   0.989  16.473  0.00  0.00    -0.201 OA
ATOM     21  O2  MAJ d   1      -5.330   1.071  18.003  0.00  0.00    -0.201 OA
BRANCH  19  22
ATOM     22  N1  MAJ d   1      -5.311  -0.426  16.130  0.00  0.00    -0.324 N 
ATOM     23  H10 MAJ d   1      -5.608  -1.286  16.544  0.00  0.00     0.169 HD
ATOM     24  H11 MAJ d   1      -4.668  -0.436  15.364  0.00  0.00     0.169 HD
ENDBRANCH  19  22
ENDBRANCH   2  19
TORSDOF 2
