REMARK  7 active torsions:
REMARK  status: ('A' for Active; 'I' for Inactive)
REMARK    1  A    between atoms: C3_9  and  C11_10 
REMARK    2  A    between atoms: C11_10  and  C12_11 
REMARK    3  A    between atoms: C12_11  and  N20_12 
REMARK    4  A    between atoms: C12_11  and  C15_13 
REMARK    5  A    between atoms: C15_13  and  C16_14 
REMARK       I    between atoms: C16_14  and  N19_16 
REMARK    6  A    between atoms: C29_19  and  C34_20 
REMARK    7  A    between atoms: C40_25  and  C41_26 
ROOT
ATOM      1  C16 448 d   1      41.580  50.478  35.966  0.00  0.00     0.222 C 
ATOM      2  O22 448 d   1      41.231  49.346  36.298  0.00  0.00    -0.273 OA
ATOM      3  N19 448 d   1      42.773  50.971  36.359  0.00  0.00    -0.339 N 
ATOM      4  C25 448 d   1      43.539  52.092  35.753  0.00  0.00     0.015 C 
ATOM      5  C26 448 d   1      45.009  51.720  35.435  0.00  0.00     0.034 C 
ATOM      6  C29 448 d   1      43.359  50.321  37.559  0.00  0.00     0.070 C 
ATOM      7  C28 448 d   1      44.837  50.367  37.547  0.00  0.00     0.147 A 
ATOM      8  N27 448 d   1      45.528  50.994  36.592  0.00  0.00    -0.250 N 
ATOM      9  N39 448 d   1      46.905  50.890  36.816  0.00  0.00    -0.146 NA
ATOM     10  N41 448 d   1      45.708  49.808  38.442  0.00  0.00    -0.206 NA
ATOM     11  C40 448 d   1      46.920  50.139  37.954  0.00  0.00     0.255 A 
ATOM     12  H11 448 d   1      43.536  52.938  36.456  0.00  0.00     0.067 H 
ATOM     13  H12 448 d   1      43.043  52.390  34.818  0.00  0.00     0.067 H 
ATOM     14  H13 448 d   1      45.601  52.632  35.265  0.00  0.00     0.070 H 
ATOM     15  H14 448 d   1      45.052  51.083  34.539  0.00  0.00     0.070 H 
ATOM     16  H15 448 d   1      43.067  49.261  37.518  0.00  0.00     0.084 H 
ENDROOT
BRANCH   1  17
ATOM     17  C15 448 d   1      40.627  51.352  35.159  0.00  0.00     0.036 C 
ATOM     18  H9  448 d   1      40.612  52.360  35.599  0.00  0.00     0.050 H 
ATOM     19  H10 448 d   1      40.990  51.409  34.122  0.00  0.00     0.050 H 
BRANCH  17  20
ATOM     20  C12 448 d   1      39.191  50.792  35.152  0.00  0.00     0.112 C 
ATOM     21  H5  448 d   1      39.249  49.757  34.784  0.00  0.00     0.085 H 
BRANCH  20  22
ATOM     22  C11 448 d   1      38.531  50.751  36.550  0.00  0.00    -0.011 C 
ATOM     23  H3  448 d   1      39.157  50.160  37.234  0.00  0.00     0.043 H 
ATOM     24  H4  448 d   1      38.430  51.775  36.938  0.00  0.00     0.043 H 
BRANCH  22  25
ATOM     25  C3  448 d   1      37.148  50.108  36.439  0.00  0.00    -0.015 A 
ATOM     26  C2  448 d   1      35.942  50.941  36.659  0.00  0.00     0.125 A 
ATOM     27  C1  448 d   1      34.664  50.411  36.564  0.00  0.00    -0.005 A 
ATOM     28  F10 448 d   1      36.070  52.230  36.963  0.00  0.00    -0.205 F 
ATOM     29  C6  448 d   1      34.502  49.066  36.265  0.00  0.00     0.157 A 
ATOM     30  H1  448 d   1      33.798  51.043  36.722  0.00  0.00     0.093 H 
ATOM     31  F9  448 d   1      33.285  48.515  36.168  0.00  0.00    -0.203 F 
ATOM     32  C5  448 d   1      35.688  48.217  36.036  0.00  0.00     0.155 A 
ATOM     33  F8  448 d   1      35.452  46.930  35.733  0.00  0.00    -0.203 F 
ATOM     34  C4  448 d   1      36.977  48.753  36.133  0.00  0.00    -0.034 A 
ATOM     35  H2  448 d   1      37.842  48.120  35.971  0.00  0.00     0.089 H 
ENDBRANCH  22  25
ENDBRANCH  20  22
BRANCH  20  36
ATOM     36  N20 448 d   1      38.338  51.550  34.239  0.00  0.00    -0.074 N 
ATOM     37  H6  448 d   1      38.765  51.579  33.326  0.00  0.00     0.274 HD
ATOM     38  H7  448 d   1      38.225  52.489  34.587  0.00  0.00     0.274 HD
ATOM     39  H8  448 d   1      37.436  51.105  34.174  0.00  0.00     0.274 HD
ENDBRANCH  20  36
ENDBRANCH  17  20
ENDBRANCH   1  17
BRANCH   6  40
ATOM     40  C34 448 d   1      42.811  50.885  38.879  0.00  0.00    -0.051 C 
ATOM     41  H16 448 d   1      43.283  50.364  39.725  0.00  0.00     0.030 H 
ATOM     42  H17 448 d   1      41.722  50.735  38.918  0.00  0.00     0.030 H 
ATOM     43  H18 448 d   1      43.036  51.960  38.940  0.00  0.00     0.030 H 
ENDBRANCH   6  40
BRANCH  11  44
ATOM     44  C41 448 d   1      48.193  49.725  38.665  0.00  0.00     0.454 C 
ATOM     45  F29 448 d   1      48.026  49.791  39.985  0.00  0.00    -0.163 F 
ATOM     46  F27 448 d   1      49.108  50.591  38.249  0.00  0.00    -0.163 F 
ATOM     47  F28 448 d   1      48.568  48.474  38.379  0.00  0.00    -0.163 F 
ENDBRANCH  11  44
TORSDOF 7
