REMARK  7 active torsions:
REMARK  status: ('A' for Active; 'I' for Inactive)
REMARK    1  A    between atoms: C3_3  and  C24_17 
REMARK    2  A    between atoms: C9_7  and  C14_10 
REMARK    3  A    between atoms: C15_11  and  O1_16 
REMARK    4  A    between atoms: O1_16  and  C1_28 
REMARK    5  A    between atoms: C28_21  and  C33_23 
REMARK       I    between atoms: C33_23  and  N35_25 
REMARK    6  A    between atoms: N35_25  and  C41_26 
REMARK    7  A    between atoms: N35_25  and  C45_27 
ROOT
ATOM      1  N1  P3Y d   1      -4.330   9.282  24.284  0.00  0.00    -0.242 NA
ATOM      2  C2  P3Y d   1      -3.681   8.492  25.191  0.00  0.00     0.015 A 
ATOM      3  C3  P3Y d   1      -2.648   7.605  24.792  0.00  0.00    -0.006 A 
ATOM      4  C4  P3Y d   1      -2.322   7.586  23.412  0.00  0.00    -0.056 A 
ATOM      5  C5  P3Y d   1      -3.023   8.428  22.474  0.00  0.00     0.023 A 
ATOM      6  C6  P3Y d   1      -4.016   9.254  22.949  0.00  0.00     0.138 A 
ATOM      7  C9  P3Y d   1      -2.929   8.620  21.050  0.00  0.00     0.006 A 
ATOM      8  C10 P3Y d   1      -3.935   9.594  20.817  0.00  0.00    -0.009 A 
ATOM      9  N11 P3Y d   1      -4.603   9.991  21.951  0.00  0.00    -0.349 N 
ATOM     10  H1  P3Y d   1      -3.961   8.544  26.237  0.00  0.00     0.116 H 
ATOM     11  H2  P3Y d   1      -1.535   6.930  23.057  0.00  0.00     0.086 H 
ATOM     12  H3  P3Y d   1      -4.158   9.991  19.828  0.00  0.00     0.112 H 
ATOM     13  H4  P3Y d   1      -5.365  10.680  22.032  0.00  0.00     0.167 HD
ENDROOT
BRANCH   3  14
ATOM     14  C24 P3Y d   1      -1.934   6.722  25.779  0.00  0.00    -0.006 A 
ATOM     15  C25 P3Y d   1      -1.769   5.319  25.564  0.00  0.00     0.013 A 
ATOM     16  N26 P3Y d   1      -1.113   4.502  26.457  0.00  0.00    -0.271 NA
ATOM     17  H9  P3Y d   1      -2.177   4.880  24.661  0.00  0.00     0.116 H 
ATOM     18  C27 P3Y d   1      -0.592   5.043  27.606  0.00  0.00     0.017 A 
ATOM     19  C28 P3Y d   1      -0.723   6.430  27.885  0.00  0.00     0.050 A 
ATOM     20  H10 P3Y d   1      -0.073   4.403  28.311  0.00  0.00     0.116 H 
ATOM     21  C29 P3Y d   1      -1.399   7.248  26.953  0.00  0.00    -0.054 A 
ATOM     22  H11 P3Y d   1      -1.504   8.308  27.155  0.00  0.00     0.086 H 
BRANCH  19  23
ATOM     23  C33 P3Y d   1      -0.155   7.002  29.111  0.00  0.00     0.254 C 
ATOM     24  O34 P3Y d   1       1.056   6.970  29.295  0.00  0.00    -0.267 OA
ATOM     25  N35 P3Y d   1      -1.006   7.607  30.022  0.00  0.00    -0.357 N 
BRANCH  25  26
ATOM     26  C41 P3Y d   1      -2.298   7.049  30.483  0.00  0.00    -0.016 C 
ATOM     27  H12 P3Y d   1      -2.760   7.740  31.204  0.00  0.00     0.056 H 
ATOM     28  H13 P3Y d   1      -2.126   6.076  30.967  0.00  0.00     0.056 H 
ATOM     29  H14 P3Y d   1      -2.969   6.916  29.621  0.00  0.00     0.056 H 
ENDBRANCH  25  26
BRANCH  25  30
ATOM     30  C45 P3Y d   1      -0.514   8.857  30.642  0.00  0.00    -0.016 C 
ATOM     31  H15 P3Y d   1       0.450   9.135  30.192  0.00  0.00     0.056 H 
ATOM     32  H16 P3Y d   1      -0.383   8.703  31.723  0.00  0.00     0.056 H 
ATOM     33  H17 P3Y d   1      -1.244   9.662  30.472  0.00  0.00     0.056 H 
ENDBRANCH  25  30
ENDBRANCH  19  23
ENDBRANCH   3  14
BRANCH   7  34
ATOM     34  C14 P3Y d   1      -2.024   7.993  20.012  0.00  0.00     0.010 A 
ATOM     35  C15 P3Y d   1      -1.786   6.576  19.909  0.00  0.00     0.079 A 
ATOM     36  C16 P3Y d   1      -0.908   6.089  18.877  0.00  0.00    -0.050 A 
ATOM     37  C17 P3Y d   1      -0.294   6.972  17.975  0.00  0.00    -0.080 A 
ATOM     38  H5  P3Y d   1      -0.718   5.025  18.795  0.00  0.00     0.087 H 
ATOM     39  C18 P3Y d   1      -0.529   8.352  18.076  0.00  0.00    -0.082 A 
ATOM     40  H6  P3Y d   1       0.361   6.588  17.201  0.00  0.00     0.083 H 
ATOM     41  C19 P3Y d   1      -1.386   8.852  19.084  0.00  0.00    -0.069 A 
ATOM     42  H7  P3Y d   1      -0.053   9.035  17.381  0.00  0.00     0.083 H 
ATOM     43  H8  P3Y d   1      -1.559   9.920  19.148  0.00  0.00     0.085 H 
BRANCH  35  44
ATOM     44  O1  P3Y d   1      -2.431   5.735  20.833  0.00  0.00    -0.355 OA
BRANCH  44  45
ATOM     45  C1  P3Y d   1      -2.583   4.326  20.570  0.00  0.00     0.010 C 
ATOM     46  H18 P3Y d   1      -3.111   3.851  21.410  0.00  0.00     0.066 H 
ATOM     47  H19 P3Y d   1      -1.591   3.866  20.453  0.00  0.00     0.066 H 
ATOM     48  H20 P3Y d   1      -3.164   4.186  19.646  0.00  0.00     0.066 H 
ENDBRANCH  44  45
ENDBRANCH  35  44
ENDBRANCH   7  34
TORSDOF 7
