REMARK  3 active torsions:
REMARK  status: ('A' for Active; 'I' for Inactive)
REMARK    1  A    between atoms: S1_1  and  N1_4 
REMARK    2  A    between atoms: C4_8  and  S1_1 
REMARK    3  A    between atoms: C2_6  and  N2_12 
ROOT
ATOM      1  C1  MB1 d   1      -4.746   4.006  13.699  0.00  0.00    -0.049 A 
ATOM      2  C2  MB1 d   1      -4.470   2.627  13.478  0.00  0.00     0.104 A 
ATOM      3  C3  MB1 d   1      -4.840   1.665  14.426  0.00  0.00    -0.027 A 
ATOM      4  C4  MB1 d   1      -5.492   2.055  15.609  0.00  0.00     0.103 A 
ATOM      5  C5  MB1 d   1      -5.782   3.424  15.852  0.00  0.00     0.057 A 
ATOM      6  C6  MB1 d   1      -5.399   4.395  14.884  0.00  0.00    -0.058 A 
ATOM      7 CL   MB1 d   1      -6.581   3.902  17.277  0.00  0.00    -0.083 Cl
ATOM      8  H3  MB1 d   1      -4.457   4.748  12.963  0.00  0.00     0.087 H 
ATOM      9  H4  MB1 d   1      -4.623   0.618  14.247  0.00  0.00     0.089 H 
ATOM     10  H5  MB1 d   1      -5.612   5.443  15.061  0.00  0.00     0.086 H 
ENDROOT
BRANCH   4  11
ATOM     11  S1  MB1 d   1      -5.939   0.766  16.753  0.00  0.00     0.258 S 
ATOM     12  O1  MB1 d   1      -7.371   0.707  16.703  0.00  0.00    -0.201 OA
ATOM     13  O2  MB1 d   1      -5.300   1.057  18.007  0.00  0.00    -0.201 OA
BRANCH  11  14
ATOM     14  N1  MB1 d   1      -5.366  -0.603  16.243  0.00  0.00    -0.324 N 
ATOM     15  H1  MB1 d   1      -5.686  -0.987  15.377  0.00  0.00     0.169 HD
ATOM     16  H2  MB1 d   1      -4.681  -1.091  16.784  0.00  0.00     0.169 HD
ENDBRANCH  11  14
ENDBRANCH   4  11
BRANCH   2  17
ATOM     17  N2  MB1 d   1      -3.788   2.175  12.215  0.00  0.00    -0.116 N 
ATOM     18  O3  MB1 d   1      -4.160   2.742  10.965  0.00  0.00    -0.532 OA
ATOM     19  O4  MB1 d   1      -2.803   1.163  12.273  0.00  0.00    -0.532 OA
ENDBRANCH   2  17
TORSDOF 3
