REMARK  18 active torsions:
REMARK  status: ('A' for Active; 'I' for Inactive)
REMARK    1  A    between atoms: C2_4  and  C7_9 
REMARK    2  A    between atoms: C15_19  and  C4_6 
REMARK    3  A    between atoms: C6_8  and  C14_18 
REMARK       I    between atoms: C7_9  and  N1_10 
REMARK    4  A    between atoms: N1_10  and  C8_12 
REMARK    5  A    between atoms: N1_10  and  C9_13 
REMARK    6  A    between atoms: C8_12  and  C12_16 
REMARK    7  A    between atoms: C9_13  and  C10_14 
REMARK    8  A    between atoms: C10_14  and  C11_15 
REMARK    9  A    between atoms: C12_16  and  C13_17 
REMARK       I    between atoms: N2_21  and  C15_19 
REMARK   10  A    between atoms: C16_22  and  N2_21 
REMARK   11  A    between atoms: C16_22  and  C17_23 
REMARK   12  A    between atoms: C18_25  and  C16_22 
REMARK   13  A    between atoms: C17_23  and  O3_24 
REMARK   14  A    between atoms: C17_23  and  C25_32 
REMARK   15  A    between atoms: C19_26  and  C18_25 
REMARK   16  A    between atoms: C27_34  and  O4_38 
REMARK   17  A    between atoms: O4_38  and  C30_39 
REMARK   18  A    between atoms: C30_39  and  C31_40 
ROOT
ATOM      1  C16 SC7 d   1      22.554  10.914  23.053  0.00  0.00     0.043 C 
ATOM      2  H22 SC7 d   1      21.718  11.520  22.674  0.00  0.00     0.077 H 
ENDROOT
BRANCH   1   3
ATOM      3  N2  SC7 d   1      23.659  11.824  23.412  0.00  0.00    -0.349 N 
ATOM      4  C15 SC7 d   1      23.428  13.154  23.543  0.00  0.00     0.252 C 
ATOM      5  O2  SC7 d   1      22.320  13.655  23.400  0.00  0.00    -0.268 OA
ATOM      6  H21 SC7 d   1      24.579  11.460  23.559  0.00  0.00     0.163 HD
BRANCH   4   7
ATOM      7  C4  SC7 d   1      24.608  13.945  23.870  0.00  0.00     0.033 A 
ATOM      8  C3  SC7 d   1      25.896  13.554  23.411  0.00  0.00    -0.052 A 
ATOM      9  C2  SC7 d   1      27.041  14.358  23.724  0.00  0.00     0.033 A 
ATOM     10  H2  SC7 d   1      26.012  12.649  22.825  0.00  0.00     0.086 H 
ATOM     11  C1  SC7 d   1      26.890  15.538  24.501  0.00  0.00    -0.062 A 
ATOM     12  C6  SC7 d   1      25.598  15.926  24.952  0.00  0.00    -0.060 A 
ATOM     13  H1  SC7 d   1      27.756  16.140  24.749  0.00  0.00     0.085 H 
ATOM     14  C5  SC7 d   1      24.457  15.135  24.636  0.00  0.00    -0.062 A 
ATOM     15  H3  SC7 d   1      23.474  15.439  24.979  0.00  0.00     0.085 H 
BRANCH   9  16
ATOM     16  C7  SC7 d   1      28.372  13.944  23.296  0.00  0.00     0.253 C 
ATOM     17  N1  SC7 d   1      28.634  13.735  21.975  0.00  0.00    -0.348 N 
ATOM     18  O1  SC7 d   1      29.247  13.773  24.141  0.00  0.00    -0.267 OA
BRANCH  17  19
ATOM     19  C8  SC7 d   1      29.980  13.297  21.631  0.00  0.00    -0.002 C 
ATOM     20  H4  SC7 d   1      30.632  13.384  22.513  0.00  0.00     0.064 H 
ATOM     21  H5  SC7 d   1      30.375  13.926  20.819  0.00  0.00     0.064 H 
BRANCH  19  22
ATOM     22  C12 SC7 d   1      29.933  11.814  21.164  0.00  0.00    -0.053 C 
ATOM     23  H13 SC7 d   1      30.962  11.425  21.146  0.00  0.00     0.034 H 
ATOM     24  H14 SC7 d   1      29.512  11.785  20.148  0.00  0.00     0.034 H 
BRANCH  22  25
ATOM     25  C13 SC7 d   1      29.085  10.899  22.066  0.00  0.00    -0.075 C 
ATOM     26  H15 SC7 d   1      29.104   9.873  21.669  0.00  0.00     0.027 H 
ATOM     27  H16 SC7 d   1      28.048  11.265  22.088  0.00  0.00     0.027 H 
ATOM     28  H17 SC7 d   1      29.498  10.905  23.086  0.00  0.00     0.027 H 
ENDBRANCH  22  25
ENDBRANCH  19  22
ENDBRANCH  17  19
BRANCH  17  29
ATOM     29  C9  SC7 d   1      27.681  13.931  20.886  0.00  0.00    -0.002 C 
ATOM     30  H6  SC7 d   1      26.714  14.264  21.291  0.00  0.00     0.064 H 
ATOM     31  H7  SC7 d   1      27.543  12.988  20.337  0.00  0.00     0.064 H 
BRANCH  29  32
ATOM     32  C10 SC7 d   1      28.248  15.003  19.946  0.00  0.00    -0.053 C 
ATOM     33  H8  SC7 d   1      27.434  15.377  19.308  0.00  0.00     0.034 H 
ATOM     34  H9  SC7 d   1      29.025  14.544  19.317  0.00  0.00     0.034 H 
BRANCH  32  35
ATOM     35  C11 SC7 d   1      28.874  16.206  20.711  0.00  0.00    -0.075 C 
ATOM     36  H10 SC7 d   1      29.262  16.939  19.988  0.00  0.00     0.027 H 
ATOM     37  H11 SC7 d   1      29.697  15.848  21.347  0.00  0.00     0.027 H 
ATOM     38  H12 SC7 d   1      28.106  16.682  21.338  0.00  0.00     0.027 H 
ENDBRANCH  32  35
ENDBRANCH  29  32
ENDBRANCH  17  29
ENDBRANCH   9  16
BRANCH  12  39
ATOM     39  C14 SC7 d   1      25.425  17.155  25.753  0.00  0.00    -0.051 C 
ATOM     40  H18 SC7 d   1      26.403  17.637  25.901  0.00  0.00     0.033 H 
ATOM     41  H19 SC7 d   1      24.992  16.898  26.731  0.00  0.00     0.033 H 
ATOM     42  H20 SC7 d   1      24.752  17.846  25.224  0.00  0.00     0.033 H 
ENDBRANCH  12  39
ENDBRANCH   4   7
ENDBRANCH   1   3
BRANCH   1  43
ATOM     43  C17 SC7 d   1      22.035  10.093  24.262  0.00  0.00     0.083 C 
ATOM     44  H23 SC7 d   1      22.878   9.539  24.701  0.00  0.00     0.089 H 
BRANCH  43  45
ATOM     45  O3  SC7 d   1      21.019   9.166  23.819  0.00  0.00    -0.391 OA
ATOM     46  H24 SC7 d   1      21.390   8.577  23.173  0.00  0.00     0.210 HD
ENDBRANCH  43  45
BRANCH  43  47
ATOM     47  C25 SC7 d   1      21.404  10.975  25.331  0.00  0.00     0.130 C 
ATOM     48  C26 SC7 d   1      20.192  11.747  24.767  0.00  0.00    -0.012 C 
ATOM     49  C27 SC7 d   1      19.393  12.441  25.854  0.00  0.00     0.042 C 
ATOM     50  H31 SC7 d   1      19.534  11.038  24.243  0.00  0.00     0.040 H 
ATOM     51  H32 SC7 d   1      20.555  12.505  24.057  0.00  0.00     0.040 H 
ATOM     52  C28 SC7 d   1      19.017  11.457  26.958  0.00  0.00    -0.018 C 
ATOM     53  H33 SC7 d   1      19.993  13.252  26.292  0.00  0.00     0.083 H 
ATOM     54  C29 SC7 d   1      20.256  10.786  27.532  0.00  0.00     0.084 C 
ATOM     55  H34 SC7 d   1      18.350  10.687  26.543  0.00  0.00     0.039 H 
ATOM     56  H35 SC7 d   1      18.496  11.999  27.761  0.00  0.00     0.039 H 
ATOM     57  N3  SC7 d   1      20.996  10.093  26.442  0.00  0.00    -0.068 N 
ATOM     58  H36 SC7 d   1      19.956  10.053  28.295  0.00  0.00     0.075 H 
ATOM     59  H37 SC7 d   1      20.906  11.546  27.990  0.00  0.00     0.075 H 
ATOM     60  H38 SC7 d   1      21.825   9.678  26.837  0.00  0.00     0.277 HD
ATOM     61  H39 SC7 d   1      20.403   9.368  26.069  0.00  0.00     0.277 HD
ATOM     62  H30 SC7 d   1      22.147  11.700  25.693  0.00  0.00     0.088 H 
BRANCH  49  63
ATOM     63  O4  SC7 d   1      18.235  12.988  25.236  0.00  0.00    -0.386 OA
BRANCH  63  64
ATOM     64  C30 SC7 d   1      17.445  13.697  26.174  0.00  0.00     0.017 C 
ATOM     65  H40 SC7 d   1      18.079  14.374  26.765  0.00  0.00     0.073 H 
ATOM     66  H41 SC7 d   1      16.936  12.991  26.847  0.00  0.00     0.073 H 
BRANCH  64  67
ATOM     67  C31 SC7 d   1      16.412  14.505  25.383  0.00  0.00    -0.056 C 
ATOM     68  H42 SC7 d   1      15.777  15.071  26.081  0.00  0.00     0.030 H 
ATOM     69  H43 SC7 d   1      15.786  13.821  24.791  0.00  0.00     0.030 H 
ATOM     70  H44 SC7 d   1      16.930  15.203  24.709  0.00  0.00     0.030 H 
ENDBRANCH  64  67
ENDBRANCH  63  64
ENDBRANCH  49  63
ENDBRANCH  43  47
ENDBRANCH   1  43
BRANCH   1  71
ATOM     71  C18 SC7 d   1      23.040   9.980  21.922  0.00  0.00    -0.020 C 
ATOM     72  H25 SC7 d   1      22.187   9.399  21.540  0.00  0.00     0.043 H 
ATOM     73  H26 SC7 d   1      23.802   9.294  22.321  0.00  0.00     0.043 H 
BRANCH  71  74
ATOM     74  C19 SC7 d   1      23.641  10.789  20.788  0.00  0.00    -0.050 A 
ATOM     75  C20 SC7 d   1      24.984  10.560  20.379  0.00  0.00    -0.039 A 
ATOM     76  C21 SC7 d   1      25.545  11.319  19.311  0.00  0.00     0.119 A 
ATOM     77  H27 SC7 d   1      25.582   9.807  20.880  0.00  0.00     0.089 H 
ATOM     78  F1  SC7 d   1      26.798  11.102  18.930  0.00  0.00    -0.206 F 
ATOM     79  C22 SC7 d   1      24.768  12.310  18.657  0.00  0.00    -0.009 A 
ATOM     80  C23 SC7 d   1      23.430  12.537  19.071  0.00  0.00     0.119 A 
ATOM     81  H28 SC7 d   1      25.194  12.890  17.846  0.00  0.00     0.092 H 
ATOM     82  F2  SC7 d   1      22.698  13.469  18.463  0.00  0.00    -0.206 F 
ATOM     83  C24 SC7 d   1      22.863  11.782  20.130  0.00  0.00    -0.039 A 
ATOM     84  H29 SC7 d   1      21.839  11.961  20.437  0.00  0.00     0.089 H 
ENDBRANCH  71  74
ENDBRANCH   1  71
TORSDOF 18
