REMARK  16 active torsions:
REMARK  status: ('A' for Active; 'I' for Inactive)
REMARK    1  A    between atoms: C2_2  and  C1_1 
REMARK    2  A    between atoms: N3_30  and  C2_2 
REMARK    3  A    between atoms: C2_2  and  P4_31 
REMARK    4  A    between atoms: C7_4  and  C8_5 
REMARK    5  A    between atoms: P4_31  and  C7_4 
REMARK    6  A    between atoms: C8_5  and  C9_6 
REMARK    7  A    between atoms: C8_5  and  C10_7 
REMARK    8  A    between atoms: C9_6  and  C11_8 
REMARK       I    between atoms: C10_7  and  N34_33 
REMARK    9  A    between atoms: C27_14  and  C32_17 
REMARK   10  A    between atoms: C28_28  and  C27_14 
REMARK   11  A    between atoms: C28_28  and  N29_15 
REMARK   12  A    between atoms: C32_17  and  C30_16 
REMARK       I    between atoms: C30_16  and  N3_30 
REMARK   13  A    between atoms: N34_33  and  C35_18 
REMARK   14  A    between atoms: C35_18  and  C37_34 
REMARK   15  A    between atoms: C35_18  and  C36_37 
REMARK       I    between atoms: C_26  and  N_25 
REMARK   16  A    between atoms: C_26  and  C28_28 
ROOT
ATOM      1  NZ  I20 d   1      26.619  56.192  22.897  0.00  0.00    -0.195 NA
ATOM      2  CE  I20 d   1      27.006  55.096  22.731  0.00  0.00     0.084 C 
ATOM      3  CD  I20 d   1      27.481  53.857  22.545  0.00  0.00     0.098 C 
ATOM      4  CG  I20 d   1      28.683  53.590  21.740  0.00  0.00    -0.032 C 
ATOM      5  CB  I20 d   1      28.685  51.951  21.474  0.00  0.00    -0.047 C 
ATOM      6  CA  I20 d   1      27.615  51.385  22.540  0.00  0.00    -0.001 C 
ATOM      7  N   I20 d   1      26.921  52.572  23.064  0.00  0.00    -0.333 N 
ATOM      8  C   I20 d   1      25.878  52.486  24.020  0.00  0.00     0.251 C 
ATOM      9  O   I20 d   1      25.387  53.486  24.515  0.00  0.00    -0.271 OA
ATOM     10  H23 I20 d   1      28.077  53.983  23.461  0.00  0.00     0.096 H 
ATOM     11  H24 I20 d   1      29.588  53.891  22.288  0.00  0.00     0.037 H 
ATOM     12  H25 I20 d   1      28.635  54.134  20.785  0.00  0.00     0.037 H 
ATOM     13  H26 I20 d   1      29.683  51.526  21.657  0.00  0.00     0.035 H 
ATOM     14  H27 I20 d   1      28.372  51.721  20.445  0.00  0.00     0.035 H 
ATOM     15  H28 I20 d   1      28.128  50.849  23.352  0.00  0.00     0.064 H 
ATOM     16  H29 I20 d   1      26.901  50.708  22.047  0.00  0.00     0.064 H 
ENDROOT
BRANCH   8  17
ATOM     17  C28 I20 d   1      25.425  51.120  24.421  0.00  0.00     0.176 C 
ATOM     18  H30 I20 d   1      24.510  50.856  23.870  0.00  0.00     0.099 H 
BRANCH  17  19
ATOM     19  C27 I20 d   1      25.175  51.046  25.924  0.00  0.00    -0.022 C 
ATOM     20  H15 I20 d   1      24.359  51.736  26.187  0.00  0.00     0.037 H 
ATOM     21  H16 I20 d   1      24.887  50.018  26.190  0.00  0.00     0.037 H 
BRANCH  19  22
ATOM     22  C32 I20 d   1      26.424  51.431  26.709  0.00  0.00     0.011 C 
ATOM     23  H20 I20 d   1      26.327  52.468  27.061  0.00  0.00     0.047 H 
ATOM     24  H21 I20 d   1      27.305  51.346  26.056  0.00  0.00     0.047 H 
BRANCH  22  25
ATOM     25  C30 I20 d   1      26.592  50.513  27.897  0.00  0.00     0.218 C 
ATOM     26  O31 I20 d   1      27.192  49.456  27.781  0.00  0.00    -0.274 OA
ATOM     27  N3  I20 d   1      26.060  50.908  29.051  0.00  0.00    -0.347 N 
ATOM     28  H31 I20 d   1      25.565  51.775  29.108  0.00  0.00     0.163 HD
BRANCH  27  29
ATOM     29  C2  I20 d   1      26.205  50.066  30.230  0.00  0.00     0.084 C 
ATOM     30  H4  I20 d   1      26.889  49.236  29.998  0.00  0.00     0.088 H 
BRANCH  29  31
ATOM     31  C1  I20 d   1      26.796  50.882  31.378  0.00  0.00    -0.048 C 
ATOM     32  H1  I20 d   1      27.776  51.282  31.077  0.00  0.00     0.030 H 
ATOM     33  H2  I20 d   1      26.919  50.237  32.261  0.00  0.00     0.030 H 
ATOM     34  H3  I20 d   1      26.120  51.714  31.622  0.00  0.00     0.030 H 
ENDBRANCH  29  31
BRANCH  29  35
ATOM     35  P4  I20 d   1      24.665  49.417  30.656  0.00  0.00     0.130 P 
ATOM     36  O5  I20 d   1      24.291  48.416  29.594  0.00  0.00    -0.666 OA
ATOM     37  O6  I20 d   1      23.726  50.560  30.952  0.00  0.00    -0.666 OA
BRANCH  35  38
ATOM     38  C7  I20 d   1      24.846  48.554  32.042  0.00  0.00     0.021 C 
ATOM     39  H5  I20 d   1      25.293  47.589  31.760  0.00  0.00     0.050 H 
ATOM     40  H6  I20 d   1      25.551  49.113  32.675  0.00  0.00     0.050 H 
BRANCH  38  41
ATOM     41  C8  I20 d   1      23.636  48.243  32.901  0.00  0.00     0.036 C 
ATOM     42  H7  I20 d   1      22.765  48.111  32.243  0.00  0.00     0.056 H 
BRANCH  41  43
ATOM     43  C9  I20 d   1      23.828  46.964  33.717  0.00  0.00    -0.029 C 
ATOM     44  H8  I20 d   1      24.708  47.085  34.366  0.00  0.00     0.041 H 
ATOM     45  H9  I20 d   1      23.994  46.124  33.027  0.00  0.00     0.041 H 
BRANCH  43  46
ATOM     46  C11 I20 d   1      22.618  46.656  34.583  0.00  0.00    -0.057 A 
ATOM     47  C12 I20 d   1      22.674  46.838  35.962  0.00  0.00    -0.077 A 
ATOM     48  C13 I20 d   1      21.567  46.540  36.758  0.00  0.00    -0.082 A 
ATOM     49  H10 I20 d   1      23.582  47.213  36.420  0.00  0.00     0.084 H 
ATOM     50  C14 I20 d   1      20.393  46.066  36.189  0.00  0.00    -0.083 A 
ATOM     51  H11 I20 d   1      21.625  46.680  37.831  0.00  0.00     0.083 H 
ATOM     52  C15 I20 d   1      20.336  45.888  34.813  0.00  0.00    -0.082 A 
ATOM     53  H12 I20 d   1      19.534  45.838  36.809  0.00  0.00     0.083 H 
ATOM     54  C16 I20 d   1      21.445  46.177  34.020  0.00  0.00    -0.077 A 
ATOM     55  H13 I20 d   1      19.425  45.523  34.354  0.00  0.00     0.083 H 
ATOM     56  H14 I20 d   1      21.390  46.025  32.948  0.00  0.00     0.084 H 
ENDBRANCH  43  46
ENDBRANCH  41  43
BRANCH  41  57
ATOM     57  C10 I20 d   1      23.377  49.388  33.834  0.00  0.00     0.223 C 
ATOM     58  N34 I20 d   1      24.447  49.924  34.416  0.00  0.00    -0.347 N 
ATOM     59  H32 I20 d   1      25.363  49.646  34.128  0.00  0.00     0.163 HD
ATOM     60  O33 I20 d   1      22.234  49.776  34.028  0.00  0.00    -0.273 OA
BRANCH  58  61
ATOM     61  C35 I20 d   1      24.286  50.916  35.474  0.00  0.00     0.092 C 
ATOM     62  H22 I20 d   1      23.257  51.304  35.445  0.00  0.00     0.089 H 
BRANCH  61  63
ATOM     63  C37 I20 d   1      25.240  52.049  35.253  0.00  0.00     0.196 C 
ATOM     64  O39 I20 d   1      25.020  53.141  35.763  0.00  0.00    -0.646 OA
ATOM     65  O38 I20 d   1      26.233  51.876  34.553  0.00  0.00    -0.646 OA
ENDBRANCH  61  63
BRANCH  61  66
ATOM     66  C36 I20 d   1      24.536  50.283  36.839  0.00  0.00    -0.048 C 
ATOM     67  H33 I20 d   1      24.411  51.043  37.624  0.00  0.00     0.030 H 
ATOM     68  H34 I20 d   1      25.560  49.883  36.876  0.00  0.00     0.030 H 
ATOM     69  H35 I20 d   1      23.817  49.466  37.002  0.00  0.00     0.030 H 
ENDBRANCH  61  66
ENDBRANCH  58  61
ENDBRANCH  41  57
ENDBRANCH  38  41
ENDBRANCH  35  38
ENDBRANCH  29  35
ENDBRANCH  27  29
ENDBRANCH  22  25
ENDBRANCH  19  22
ENDBRANCH  17  19
BRANCH  17  70
ATOM     70  N29 I20 d   1      26.487  50.168  24.138  0.00  0.00    -0.066 N 
ATOM     71  H17 I20 d   1      26.692  50.177  23.151  0.00  0.00     0.275 HD
ATOM     72  H18 I20 d   1      26.191  49.244  24.411  0.00  0.00     0.275 HD
ATOM     73  H19 I20 d   1      27.314  50.423  24.656  0.00  0.00     0.275 HD
ENDBRANCH  17  70
ENDBRANCH   8  17
TORSDOF 16
