REMARK  9 active torsions:
REMARK  status: ('A' for Active; 'I' for Inactive)
REMARK    1  A    between atoms: C5_7  and  N1_8 
REMARK    2  A    between atoms: N1_8  and  C6_9 
REMARK    3  A    between atoms: C9_18  and  N11_19 
REMARK       I    between atoms: N11_19  and  C10_20 
REMARK    4  A    between atoms: C10_20  and  C11_22 
REMARK    5  A    between atoms: C11_22  and  C51_23 
REMARK    6  A    between atoms: C51_23  and  C61_24 
REMARK    7  A    between atoms: C61_24  and  N63_25 
REMARK    8  A    between atoms: N63_25  and  C65_26 
REMARK    9  A    between atoms: N63_25  and  C67_27 
ROOT
ATOM      1  C6  SR2 d   1       8.458  -5.150  -6.303  0.00  0.00     0.142 A 
ATOM      2  C7  SR2 d   1       9.340  -5.839  -5.467  0.00  0.00     0.041 A 
ATOM      3  C8  SR2 d   1       8.880  -6.795  -4.538  0.00  0.00    -0.041 A 
ATOM      4  N3  SR2 d   1       8.959  -4.229  -7.172  0.00  0.00    -0.224 NA
ATOM      5  C19 SR2 d   1      10.265  -3.973  -7.249  0.00  0.00     0.089 A 
ATOM      6  N2  SR2 d   1      11.133  -4.624  -6.479  0.00  0.00    -0.241 NA
ATOM      7  C18 SR2 d   1      10.707  -5.543  -5.590  0.00  0.00     0.072 A 
ATOM      8  C17 SR2 d   1      11.623  -6.196  -4.781  0.00  0.00    -0.052 A 
ATOM      9  C13 SR2 d   1      11.165  -7.136  -3.863  0.00  0.00    -0.055 A 
ATOM     10  C9  SR2 d   1       9.808  -7.450  -3.729  0.00  0.00     0.035 A 
ATOM     11  H6  SR2 d   1       7.822  -7.017  -4.454  0.00  0.00     0.088 H 
ATOM     12  H7  SR2 d   1      10.624  -3.226  -7.947  0.00  0.00     0.146 H 
ATOM     13  H8  SR2 d   1      12.682  -5.978  -4.862  0.00  0.00     0.087 H 
ATOM     14  H9  SR2 d   1      11.884  -7.643  -3.230  0.00  0.00     0.087 H 
ENDROOT
BRANCH  10  15
ATOM     15  N11 SR2 d   1       9.511  -8.354  -2.782  0.00  0.00    -0.327 N 
ATOM     16  C10 SR2 d   1       8.505  -8.237  -1.892  0.00  0.00     0.222 C 
ATOM     17  O61 SR2 d   1       7.664  -7.331  -1.873  0.00  0.00    -0.273 OA
ATOM     18  H10 SR2 d   1      10.079  -9.176  -2.733  0.00  0.00     0.169 HD
BRANCH  16  19
ATOM     19  C11 SR2 d   1       8.444  -9.383  -0.868  0.00  0.00     0.011 C 
ATOM     20  H11 SR2 d   1       9.480  -9.652  -0.615  0.00  0.00     0.047 H 
ATOM     21  H12 SR2 d   1       7.953 -10.236  -1.359  0.00  0.00     0.047 H 
BRANCH  19  22
ATOM     22  C51 SR2 d   1       7.691  -9.123   0.472  0.00  0.00    -0.035 C 
ATOM     23  H13 SR2 d   1       8.058  -8.180   0.902  0.00  0.00     0.036 H 
ATOM     24  H14 SR2 d   1       7.910  -9.951   1.163  0.00  0.00     0.036 H 
BRANCH  22  25
ATOM     25  C61 SR2 d   1       6.150  -9.020   0.296  0.00  0.00     0.083 C 
ATOM     26  H15 SR2 d   1       5.851  -9.513  -0.641  0.00  0.00     0.075 H 
ATOM     27  H16 SR2 d   1       5.851  -7.962   0.265  0.00  0.00     0.075 H 
BRANCH  25  28
ATOM     28  N63 SR2 d   1       5.488  -9.694   1.451  0.00  0.00    -0.079 N 
ATOM     29  H17 SR2 d   1       5.814 -10.646   1.504  0.00  0.00     0.278 HD
BRANCH  28  30
ATOM     30  C65 SR2 d   1       4.032  -9.682   1.215  0.00  0.00     0.066 C 
ATOM     31  H18 SR2 d   1       3.520 -10.175   2.055  0.00  0.00     0.068 H 
ATOM     32  H19 SR2 d   1       3.807 -10.220   0.282  0.00  0.00     0.068 H 
ATOM     33  H20 SR2 d   1       3.683  -8.642   1.132  0.00  0.00     0.068 H 
ENDBRANCH  28  30
BRANCH  28  34
ATOM     34  C67 SR2 d   1       5.773  -9.029   2.726  0.00  0.00     0.066 C 
ATOM     35  H21 SR2 d   1       6.858  -9.035   2.908  0.00  0.00     0.068 H 
ATOM     36  H22 SR2 d   1       5.262  -9.563   3.541  0.00  0.00     0.068 H 
ATOM     37  H23 SR2 d   1       5.413  -7.990   2.686  0.00  0.00     0.068 H 
ENDBRANCH  28  34
ENDBRANCH  25  28
ENDBRANCH  22  25
ENDBRANCH  19  22
ENDBRANCH  16  19
ENDBRANCH  10  15
BRANCH   1  38
ATOM     38  N1  SR2 d   1       7.145  -5.410  -6.205  0.00  0.00    -0.340 N 
ATOM     39  H5  SR2 d   1       6.829  -6.006  -5.426  0.00  0.00     0.167 HD
BRANCH  38  40
ATOM     40  C5  SR2 d   1       6.225  -4.949  -7.047  0.00  0.00     0.035 A 
ATOM     41  C4  SR2 d   1       6.492  -4.911  -8.414  0.00  0.00    -0.040 A 
ATOM     42  C3  SR2 d   1       5.535  -4.439  -9.307  0.00  0.00     0.013 A 
ATOM     43  H1  SR2 d   1       7.452  -5.252  -8.784  0.00  0.00     0.089 H 
ATOM     44 BRR1 SR2 d   1       5.964  -4.399 -11.173  0.00  0.00    -0.051 Br
ATOM     45  C22 SR2 d   1       4.292  -4.007  -8.818  0.00  0.00    -0.066 A 
ATOM     46  C21 SR2 d   1       4.022  -4.046  -7.443  0.00  0.00    -0.080 A 
ATOM     47  H2  SR2 d   1       3.538  -3.642  -9.506  0.00  0.00     0.085 H 
ATOM     48  C20 SR2 d   1       4.989  -4.521  -6.555  0.00  0.00    -0.057 A 
ATOM     49  H3  SR2 d   1       3.062  -3.707  -7.069  0.00  0.00     0.083 H 
ATOM     50  H4  SR2 d   1       4.782  -4.558  -5.492  0.00  0.00     0.086 H 
ENDBRANCH  38  40
ENDBRANCH   1  38
TORSDOF 9
