REMARK WARNING: 32 MAX_TORS EXCEEDED!!!
REMARK  44 active torsions:
REMARK  status: ('A' for Active; 'I' for Inactive)
REMARK    1  A    between atoms: N_1  and  CA_2 
REMARK    2  A    between atoms: CA_2  and  C_3 
REMARK    3  A    between atoms: CA_2  and  CB_5 
REMARK       I    between atoms: C_3  and  N_12 
REMARK    4  A    between atoms: CB_5  and  CG_6 
REMARK    5  A    between atoms: CG_6  and  CD_7 
REMARK    6  A    between atoms: CD_7  and  NE_8 
REMARK       I    between atoms: NE_8  and  CZ_9 
REMARK       I    between atoms: CZ_9  and  NH1_10 
REMARK       I    between atoms: CZ_9  and  NH2_11 
REMARK    7  A    between atoms: N_12  and  CA_13 
REMARK    8  A    between atoms: CA_13  and  C_14 
REMARK    9  A    between atoms: CA_13  and  CB_16 
REMARK       I    between atoms: C_14  and  N_22 
REMARK   10  A    between atoms: CB_16  and  CG_17 
REMARK   11  A    between atoms: N_22  and  CA_23 
REMARK   12  A    between atoms: CA_23  and  C_24 
REMARK   13  A    between atoms: CA_23  and  CB_26 
REMARK       I    between atoms: C_24  and  N_33 
REMARK   14  A    between atoms: CB_26  and  CG_27 
REMARK   15  A    between atoms: CG_27  and  CD_28 
REMARK   16  A    between atoms: CD_28  and  NE_29 
REMARK       I    between atoms: NE_29  and  CZ_30 
REMARK       I    between atoms: CZ_30  and  NH1_31 
REMARK       I    between atoms: CZ_30  and  NH2_32 
REMARK   17  A    between atoms: N_33  and  CA_34 
REMARK   18  A    between atoms: CA_34  and  CB_35 
REMARK   19  A    between atoms: CA_34  and  C_40 
REMARK   20  A    between atoms: CB_35  and  CG_36 
REMARK   21  A    between atoms: CG_36  and  CD_37 
REMARK   22  A    between atoms: CD_37  and  CE_38 
REMARK   23  A    between atoms: CE_38  and  NZ_39 
REMARK   24  A    between atoms: NZ_39  and  CM1_42 
REMARK   25  A    between atoms: NZ_39  and  CM2_43 
REMARK   26  A    between atoms: NZ_39  and  CM3_44 
REMARK       I    between atoms: C_40  and  N_45 
REMARK   27  A    between atoms: N_45  and  CA_46 
REMARK   28  A    between atoms: CA_46  and  C_47 
REMARK   29  A    between atoms: CA_46  and  CB_49 
REMARK       I    between atoms: C_47  and  N_52 
REMARK   30  A    between atoms: CB_49  and  CG1_50 
REMARK   31  A    between atoms: CB_49  and  CG2_51 
REMARK   32  A    between atoms: N_52  and  CA_53 
REMARK   33  A    between atoms: CA_53  and  C_54 
REMARK   34  A    between atoms: CA_53  and  CB_56 
REMARK       I    between atoms: C_54  and  N_60 
REMARK   35  A    between atoms: CB_56  and  CG_57 
REMARK   36  A    between atoms: CG_57  and  CD1_58 
REMARK   37  A    between atoms: CG_57  and  CD2_59 
REMARK   38  A    between atoms: N_60  and  CA_61 
REMARK   39  A    between atoms: CA_61  and  C_62 
REMARK   40  A    between atoms: CA_61  and  CB_64 
REMARK   41  A    between atoms: C_62  and  O_147 
REMARK   42  A    between atoms: CB_64  and  CG_65 
REMARK   43  A    between atoms: CG_65  and  CD_66 
REMARK   44  A    between atoms: CD_66  and  NE_67 
REMARK       I    between atoms: NE_67  and  CZ_68 
REMARK       I    between atoms: CZ_68  and  NH1_69 
REMARK       I    between atoms: CZ_68  and  NH2_70 
ROOT
ATOM      1  CA  M3L d   1      10.963 -15.107   8.961  0.00  0.00     0.089 C 
ATOM      2  H37 M3L d   1      10.868 -14.101   9.395  0.00  0.00     0.087 H 
ENDROOT
BRANCH   1   3
ATOM      3  N   M3L d   1      12.439 -15.255   8.901  0.00  0.00    -0.346 N 
ATOM      4  C   ARG d   1      13.150 -14.129   8.802  0.00  0.00     0.241 C 
ATOM      5  O   ARG d   1      12.592 -13.025   8.709  0.00  0.00    -0.271 OA
ATOM      6  H36 M3L d   1      12.879 -16.153   8.933  0.00  0.00     0.163 HD
BRANCH   4   7
ATOM      7  CA  ARG d   1      14.693 -14.167   8.764  0.00  0.00     0.089 C 
ATOM      8  H24 ARG d   1      15.000 -13.314   9.387  0.00  0.00     0.087 H 
BRANCH   7   9
ATOM      9  N   ARG d   1      15.419 -15.296   9.333  0.00  0.00    -0.346 N 
ATOM     10  C   HIS d   1      15.525 -15.487  10.640  0.00  0.00     0.241 C 
ATOM     11  O   HIS d   1      14.966 -14.802  11.477  0.00  0.00    -0.271 OA
ATOM     12  H23 ARG d   1      15.853 -15.950   8.714  0.00  0.00     0.163 HD
BRANCH  10  13
ATOM     13  CA  HIS d   1      16.395 -16.635  11.060  0.00  0.00     0.094 C 
ATOM     14  H17 HIS d   1      17.332 -16.578  10.487  0.00  0.00     0.088 H 
BRANCH  13  15
ATOM     15  N   HIS d   1      16.735 -16.534  12.466  0.00  0.00    -0.346 N 
ATOM     16  C   ARG d   1      17.880 -15.985  12.861  0.00  0.00     0.249 C 
ATOM     17  O   ARG d   1      18.735 -15.573  12.074  0.00  0.00    -0.271 OA
ATOM     18  H16 HIS d   1      16.096 -16.884  13.152  0.00  0.00     0.163 HD
BRANCH  16  19
ATOM     19  CA  ARG d   1      18.098 -15.901  14.367  0.00  0.00     0.176 C 
ATOM     20  H4  ARG d   1      17.778 -16.848  14.826  0.00  0.00     0.099 H 
BRANCH  19  21
ATOM     21  N   ARG d   1      19.522 -15.692  14.649  0.00  0.00    -0.067 N 
ATOM     22  H1  ARG d   1      19.663 -15.637  15.646  0.00  0.00     0.275 HD
ATOM     23  H2  ARG d   1      19.827 -14.833  14.219  0.00  0.00     0.275 HD
ATOM     24  H3  ARG d   1      20.055 -16.462  14.277  0.00  0.00     0.275 HD
ENDBRANCH  19  21
BRANCH  19  25
ATOM     25  CB  ARG d   1      17.275 -14.762  14.965  0.00  0.00    -0.029 C 
ATOM     26  H5  ARG d   1      16.384 -14.621  14.336  0.00  0.00     0.036 H 
ATOM     27  H6  ARG d   1      17.890 -13.850  14.940  0.00  0.00     0.036 H 
BRANCH  25  28
ATOM     28  CG  ARG d   1      16.807 -14.974  16.402  0.00  0.00    -0.047 C 
ATOM     29  H7  ARG d   1      17.678 -15.217  17.028  0.00  0.00     0.035 H 
ATOM     30  H8  ARG d   1      16.094 -15.812  16.424  0.00  0.00     0.035 H 
BRANCH  28  31
ATOM     31  CD  ARG d   1      16.121 -13.723  16.970  0.00  0.00     0.009 C 
ATOM     32  H9  ARG d   1      15.990 -12.999  16.153  0.00  0.00     0.064 H 
ATOM     33  H10 ARG d   1      16.774 -13.290  17.742  0.00  0.00     0.064 H 
BRANCH  31  34
ATOM     34  NE  ARG d   1      14.809 -13.985  17.569  0.00  0.00    -0.227 N 
ATOM     35  CZ  ARG d   1      14.611 -14.355  18.828  0.00  0.00     0.665 C 
ATOM     36  NH1 ARG d   1      15.631 -14.534  19.661  0.00  0.00    -0.235 N 
ATOM     37  NH2 ARG d   1      13.381 -14.561  19.261  0.00  0.00    -0.235 N 
ATOM     38  H12 ARG d   1      15.457 -14.821  20.635  0.00  0.00     0.174 HD
ATOM     39  H13 ARG d   1      16.596 -14.385  19.333  0.00  0.00     0.174 HD
ATOM     40  H14 ARG d   1      12.582 -14.426  18.625  0.00  0.00     0.174 HD
ATOM     41  H15 ARG d   1      13.220 -14.857  20.234  0.00  0.00     0.174 HD
ATOM     42  H11 ARG d   1      13.980 -13.874  16.968  0.00  0.00     0.177 HD
ENDBRANCH  31  34
ENDBRANCH  28  31
ENDBRANCH  25  28
ENDBRANCH  19  25
ENDBRANCH  16  19
ENDBRANCH  13  15
BRANCH  13  43
ATOM     43  CB  HIS d   1      15.720 -17.966  10.715  0.00  0.00     0.004 C 
ATOM     44  H18 HIS d   1      16.502 -18.681  10.419  0.00  0.00     0.046 H 
ATOM     45  H19 HIS d   1      15.040 -17.796   9.867  0.00  0.00     0.046 H 
BRANCH  43  46
ATOM     46  CG  HIS d   1      14.931 -18.574  11.831  0.00  0.00     0.053 A 
ATOM     47  ND1 HIS d   1      13.599 -18.901  11.704  0.00  0.00    -0.247 NA
ATOM     48  CE1 HIS d   1      13.171 -19.447  12.827  0.00  0.00     0.064 A 
ATOM     49  NE2 HIS d   1      14.183 -19.502  13.674  0.00  0.00    -0.359 N 
ATOM     50  H21 HIS d   1      12.157 -19.793  13.022  0.00  0.00     0.143 H 
ATOM     51  CD2 HIS d   1      15.297 -18.968  13.073  0.00  0.00     0.002 A 
ATOM     52  H22 HIS d   1      14.143 -19.883  14.630  0.00  0.00     0.166 HD
ATOM     53  H20 HIS d   1      16.289 -18.878  13.514  0.00  0.00     0.114 H 
ENDBRANCH  43  46
ENDBRANCH  13  43
ENDBRANCH  10  13
ENDBRANCH   7   9
BRANCH   7  54
ATOM     54  CB  ARG d   1      15.182 -13.849   7.336  0.00  0.00    -0.036 C 
ATOM     55  H25 ARG d   1      14.907 -14.686   6.677  0.00  0.00     0.036 H 
ATOM     56  H26 ARG d   1      16.277 -13.742   7.356  0.00  0.00     0.036 H 
BRANCH  54  57
ATOM     57  CG  ARG d   1      14.569 -12.544   6.758  0.00  0.00    -0.048 C 
ATOM     58  H27 ARG d   1      14.331 -11.867   7.591  0.00  0.00     0.035 H 
ATOM     59  H28 ARG d   1      13.646 -12.797   6.217  0.00  0.00     0.035 H 
BRANCH  57  60
ATOM     60  CD  ARG d   1      15.507 -11.835   5.810  0.00  0.00     0.009 C 
ATOM     61  H29 ARG d   1      15.390 -12.266   4.805  0.00  0.00     0.064 H 
ATOM     62  H30 ARG d   1      16.541 -11.984   6.155  0.00  0.00     0.064 H 
BRANCH  60  63
ATOM     63  NE  ARG d   1      15.232 -10.402   5.745  0.00  0.00    -0.227 N 
ATOM     64  CZ  ARG d   1      15.848  -9.479   6.478  0.00  0.00     0.665 C 
ATOM     65  NH1 ARG d   1      16.786  -9.820   7.346  0.00  0.00    -0.235 N 
ATOM     66  NH2 ARG d   1      15.523  -8.201   6.336  0.00  0.00    -0.235 N 
ATOM     67  H32 ARG d   1      17.256  -9.096   7.908  0.00  0.00     0.174 HD
ATOM     68  H33 ARG d   1      17.047 -10.810   7.460  0.00  0.00     0.174 HD
ATOM     69  H34 ARG d   1      14.794  -7.927   5.662  0.00  0.00     0.174 HD
ATOM     70  H35 ARG d   1      16.000  -7.483   6.899  0.00  0.00     0.174 HD
ATOM     71  H31 ARG d   1      14.509 -10.084   5.084  0.00  0.00     0.177 HD
ENDBRANCH  60  63
ENDBRANCH  57  60
ENDBRANCH  54  57
ENDBRANCH   7  54
ENDBRANCH   4   7
ENDBRANCH   1   3
BRANCH   1  72
ATOM     72  CB  M3L d   1      10.157 -15.962   9.938  0.00  0.00    -0.038 C 
ATOM     73  H38 M3L d   1      10.676 -16.016  10.906  0.00  0.00     0.036 H 
ATOM     74  H39 M3L d   1      10.031 -16.977   9.533  0.00  0.00     0.036 H 
BRANCH  72  75
ATOM     75  CG  M3L d   1       8.792 -15.298  10.115  0.00  0.00    -0.061 C 
ATOM     76  H40 M3L d   1       8.058 -15.849   9.508  0.00  0.00     0.033 H 
ATOM     77  H41 M3L d   1       8.862 -14.261   9.754  0.00  0.00     0.033 H 
BRANCH  75  78
ATOM     78  CD  M3L d   1       8.300 -15.270  11.546  0.00  0.00    -0.042 C 
ATOM     79  H42 M3L d   1       7.919 -14.264  11.777  0.00  0.00     0.035 H 
ATOM     80  H43 M3L d   1       9.136 -15.510  12.220  0.00  0.00     0.035 H 
BRANCH  78  81
ATOM     81  CE  M3L d   1       7.178 -16.293  11.752  0.00  0.00     0.084 C 
ATOM     82  H44 M3L d   1       7.625 -17.208  12.168  0.00  0.00     0.076 H 
ATOM     83  H45 M3L d   1       6.735 -16.515  10.770  0.00  0.00     0.076 H 
BRANCH  81  84
ATOM     84  NZ  M3L d   1       6.090 -15.863  12.657  0.00  0.00    -0.079 N 
BRANCH  84  85
ATOM     85  CM1 M3L d   1       5.684 -14.473  12.450  0.00  0.00     0.067 C 
ATOM     86  H46 M3L d   1       4.876 -14.219  13.151  0.00  0.00     0.068 H 
ATOM     87  H47 M3L d   1       5.327 -14.345  11.417  0.00  0.00     0.068 H 
ATOM     88  H48 M3L d   1       6.544 -13.810  12.626  0.00  0.00     0.068 H 
ENDBRANCH  84  85
BRANCH  84  89
ATOM     89  CM2 M3L d   1       4.948 -16.713  12.364  0.00  0.00     0.067 C 
ATOM     90  H49 M3L d   1       5.228 -17.767  12.512  0.00  0.00     0.068 H 
ATOM     91  H50 M3L d   1       4.635 -16.560  11.321  0.00  0.00     0.068 H 
ATOM     92  H51 M3L d   1       4.117 -16.456  13.037  0.00  0.00     0.068 H 
ENDBRANCH  84  89
BRANCH  84  93
ATOM     93  CM3 M3L d   1       6.425 -16.069  14.061  0.00  0.00     0.067 C 
ATOM     94  H52 M3L d   1       7.288 -15.442  14.328  0.00  0.00     0.068 H 
ATOM     95  H53 M3L d   1       6.675 -17.127  14.227  0.00  0.00     0.068 H 
ATOM     96  H54 M3L d   1       5.564 -15.793  14.688  0.00  0.00     0.068 H 
ENDBRANCH  84  93
ENDBRANCH  81  84
ENDBRANCH  78  81
ENDBRANCH  75  78
ENDBRANCH  72  75
ENDBRANCH   1  72
BRANCH   1  97
ATOM     97  C   M3L d   1      10.236 -14.975   7.644  0.00  0.00     0.241 C 
ATOM     98  O   M3L d   1      10.138 -13.863   7.126  0.00  0.00    -0.271 OA
ATOM     99  N   VAL d   1       9.716 -16.084   7.098  0.00  0.00    -0.346 N 
ATOM    100  H55 VAL d   1      10.038 -16.976   7.414  0.00  0.00     0.163 HD
BRANCH  99 101
ATOM    101  CA  VAL d   1       8.671 -16.028   6.032  0.00  0.00     0.092 C 
ATOM    102  H56 VAL d   1       8.194 -15.047   6.171  0.00  0.00     0.088 H 
BRANCH 101 103
ATOM    103  C   VAL d   1       7.500 -17.067   6.203  0.00  0.00     0.241 C 
ATOM    104  O   VAL d   1       6.915 -17.539   5.212  0.00  0.00    -0.271 OA
ATOM    105  N   LEU d   1       7.194 -17.440   7.476  0.00  0.00    -0.346 N 
ATOM    106  H64 LEU d   1       7.832 -17.229   8.217  0.00  0.00     0.163 HD
BRANCH 105 107
ATOM    107  CA  LEU d   1       5.922 -18.160   7.785  0.00  0.00     0.089 C 
ATOM    108  H65 LEU d   1       5.410 -18.425   6.848  0.00  0.00     0.087 H 
BRANCH 107 109
ATOM    109  C   LEU d   1       5.029 -17.204   8.629  0.00  0.00     0.241 C 
ATOM    110  O   LEU d   1       5.539 -16.174   9.072  0.00  0.00    -0.271 OA
ATOM    111  N   ARG d   1       3.765 -17.539   8.949  0.00  0.00    -0.345 N 
ATOM    112  H75 ARG d   1       3.274 -16.878   9.516  0.00  0.00     0.163 HD
BRANCH 111 113
ATOM    113  CA  ARG d   1       2.999 -18.756   8.576  0.00  0.00     0.093 C 
ATOM    114  H76 ARG d   1       2.399 -19.009   9.462  0.00  0.00     0.089 H 
BRANCH 113 115
ATOM    115  C   ARG d   1       3.813 -20.042   8.265  0.00  0.00     0.163 C 
ATOM    116  O   ARG d   1       3.343 -20.997   7.631  0.00  0.00    -0.648 OA
BRANCH 115 117
ATOM    117  O   ARG d   1       5.068 -20.121   8.698  0.00  0.00    -0.775 OA
ATOM    118  H88 ARG d   1       5.651 -20.230   7.956  0.00  0.00     0.167 HD
ENDBRANCH 115 117
ENDBRANCH 113 115
BRANCH 113 119
ATOM    119  CB  ARG d   1       1.998 -18.402   7.457  0.00  0.00    -0.035 C 
ATOM    120  H77 ARG d   1       1.414 -17.529   7.784  0.00  0.00     0.036 H 
ATOM    121  H78 ARG d   1       1.326 -19.261   7.315  0.00  0.00     0.036 H 
BRANCH 119 122
ATOM    122  CG  ARG d   1       2.633 -18.069   6.109  0.00  0.00    -0.047 C 
ATOM    123  H79 ARG d   1       2.396 -18.871   5.395  0.00  0.00     0.035 H 
ATOM    124  H80 ARG d   1       3.724 -18.001   6.235  0.00  0.00     0.035 H 
BRANCH 122 125
ATOM    125  CD  ARG d   1       2.120 -16.756   5.560  0.00  0.00     0.009 C 
ATOM    126  H81 ARG d   1       1.794 -16.116   6.393  0.00  0.00     0.064 H 
ATOM    127  H82 ARG d   1       1.269 -16.949   4.891  0.00  0.00     0.064 H 
BRANCH 125 128
ATOM    128  NE  ARG d   1       3.179 -16.077   4.813  0.00  0.00    -0.227 N 
ATOM    129  CZ  ARG d   1       3.242 -14.764   4.611  0.00  0.00     0.665 C 
ATOM    130  NH1 ARG d   1       2.304 -13.952   5.091  0.00  0.00    -0.235 N 
ATOM    131  NH2 ARG d   1       4.260 -14.260   3.930  0.00  0.00    -0.235 N 
ATOM    132  H84 ARG d   1       2.368 -12.937   4.926  0.00  0.00     0.174 HD
ATOM    133  H85 ARG d   1       1.514 -14.338   5.628  0.00  0.00     0.174 HD
ATOM    134  H86 ARG d   1       4.989 -14.884   3.556  0.00  0.00     0.174 HD
ATOM    135  H87 ARG d   1       4.323 -13.244   3.774  0.00  0.00     0.174 HD
ATOM    136  H83 ARG d   1       3.930 -16.658   4.415  0.00  0.00     0.177 HD
ENDBRANCH 125 128
ENDBRANCH 122 125
ENDBRANCH 119 122
ENDBRANCH 113 119
ENDBRANCH 111 113
ENDBRANCH 107 109
BRANCH 107 137
ATOM    137  CB  LEU d   1       6.197 -19.455   8.608  0.00  0.00    -0.035 C 
ATOM    138  H66 LEU d   1       5.199 -19.877   8.800  0.00  0.00     0.037 H 
ATOM    139  H67 LEU d   1       6.630 -19.095   9.553  0.00  0.00     0.037 H 
BRANCH 137 140
ATOM    140  CG  LEU d   1       7.068 -20.677   8.223  0.00  0.00    -0.059 C 
ATOM    141  H68 LEU d   1       6.856 -21.449   8.977  0.00  0.00     0.038 H 
BRANCH 140 142
ATOM    142  CD1 LEU d   1       6.686 -21.313   6.841  0.00  0.00    -0.073 C 
ATOM    143  H69 LEU d   1       7.344 -22.171   6.638  0.00  0.00     0.028 H 
ATOM    144  H70 LEU d   1       6.806 -20.562   6.046  0.00  0.00     0.028 H 
ATOM    145  H71 LEU d   1       5.640 -21.652   6.870  0.00  0.00     0.028 H 
ENDBRANCH 140 142
BRANCH 140 146
ATOM    146  CD2 LEU d   1       8.582 -20.367   8.337  0.00  0.00    -0.073 C 
ATOM    147  H72 LEU d   1       8.793 -19.924   9.322  0.00  0.00     0.028 H 
ATOM    148  H73 LEU d   1       8.872 -19.658   7.547  0.00  0.00     0.028 H 
ATOM    149  H74 LEU d   1       9.156 -21.298   8.223  0.00  0.00     0.028 H 
ENDBRANCH 140 146
ENDBRANCH 137 140
ENDBRANCH 107 137
ENDBRANCH 105 107
ENDBRANCH 101 103
BRANCH 101 150
ATOM    150  CB  VAL d   1       9.247 -15.989   4.551  0.00  0.00    -0.033 C 
ATOM    151  H57 VAL d   1       9.254 -17.018   4.163  0.00  0.00     0.042 H 
BRANCH 150 152
ATOM    152  CG1 VAL d   1       8.333 -15.127   3.655  0.00  0.00    -0.071 C 
ATOM    153  H58 VAL d   1       8.738 -15.105   2.632  0.00  0.00     0.028 H 
ATOM    154  H59 VAL d   1       8.288 -14.103   4.054  0.00  0.00     0.028 H 
ATOM    155  H60 VAL d   1       7.322 -15.559   3.640  0.00  0.00     0.028 H 
ENDBRANCH 150 152
BRANCH 150 156
ATOM    156  CG2 VAL d   1      10.693 -15.437   4.478  0.00  0.00    -0.071 C 
ATOM    157  H61 VAL d   1      11.351 -16.047   5.115  0.00  0.00     0.028 H 
ATOM    158  H62 VAL d   1      10.706 -14.395   4.830  0.00  0.00     0.028 H 
ATOM    159  H63 VAL d   1      11.049 -15.478   3.438  0.00  0.00     0.028 H 
ENDBRANCH 150 156
ENDBRANCH 101 150
ENDBRANCH  99 101
ENDBRANCH   1  97
TORSDOF 44
