REMARK  8 active torsions:
REMARK  status: ('A' for Active; 'I' for Inactive)
REMARK    1  A    between atoms: C15_1  and  O8_2 
REMARK    2  A    between atoms: O8_2  and  C12_3 
REMARK    3  A    between atoms: C9_8  and  C8_9 
REMARK    4  A    between atoms: C5_15  and  C6_16 
REMARK    5  A    between atoms: C6_16  and  O6_17 
REMARK    6  A    between atoms: C4_18  and  O4_19 
REMARK    7  A    between atoms: C3_20  and  O3_21 
REMARK    8  A    between atoms: C2_22  and  O2_23 
ROOT
ATOM      1  C8  M07 d   1      34.785  24.086  29.820  0.00  0.00     0.077 C 
ATOM      2  C7  M07 d   1      35.284  23.343  28.582  0.00  0.00     0.035 C 
ATOM      3  N1  M07 d   1      33.470  24.253  29.695  0.00  0.00    -0.134 NA
ATOM      4  O7  M07 d   1      32.952  23.697  28.486  0.00  0.00    -0.213 OA
ATOM      5  C1  M07 d   1      33.993  22.918  27.876  0.00  0.00     0.226 C 
ATOM      6  O5  M07 d   1      33.775  21.511  28.117  0.00  0.00    -0.341 OA
ATOM      7  C5  M07 d   1      32.550  20.995  27.530  0.00  0.00     0.089 C 
ATOM      8  C4  M07 d   1      32.590  21.164  25.995  0.00  0.00     0.090 C 
ATOM      9  C3  M07 d   1      32.840  22.628  25.607  0.00  0.00     0.092 C 
ATOM     10  C2  M07 d   1      34.061  23.198  26.357  0.00  0.00     0.119 C 
ATOM     11  H8  M07 d   1      35.884  22.466  28.865  0.00  0.00     0.051 H 
ATOM     12  H9  M07 d   1      35.883  24.006  27.940  0.00  0.00     0.051 H 
ATOM     13  H10 M07 d   1      31.692  21.565  27.916  0.00  0.00     0.090 H 
ATOM     14  H14 M07 d   1      33.417  20.556  25.600  0.00  0.00     0.091 H 
ATOM     15  H16 M07 d   1      31.952  23.220  25.875  0.00  0.00     0.091 H 
ATOM     16  H18 M07 d   1      34.964  22.709  25.962  0.00  0.00     0.095 H 
ENDROOT
BRANCH  10  17
ATOM     17  O2  M07 d   1      34.164  24.607  26.111  0.00  0.00    -0.387 OA
ATOM     18  H19 M07 d   1      34.267  24.758  25.179  0.00  0.00     0.210 HD
ENDBRANCH  10  17
BRANCH   1  19
ATOM     19  C9  M07 d   1      35.571  24.566  30.878  0.00  0.00    -0.009 A 
ATOM     20  C10 M07 d   1      36.962  24.526  30.783  0.00  0.00    -0.068 A 
ATOM     21  C11 M07 d   1      37.755  25.024  31.822  0.00  0.00    -0.050 A 
ATOM     22  H5  M07 d   1      37.431  24.107  29.900  0.00  0.00     0.085 H 
ATOM     23  C12 M07 d   1      37.167  25.574  32.960  0.00  0.00     0.068 A 
ATOM     24  H4  M07 d   1      38.835  24.982  31.742  0.00  0.00     0.087 H 
ATOM     25  C13 M07 d   1      35.767  25.623  33.053  0.00  0.00    -0.050 A 
ATOM     26  C14 M07 d   1      34.975  25.121  32.015  0.00  0.00    -0.068 A 
ATOM     27  H6  M07 d   1      35.298  26.051  33.932  0.00  0.00     0.087 H 
ATOM     28  H7  M07 d   1      33.895  25.162  32.092  0.00  0.00     0.085 H 
BRANCH  23  29
ATOM     29  O8  M07 d   1      37.981  26.051  33.956  0.00  0.00    -0.356 OA
BRANCH  29  30
ATOM     30  C15 M07 d   1      37.264  26.614  35.069  0.00  0.00     0.010 C 
ATOM     31  H1  M07 d   1      37.980  26.973  35.823  0.00  0.00     0.066 H 
ATOM     32  H2  M07 d   1      36.617  25.845  35.515  0.00  0.00     0.066 H 
ATOM     33  H3  M07 d   1      36.647  27.455  34.720  0.00  0.00     0.066 H 
ENDBRANCH  29  30
ENDBRANCH  23  29
ENDBRANCH   1  19
BRANCH   7  34
ATOM     34  C6  M07 d   1      32.408  19.533  27.974  0.00  0.00     0.043 C 
ATOM     35  H11 M07 d   1      31.405  19.165  27.712  0.00  0.00     0.078 H 
ATOM     36  H12 M07 d   1      32.551  19.464  29.062  0.00  0.00     0.078 H 
BRANCH  34  37
ATOM     37  O6  M07 d   1      33.400  18.735  27.309  0.00  0.00    -0.398 OA
ATOM     38  H13 M07 d   1      34.266  19.054  27.536  0.00  0.00     0.209 HD
ENDBRANCH  34  37
ENDBRANCH   7  34
BRANCH   9  39
ATOM     39  O3  M07 d   1      33.061  22.731  24.194  0.00  0.00    -0.390 OA
ATOM     40  H17 M07 d   1      33.215  23.640  23.964  0.00  0.00     0.210 HD
ENDBRANCH   9  39
BRANCH   8  41
ATOM     41  O4  M07 d   1      31.363  20.696  25.416  0.00  0.00    -0.390 OA
ATOM     42  H15 M07 d   1      30.637  21.198  25.767  0.00  0.00     0.210 HD
ENDBRANCH   8  41
TORSDOF 8
