REMARK  6 active torsions:
REMARK  status: ('A' for Active; 'I' for Inactive)
REMARK    1  A    between atoms: C9_6  and  C8_7 
REMARK    2  A    between atoms: C5_13  and  C6_14 
REMARK    3  A    between atoms: C6_14  and  O6_15 
REMARK    4  A    between atoms: C4_16  and  O4_17 
REMARK    5  A    between atoms: C3_18  and  O3_19 
REMARK    6  A    between atoms: C2_20  and  O2_21 
ROOT
ATOM      1  C8  M08 d   1      34.702  24.054  29.852  0.00  0.00     0.077 C 
ATOM      2  C7  M08 d   1      35.231  23.345  28.612  0.00  0.00     0.035 C 
ATOM      3  N1  M08 d   1      33.389  24.224  29.709  0.00  0.00    -0.134 NA
ATOM      4  O7  M08 d   1      32.903  23.702  28.473  0.00  0.00    -0.213 OA
ATOM      5  C1  M08 d   1      33.957  22.926  27.883  0.00  0.00     0.226 C 
ATOM      6  O5  M08 d   1      33.725  21.512  28.120  0.00  0.00    -0.341 OA
ATOM      7  C5  M08 d   1      32.497  21.023  27.524  0.00  0.00     0.089 C 
ATOM      8  C4  M08 d   1      32.590  21.196  25.993  0.00  0.00     0.090 C 
ATOM      9  C3  M08 d   1      32.832  22.663  25.611  0.00  0.00     0.092 C 
ATOM     10  C2  M08 d   1      34.055  23.225  26.367  0.00  0.00     0.119 C 
ATOM     11  H6  M08 d   1      35.836  22.468  28.886  0.00  0.00     0.051 H 
ATOM     12  H7  M08 d   1      35.834  24.027  27.994  0.00  0.00     0.051 H 
ATOM     13  H8  M08 d   1      31.644  21.612  27.892  0.00  0.00     0.090 H 
ATOM     14  H12 M08 d   1      33.438  20.597  25.629  0.00  0.00     0.091 H 
ATOM     15  H14 M08 d   1      31.946  23.256  25.883  0.00  0.00     0.091 H 
ATOM     16  H16 M08 d   1      34.956  22.727  25.978  0.00  0.00     0.095 H 
ENDROOT
BRANCH  10  17
ATOM     17  O2  M08 d   1      34.188  24.639  26.134  0.00  0.00    -0.387 OA
ATOM     18  H17 M08 d   1      34.301  24.796  25.204  0.00  0.00     0.210 HD
ENDBRANCH  10  17
BRANCH   1  19
ATOM     19  C9  M08 d   1      35.468  24.478  30.941  0.00  0.00    -0.009 A 
ATOM     20  C10 M08 d   1      36.863  24.441  30.868  0.00  0.00    -0.071 A 
ATOM     21  C11 M08 d   1      37.634  24.874  31.953  0.00  0.00    -0.082 A 
ATOM     22  H1  M08 d   1      37.349  24.076  29.970  0.00  0.00     0.084 H 
ATOM     23  C12 M08 d   1      37.006  25.346  33.103  0.00  0.00    -0.083 A 
ATOM     24  H2  M08 d   1      38.716  24.842  31.898  0.00  0.00     0.083 H 
ATOM     25  C13 M08 d   1      35.612  25.391  33.177  0.00  0.00    -0.082 A 
ATOM     26  H3  M08 d   1      37.602  25.680  33.945  0.00  0.00     0.083 H 
ATOM     27  C14 M08 d   1      34.842  24.955  32.095  0.00  0.00    -0.071 A 
ATOM     28  H4  M08 d   1      35.128  25.764  34.072  0.00  0.00     0.083 H 
ATOM     29  H5  M08 d   1      33.760  24.987  32.151  0.00  0.00     0.084 H 
ENDBRANCH   1  19
BRANCH   7  30
ATOM     30  C6  M08 d   1      32.319  19.565  27.967  0.00  0.00     0.043 C 
ATOM     31  H9  M08 d   1      31.314  19.215  27.690  0.00  0.00     0.078 H 
ATOM     32  H10 M08 d   1      32.446  19.492  29.057  0.00  0.00     0.078 H 
BRANCH  30  33
ATOM     33  O6  M08 d   1      33.306  18.760  27.313  0.00  0.00    -0.398 OA
ATOM     34  H11 M08 d   1      34.173  19.066  27.553  0.00  0.00     0.209 HD
ENDBRANCH  30  33
ENDBRANCH   7  30
BRANCH   9  35
ATOM     35  O3  M08 d   1      33.033  22.746  24.194  0.00  0.00    -0.390 OA
ATOM     36  H15 M08 d   1      33.184  23.652  23.949  0.00  0.00     0.210 HD
ENDBRANCH   9  35
BRANCH   8  37
ATOM     37  O4  M08 d   1      31.394  20.724  25.364  0.00  0.00    -0.390 OA
ATOM     38  H13 M08 d   1      30.651  21.220  25.687  0.00  0.00     0.210 HD
ENDBRANCH   8  37
TORSDOF 6
