REMARK  7 active torsions:
REMARK  status: ('A' for Active; 'I' for Inactive)
REMARK    1  A    between atoms: C12_3  and  N2_4 
REMARK    2  A    between atoms: C9_9  and  C8_10 
REMARK    3  A    between atoms: C5_16  and  C6_17 
REMARK    4  A    between atoms: C6_17  and  O6_18 
REMARK    5  A    between atoms: C4_19  and  O4_20 
REMARK    6  A    between atoms: C3_21  and  O3_22 
REMARK    7  A    between atoms: C2_23  and  O2_24 
ROOT
ATOM      1  C8  M09 d   1      34.584  24.112  29.989  0.00  0.00     0.077 C 
ATOM      2  C7  M09 d   1      35.179  23.432  28.760  0.00  0.00     0.035 C 
ATOM      3  N1  M09 d   1      33.271  24.252  29.782  0.00  0.00    -0.134 NA
ATOM      4  O7  M09 d   1      32.850  23.743  28.511  0.00  0.00    -0.213 OA
ATOM      5  C1  M09 d   1      33.942  22.976  27.979  0.00  0.00     0.226 C 
ATOM      6  O5  M09 d   1      33.710  21.573  28.234  0.00  0.00    -0.341 OA
ATOM      7  C5  M09 d   1      32.516  21.051  27.585  0.00  0.00     0.089 C 
ATOM      8  C4  M09 d   1      32.624  21.222  26.050  0.00  0.00     0.090 C 
ATOM      9  C3  M09 d   1      32.912  22.673  25.656  0.00  0.00     0.092 C 
ATOM     10  C2  M09 d   1      34.111  23.224  26.456  0.00  0.00     0.119 C 
ATOM     11  H5  M09 d   1      35.803  22.573  29.048  0.00  0.00     0.051 H 
ATOM     12  H6  M09 d   1      35.779  24.140  28.170  0.00  0.00     0.051 H 
ATOM     13  H7  M09 d   1      31.636  21.609  27.936  0.00  0.00     0.090 H 
ATOM     14  H11 M09 d   1      33.452  20.594  25.690  0.00  0.00     0.091 H 
ATOM     15  H13 M09 d   1      32.027  23.289  25.876  0.00  0.00     0.091 H 
ATOM     16  H15 M09 d   1      35.012  22.685  26.128  0.00  0.00     0.095 H 
ENDROOT
BRANCH  10  17
ATOM     17  O2  M09 d   1      34.303  24.619  26.170  0.00  0.00    -0.387 OA
ATOM     18  H16 M09 d   1      34.471  24.730  25.242  0.00  0.00     0.210 HD
ENDBRANCH  10  17
BRANCH   1  19
ATOM     19  C9  M09 d   1      35.278  24.543  31.128  0.00  0.00    -0.009 A 
ATOM     20  C10 M09 d   1      36.678  24.502  31.192  0.00  0.00    -0.069 A 
ATOM     21  C11 M09 d   1      37.342  24.956  32.340  0.00  0.00    -0.050 A 
ATOM     22  H1  M09 d   1      37.247  24.119  30.353  0.00  0.00     0.085 H 
ATOM     23  C12 M09 d   1      36.609  25.456  33.424  0.00  0.00     0.102 A 
ATOM     24  H2  M09 d   1      38.424  24.920  32.389  0.00  0.00     0.087 H 
ATOM     25  C13 M09 d   1      35.216  25.498  33.352  0.00  0.00    -0.050 A 
ATOM     26  C14 M09 d   1      34.557  25.044  32.209  0.00  0.00    -0.069 A 
ATOM     27  H3  M09 d   1      34.644  25.885  34.187  0.00  0.00     0.087 H 
ATOM     28  H4  M09 d   1      33.475  25.082  32.162  0.00  0.00     0.085 H 
BRANCH  23  29
ATOM     29  N2  M09 d   1      37.218  25.898  34.535  0.00  0.00    -0.116 N 
ATOM     30  O9  M09 d   1      38.619  26.110  34.557  0.00  0.00    -0.532 OA
ATOM     31  O8  M09 d   1      36.458  26.160  35.710  0.00  0.00    -0.532 OA
ENDBRANCH  23  29
ENDBRANCH   1  19
BRANCH   7  32
ATOM     32  C6  M09 d   1      32.373  19.583  28.001  0.00  0.00     0.043 C 
ATOM     33  H8  M09 d   1      31.393  19.203  27.675  0.00  0.00     0.078 H 
ATOM     34  H9  M09 d   1      32.453  19.502  29.095  0.00  0.00     0.078 H 
BRANCH  32  35
ATOM     35  O6  M09 d   1      33.411  18.813  27.389  0.00  0.00    -0.398 OA
ATOM     36  H10 M09 d   1      34.256  19.142  27.671  0.00  0.00     0.209 HD
ENDBRANCH  32  35
ENDBRANCH   7  32
BRANCH   9  37
ATOM     37  O3  M09 d   1      33.181  22.721  24.244  0.00  0.00    -0.390 OA
ATOM     38  H14 M09 d   1      33.361  23.618  23.987  0.00  0.00     0.210 HD
ENDBRANCH   9  37
BRANCH   8  39
ATOM     39  O4  M09 d   1      31.413  20.789  25.424  0.00  0.00    -0.390 OA
ATOM     40  H12 M09 d   1      30.687  21.310  25.747  0.00  0.00     0.210 HD
ENDBRANCH   8  39
TORSDOF 7
