REMARK  6 active torsions:
REMARK  status: ('A' for Active; 'I' for Inactive)
REMARK    1  A    between atoms: C9_10  and  C8_11 
REMARK    2  A    between atoms: C5_17  and  C6_18 
REMARK    3  A    between atoms: C6_18  and  O6_19 
REMARK    4  A    between atoms: C4_20  and  O4_21 
REMARK    5  A    between atoms: C3_22  and  O3_23 
REMARK    6  A    between atoms: C2_24  and  O2_25 
ROOT
ATOM      1  C8  S06 d   1      34.217  23.895  29.403  0.00  0.00     0.077 C 
ATOM      2  C7  S06 d   1      34.814  23.202  28.181  0.00  0.00     0.035 C 
ATOM      3  N1  S06 d   1      32.908  24.023  29.204  0.00  0.00    -0.134 NA
ATOM      4  O7  S06 d   1      32.478  23.474  27.961  0.00  0.00    -0.213 OA
ATOM      5  C1  S06 d   1      33.579  22.729  27.413  0.00  0.00     0.226 C 
ATOM      6  O5  S06 d   1      33.386  21.318  27.642  0.00  0.00    -0.341 OA
ATOM      7  C5  S06 d   1      32.173  20.793  27.025  0.00  0.00     0.089 C 
ATOM      8  C4  S06 d   1      32.279  20.965  25.497  0.00  0.00     0.090 C 
ATOM      9  C3  S06 d   1      32.496  22.441  25.132  0.00  0.00     0.092 C 
ATOM     10  C2  S06 d   1      33.707  23.009  25.902  0.00  0.00     0.119 C 
ATOM     11  H8  S06 d   1      35.444  22.351  28.478  0.00  0.00     0.051 H 
ATOM     12  H9  S06 d   1      35.408  23.905  27.579  0.00  0.00     0.051 H 
ATOM     13  H10 S06 d   1      31.302  21.363  27.381  0.00  0.00     0.090 H 
ATOM     14  H14 S06 d   1      33.149  20.391  25.146  0.00  0.00     0.091 H 
ATOM     15  H16 S06 d   1      31.597  23.014  25.403  0.00  0.00     0.091 H 
ATOM     16  H18 S06 d   1      34.614  22.506  25.534  0.00  0.00     0.095 H 
ENDROOT
BRANCH  10  17
ATOM     17  O2  S06 d   1      33.847  24.417  25.664  0.00  0.00    -0.387 OA
ATOM     18  H19 S06 d   1      33.061  24.866  25.954  0.00  0.00     0.210 HD
ENDBRANCH  10  17
BRANCH   1  19
ATOM     19  C9  S06 d   1      34.897  24.369  30.530  0.00  0.00    -0.008 A 
ATOM     20  C10 S06 d   1      36.269  24.615  30.488  0.00  0.00    -0.060 A 
ATOM     21  C11 S06 d   1      36.920  25.113  31.624  0.00  0.00    -0.025 A 
ATOM     22  H1  S06 d   1      36.829  24.422  29.580  0.00  0.00     0.086 H 
ATOM     23  C12 S06 d   1      38.291  25.355  31.581  0.00  0.00    -0.072 A 
ATOM     24  C16 S06 d   1      36.198  25.373  32.799  0.00  0.00    -0.026 A 
ATOM     25  C13 S06 d   1      38.930  25.850  32.722  0.00  0.00    -0.082 A 
ATOM     26  H2  S06 d   1      38.855  25.162  30.675  0.00  0.00     0.084 H 
ATOM     27  C14 S06 d   1      38.213  26.105  33.894  0.00  0.00    -0.082 A 
ATOM     28  H3  S06 d   1      39.997  26.039  32.697  0.00  0.00     0.083 H 
ATOM     29  C15 S06 d   1      36.841  25.867  33.939  0.00  0.00    -0.072 A 
ATOM     30  H4  S06 d   1      38.725  26.488  34.769  0.00  0.00     0.083 H 
ATOM     31  H5  S06 d   1      36.279  26.062  34.845  0.00  0.00     0.084 H 
ATOM     32  C17 S06 d   1      34.828  25.128  32.840  0.00  0.00    -0.071 A 
ATOM     33  C18 S06 d   1      34.185  24.637  31.704  0.00  0.00    -0.070 A 
ATOM     34  H6  S06 d   1      34.266  25.317  33.747  0.00  0.00     0.084 H 
ATOM     35  H7  S06 d   1      33.116  24.460  31.731  0.00  0.00     0.084 H 
ENDBRANCH   1  19
BRANCH   7  36
ATOM     36  C6  S06 d   1      32.014  19.337  27.459  0.00  0.00     0.043 C 
ATOM     37  H11 S06 d   1      31.039  18.957  27.119  0.00  0.00     0.078 H 
ATOM     38  H12 S06 d   1      32.071  19.272  28.556  0.00  0.00     0.078 H 
BRANCH  36  39
ATOM     39  O6  S06 d   1      33.063  18.551  26.878  0.00  0.00    -0.398 OA
ATOM     40  H13 S06 d   1      33.904  18.881  27.172  0.00  0.00     0.209 HD
ENDBRANCH  36  39
ENDBRANCH   7  36
BRANCH   9  41
ATOM     41  O3  S06 d   1      32.723  22.560  23.722  0.00  0.00    -0.390 OA
ATOM     42  H17 S06 d   1      32.857  23.474  23.500  0.00  0.00     0.210 HD
ENDBRANCH   9  41
BRANCH   8  43
ATOM     43  O4  S06 d   1      31.108  20.451  24.844  0.00  0.00    -0.390 OA
ATOM     44  H15 S06 d   1      30.342  20.921  25.153  0.00  0.00     0.210 HD
ENDBRANCH   8  43
TORSDOF 6
