REMARK  7 active torsions:
REMARK  status: ('A' for Active; 'I' for Inactive)
REMARK    1  A    between atoms: C12_3  and  C15_4 
REMARK    2  A    between atoms: C9_7  and  C8_8 
REMARK    3  A    between atoms: C5_14  and  C6_15 
REMARK    4  A    between atoms: C6_15  and  O6_16 
REMARK    5  A    between atoms: C4_17  and  O4_18 
REMARK    6  A    between atoms: C3_19  and  O3_20 
REMARK    7  A    between atoms: C2_21  and  O2_22 
ROOT
ATOM      1  C8  S13 d   1      34.092  23.818  29.492  0.00  0.00     0.077 C 
ATOM      2  C7  S13 d   1      34.673  23.114  28.265  0.00  0.00     0.035 C 
ATOM      3  N1  S13 d   1      32.788  23.984  29.290  0.00  0.00    -0.134 NA
ATOM      4  O7  S13 d   1      32.357  23.460  28.026  0.00  0.00    -0.213 OA
ATOM      5  C1  S13 d   1      33.433  22.682  27.482  0.00  0.00     0.226 C 
ATOM      6  O5  S13 d   1      33.185  21.279  27.717  0.00  0.00    -0.341 OA
ATOM      7  C5  S13 d   1      31.999  20.772  27.042  0.00  0.00     0.089 C 
ATOM      8  C4  S13 d   1      32.142  20.937  25.518  0.00  0.00     0.090 C 
ATOM      9  C3  S13 d   1      32.409  22.407  25.153  0.00  0.00     0.092 C 
ATOM     10  C2  S13 d   1      33.595  22.967  25.967  0.00  0.00     0.119 C 
ATOM     11  H8  S13 d   1      35.275  22.242  28.560  0.00  0.00     0.051 H 
ATOM     12  H9  S13 d   1      35.292  23.803  27.672  0.00  0.00     0.051 H 
ATOM     13  H10 S13 d   1      31.113  21.334  27.372  0.00  0.00     0.090 H 
ATOM     14  H14 S13 d   1      33.000  20.335  25.184  0.00  0.00     0.091 H 
ATOM     15  H16 S13 d   1      31.511  22.999  25.384  0.00  0.00     0.091 H 
ATOM     16  H18 S13 d   1      34.514  22.472  25.621  0.00  0.00     0.095 H 
ENDROOT
BRANCH  10  17
ATOM     17  O2  S13 d   1      33.722  24.374  25.739  0.00  0.00    -0.387 OA
ATOM     18  H19 S13 d   1      32.922  24.811  26.009  0.00  0.00     0.210 HD
ENDBRANCH  10  17
BRANCH   1  19
ATOM     19  C9  S13 d   1      34.793  24.251  30.621  0.00  0.00    -0.009 A 
ATOM     20  C10 S13 d   1      36.183  24.382  30.588  0.00  0.00    -0.070 A 
ATOM     21  C11 S13 d   1      36.872  24.834  31.718  0.00  0.00    -0.076 A 
ATOM     22  H1  S13 d   1      36.729  24.133  29.685  0.00  0.00     0.084 H 
ATOM     23  C12 S13 d   1      36.169  25.170  32.876  0.00  0.00    -0.062 A 
ATOM     24  H2  S13 d   1      37.952  24.923  31.695  0.00  0.00     0.084 H 
ATOM     25  C13 S13 d   1      34.784  25.040  32.914  0.00  0.00    -0.076 A 
ATOM     26  C14 S13 d   1      34.097  24.590  31.784  0.00  0.00    -0.070 A 
ATOM     27  H6  S13 d   1      34.240  25.287  33.818  0.00  0.00     0.084 H 
ATOM     28  H7  S13 d   1      33.017  24.503  31.810  0.00  0.00     0.084 H 
BRANCH  23  29
ATOM     29  C15 S13 d   1      36.919  25.670  34.118  0.00  0.00    -0.051 C 
ATOM     30  H3  S13 d   1      36.198  25.881  34.921  0.00  0.00     0.033 H 
ATOM     31  H4  S13 d   1      37.470  26.589  33.869  0.00  0.00     0.033 H 
ATOM     32  H5  S13 d   1      37.627  24.898  34.454  0.00  0.00     0.033 H 
ENDBRANCH  23  29
ENDBRANCH   1  19
BRANCH   7  33
ATOM     33  C6  S13 d   1      31.859  19.310  27.469  0.00  0.00     0.043 C 
ATOM     34  H11 S13 d   1      30.898  18.913  27.109  0.00  0.00     0.078 H 
ATOM     35  H12 S13 d   1      31.895  19.244  28.566  0.00  0.00     0.078 H 
BRANCH  33  36
ATOM     36  O6  S13 d   1      32.930  18.545  26.910  0.00  0.00    -0.398 OA
ATOM     37  H13 S13 d   1      33.759  18.888  27.222  0.00  0.00     0.209 HD
ENDBRANCH  33  36
ENDBRANCH   7  33
BRANCH   9  38
ATOM     38  O3  S13 d   1      32.689  22.511  23.753  0.00  0.00    -0.390 OA
ATOM     39  H17 S13 d   1      32.853  23.420  23.531  0.00  0.00     0.210 HD
ENDBRANCH   9  38
BRANCH   8  40
ATOM     40  O4  S13 d   1      30.964  20.461  24.843  0.00  0.00    -0.390 OA
ATOM     41  H15 S13 d   1      30.209  20.958  25.137  0.00  0.00     0.210 HD
ENDBRANCH   8  40
TORSDOF 7
