REMARK  17 active torsions:
REMARK  status: ('A' for Active; 'I' for Inactive)
REMARK    1  A    between atoms: N_1  and  CA_2 
REMARK    2  A    between atoms: CA_2  and  C_3 
REMARK       I    between atoms: C_3  and  N_5 
REMARK    3  A    between atoms: N_5  and  CA_6 
REMARK    4  A    between atoms: CA_6  and  C_7 
REMARK    5  A    between atoms: CA_6  and  CB_9 
REMARK       I    between atoms: C_7  and  N_12 
REMARK    6  A    between atoms: CB_9  and  OG1_10 
REMARK    7  A    between atoms: CB_9  and  CG2_11 
REMARK    8  A    between atoms: N_12  and  CA_13 
REMARK    9  A    between atoms: CA_13  and  C_14 
REMARK   10  A    between atoms: CA_13  and  CB_16 
REMARK       I    between atoms: C_14  and  N_21 
REMARK   11  A    between atoms: CB_16  and  CG_17 
REMARK   12  A    between atoms: CG_17  and  CD_18 
REMARK   13  A    between atoms: N_21  and  CA_22 
REMARK   14  A    between atoms: CA_22  and  C_23 
REMARK   15  A    between atoms: CA_22  and  CB_25 
REMARK   16  A    between atoms: CB_25  and  CG1_26 
REMARK   17  A    between atoms: CB_25  and  CG2_27 
ROOT
ATOM      1  CA  GLU d   1      11.949  22.541   6.284  0.00  0.00     0.090 C 
ATOM      2  H14 GLU d   1      11.491  21.640   5.850  0.00  0.00     0.087 H 
ENDROOT
BRANCH   1   3
ATOM      3  N   GLU d   1      11.260  23.698   5.722  0.00  0.00    -0.346 N 
ATOM      4  C   THR d   1       9.955  23.693   5.455  0.00  0.00     0.243 C 
ATOM      5  O   THR d   1       9.221  22.717   5.654  0.00  0.00    -0.271 OA
ATOM      6  H13 GLU d   1      11.787  24.526   5.530  0.00  0.00     0.163 HD
BRANCH   4   7
ATOM      7  CA  THR d   1       9.388  24.991   4.879  0.00  0.00     0.113 C 
ATOM      8  H7  THR d   1      10.224  25.594   4.494  0.00  0.00     0.091 H 
BRANCH   7   9
ATOM      9  N   THR d   1       8.471  24.719   3.769  0.00  0.00    -0.344 N 
ATOM     10  C   GLY d   1       8.657  25.240   2.560  0.00  0.00     0.243 C 
ATOM     11  O   GLY d   1       9.632  25.940   2.273  0.00  0.00    -0.272 OA
ATOM     12  H6  THR d   1       7.682  24.124   3.925  0.00  0.00     0.163 HD
BRANCH  10  13
ATOM     13  CA  GLY d   1       7.603  24.911   1.520  0.00  0.00     0.152 C 
ATOM     14  H4  GLY d   1       7.669  23.839   1.283  0.00  0.00     0.090 H 
ATOM     15  H5  GLY d   1       6.613  25.133   1.944  0.00  0.00     0.090 H 
BRANCH  13  16
ATOM     16  N   GLY d   1       7.761  25.687   0.254  0.00  0.00    -0.071 N 
ATOM     17  H1  GLY d   1       7.035  25.425  -0.394  0.00  0.00     0.274 HD
ATOM     18  H2  GLY d   1       8.662  25.487  -0.152  0.00  0.00     0.274 HD
ATOM     19  H3  GLY d   1       7.694  26.673   0.454  0.00  0.00     0.274 HD
ENDBRANCH  13  16
ENDBRANCH  10  13
ENDBRANCH   7   9
BRANCH   7  20
ATOM     20  CB  THR d   1       8.680  25.794   5.993  0.00  0.00     0.060 C 
ATOM     21  H8  THR d   1       8.007  25.115   6.537  0.00  0.00     0.086 H 
BRANCH  20  22
ATOM     22  OG1 THR d   1       7.896  26.845   5.407  0.00  0.00    -0.393 OA
ATOM     23  H9  THR d   1       7.245  26.467   4.827  0.00  0.00     0.210 HD
ENDBRANCH  20  22
BRANCH  20  24
ATOM     24  CG2 THR d   1       9.689  26.372   6.991  0.00  0.00    -0.050 C 
ATOM     25  H10 THR d   1       9.153  26.936   7.769  0.00  0.00     0.031 H 
ATOM     26  H11 THR d   1      10.383  27.043   6.464  0.00  0.00     0.031 H 
ATOM     27  H12 THR d   1      10.255  25.552   7.457  0.00  0.00     0.031 H 
ENDBRANCH  20  24
ENDBRANCH   7  20
ENDBRANCH   4   7
ENDBRANCH   1   3
BRANCH   1  28
ATOM     28  C   GLU d   1      11.814  22.450   7.798  0.00  0.00     0.241 C 
ATOM     29  O   GLU d   1      11.958  23.449   8.514  0.00  0.00    -0.271 OA
ATOM     30  N   VAL d   1      11.542  21.237   8.272  0.00  0.00    -0.344 N 
ATOM     31  H19 VAL d   1      11.348  20.502   7.623  0.00  0.00     0.163 HD
BRANCH  30  32
ATOM     32  CA  VAL d   1      11.515  20.934   9.699  0.00  0.00     0.099 C 
ATOM     33  H20 VAL d   1      11.866  21.826  10.239  0.00  0.00     0.090 H 
BRANCH  32  34
ATOM     34  C   VAL d   1      12.477  19.784  10.002  0.00  0.00     0.197 C 
ATOM     35  O   VAL d   1      13.151  19.267   9.097  0.00  0.00    -0.646 OA
ATOM     36  OXT VAL d   1      12.601  19.351  11.152  0.00  0.00    -0.646 OA
ENDBRANCH  32  34
BRANCH  32  37
ATOM     37  CB  VAL d   1      10.081  20.606  10.211  0.00  0.00    -0.032 C 
ATOM     38  H21 VAL d   1      10.148  20.382  11.286  0.00  0.00     0.042 H 
BRANCH  37  39
ATOM     39  CG1 VAL d   1       9.164  21.810  10.037  0.00  0.00    -0.071 C 
ATOM     40  H22 VAL d   1       8.157  21.560  10.403  0.00  0.00     0.028 H 
ATOM     41  H23 VAL d   1       9.110  22.079   8.972  0.00  0.00     0.028 H 
ATOM     42  H24 VAL d   1       9.562  22.660  10.610  0.00  0.00     0.028 H 
ENDBRANCH  37  39
BRANCH  37  43
ATOM     43  CG2 VAL d   1       9.505  19.366   9.505  0.00  0.00    -0.071 C 
ATOM     44  H25 VAL d   1      10.186  18.514   9.647  0.00  0.00     0.028 H 
ATOM     45  H26 VAL d   1       9.396  19.573   8.430  0.00  0.00     0.028 H 
ATOM     46  H27 VAL d   1       8.521  19.124   9.933  0.00  0.00     0.028 H 
ENDBRANCH  37  43
ENDBRANCH  32  37
ENDBRANCH  30  32
ENDBRANCH   1  28
BRANCH   1  47
ATOM     47  CB  GLU d   1      13.437  22.552   5.909  0.00  0.00    -0.029 C 
ATOM     48  H15 GLU d   1      13.919  23.398   6.421  0.00  0.00     0.037 H 
ATOM     49  H16 GLU d   1      13.521  22.687   4.821  0.00  0.00     0.037 H 
BRANCH  47  50
ATOM     50  CG  GLU d   1      14.176  21.264   6.297  0.00  0.00     0.018 C 
ATOM     51  H17 GLU d   1      13.610  20.406   5.906  0.00  0.00     0.049 H 
ATOM     52  H18 GLU d   1      14.220  21.205   7.394  0.00  0.00     0.049 H 
BRANCH  50  53
ATOM     53  CD  GLU d   1      15.594  21.194   5.753  0.00  0.00     0.172 C 
ATOM     54  OE1 GLU d   1      16.281  22.243   5.689  0.00  0.00    -0.648 OA
ATOM     55  OE2 GLU d   1      16.028  20.080   5.391  0.00  0.00    -0.648 OA
ENDBRANCH  50  53
ENDBRANCH  47  50
ENDBRANCH   1  47
TORSDOF 17
