REMARK  8 active torsions:
REMARK  status: ('A' for Active; 'I' for Inactive)
REMARK    1  A    between atoms: C43_26  and  C5_3 
REMARK    2  A    between atoms: C14_10  and  C15_11 
REMARK    3  A    between atoms: C14_10  and  C18_14 
REMARK    4  A    between atoms: C46_29  and  C14_10 
REMARK    5  A    between atoms: C15_11  and  C16_12 
REMARK    6  A    between atoms: C15_11  and  N19_15 
REMARK       I    between atoms: C16_12  and  N17_13 
REMARK       I    between atoms: C18_14  and  N22_18 
REMARK    7  A    between atoms: N22_18  and  C23_19 
REMARK    8  A    between atoms: N22_18  and  C27_20 
ROOT
ATOM      1  C14 524 d   1      39.491  51.790  36.107  0.00  0.00     0.063 C 
ATOM      2  H5  524 d   1      39.174  52.737  36.569  0.00  0.00     0.059 H 
ENDROOT
BRANCH   1   3
ATOM      3  C15 524 d   1      38.368  51.308  35.148  0.00  0.00     0.188 C 
ATOM      4  H6  524 d   1      38.649  50.310  34.781  0.00  0.00     0.100 H 
BRANCH   3   5
ATOM      5  C16 524 d   1      36.953  51.246  35.754  0.00  0.00     0.251 C 
ATOM      6  N17 524 d   1      36.158  50.161  35.702  0.00  0.00    -0.348 N 
ATOM      7  C31 524 d   1      36.486  48.867  35.137  0.00  0.00     0.026 A 
ATOM      8  C34 524 d   1      34.854  50.298  36.240  0.00  0.00     0.000 A 
ATOM      9  C32 524 d   1      35.208  48.051  35.384  0.00  0.00     0.096 A 
ATOM     10  H16 524 d   1      37.348  48.417  35.651  0.00  0.00     0.068 H 
ATOM     11  H17 524 d   1      36.702  48.948  34.062  0.00  0.00     0.068 H 
ATOM     12  C33 524 d   1      34.115  48.922  36.045  0.00  0.00    -0.020 A 
ATOM     13  F41 524 d   1      35.495  47.244  36.479  0.00  0.00    -0.248 F 
ATOM     14  H18 524 d   1      34.870  47.517  34.484  0.00  0.00     0.094 H 
ATOM     15  H19 524 d   1      33.799  48.500  37.010  0.00  0.00     0.039 H 
ATOM     16  H20 524 d   1      33.240  49.030  35.387  0.00  0.00     0.039 H 
ATOM     17  H21 524 d   1      34.311  51.094  35.710  0.00  0.00     0.064 H 
ATOM     18  H22 524 d   1      34.913  50.544  37.310  0.00  0.00     0.064 H 
ATOM     19  O20 524 d   1      36.535  52.277  36.289  0.00  0.00    -0.271 OA
ENDBRANCH   3   5
BRANCH   3  20
ATOM     20  N19 524 d   1      38.200  52.221  34.033  0.00  0.00    -0.066 N 
ATOM     21  H7  524 d   1      37.467  51.883  33.430  0.00  0.00     0.275 HD
ATOM     22  H8  524 d   1      39.062  52.279  33.514  0.00  0.00     0.275 HD
ATOM     23  H9  524 d   1      37.955  53.135  34.381  0.00  0.00     0.275 HD
ENDBRANCH   3  20
ENDBRANCH   1   3
BRANCH   1  24
ATOM     24  C18 524 d   1      39.694  50.678  37.237  0.00  0.00     0.226 C 
ATOM     25  O21 524 d   1      39.755  49.496  36.802  0.00  0.00    -0.273 OA
ATOM     26  N22 524 d   1      39.825  50.916  38.624  0.00  0.00    -0.360 N 
BRANCH  26  27
ATOM     27  C23 524 d   1      39.790  52.187  39.354  0.00  0.00    -0.017 C 
ATOM     28  H10 524 d   1      39.925  51.996  40.429  0.00  0.00     0.056 H 
ATOM     29  H11 524 d   1      38.820  52.678  39.188  0.00  0.00     0.056 H 
ATOM     30  H12 524 d   1      40.598  52.840  38.993  0.00  0.00     0.056 H 
ENDBRANCH  26  27
BRANCH  26  31
ATOM     31  C27 524 d   1      40.034  49.709  39.458  0.00  0.00    -0.017 C 
ATOM     32  H13 524 d   1      40.044  48.816  38.815  0.00  0.00     0.056 H 
ATOM     33  H14 524 d   1      39.218  49.624  40.191  0.00  0.00     0.056 H 
ATOM     34  H15 524 d   1      40.995  49.791  39.987  0.00  0.00     0.056 H 
ENDBRANCH  26  31
ENDBRANCH   1  24
BRANCH   1  35
ATOM     35  C46 524 d   1      40.875  52.013  35.406  0.00  0.00    -0.040 C 
ATOM     36  C45 524 d   1      41.953  52.513  36.438  0.00  0.00    -0.060 C 
ATOM     37  C44 524 d   1      43.324  52.776  35.783  0.00  0.00    -0.056 C 
ATOM     38  H26 524 d   1      41.596  53.447  36.895  0.00  0.00     0.033 H 
ATOM     39  H27 524 d   1      42.076  51.747  37.218  0.00  0.00     0.033 H 
ATOM     40  C43 524 d   1      43.854  51.562  35.007  0.00  0.00    -0.012 C 
ATOM     41  H24 524 d   1      43.225  53.622  35.087  0.00  0.00     0.034 H 
ATOM     42  H25 524 d   1      44.047  53.032  36.571  0.00  0.00     0.034 H 
ATOM     43  C48 524 d   1      42.796  51.148  33.947  0.00  0.00    -0.056 C 
ATOM     44  H23 524 d   1      43.999  50.718  35.697  0.00  0.00     0.049 H 
ATOM     45  C47 524 d   1      41.464  50.784  34.614  0.00  0.00    -0.060 C 
ATOM     46  H31 524 d   1      43.168  50.277  33.388  0.00  0.00     0.034 H 
ATOM     47  H32 524 d   1      42.634  51.986  33.254  0.00  0.00     0.034 H 
ATOM     48  H29 524 d   1      40.746  50.477  33.839  0.00  0.00     0.033 H 
ATOM     49  H30 524 d   1      41.628  49.950  35.313  0.00  0.00     0.033 H 
ATOM     50  H28 524 d   1      40.720  52.816  34.670  0.00  0.00     0.041 H 
BRANCH  40  51
ATOM     51  C5  524 d   1      45.183  51.939  34.434  0.00  0.00     0.042 A 
ATOM     52  C4  524 d   1      45.416  52.466  33.168  0.00  0.00    -0.059 A 
ATOM     53  C3  524 d   1      46.800  52.804  32.738  0.00  0.00    -0.077 A 
ATOM     54  H2  524 d   1      44.582  52.632  32.488  0.00  0.00     0.086 H 
ATOM     55  C2  524 d   1      47.879  52.612  33.567  0.00  0.00    -0.037 A 
ATOM     56  H3  524 d   1      46.962  53.214  31.742  0.00  0.00     0.083 H 
ATOM     57  C1  524 d   1      47.630  52.045  34.913  0.00  0.00     0.152 A 
ATOM     58  H1  524 d   1      48.887  52.869  33.244  0.00  0.00     0.089 H 
ATOM     59  N6  524 d   1      46.371  51.739  35.310  0.00  0.00    -0.218 N 
ATOM     60  N9  524 d   1      48.496  51.765  35.893  0.00  0.00    -0.221 NA
ATOM     61  N7  524 d   1      46.382  51.282  36.462  0.00  0.00    -0.159 NA
ATOM     62  C8  524 d   1      47.666  51.287  36.844  0.00  0.00     0.108 A 
ATOM     63  H4  524 d   1      48.005  50.942  37.820  0.00  0.00     0.149 H 
ENDBRANCH  40  51
ENDBRANCH   1  35
TORSDOF 8
