REMARK  8 active torsions:
REMARK  status: ('A' for Active; 'I' for Inactive)
REMARK    1  A    between atoms: C1_1  and  C2_2 
REMARK    2  A    between atoms: C1_1  and  C5_5 
REMARK    3  A    between atoms: C32_20  and  C1_1 
REMARK    4  A    between atoms: C2_2  and  C3_3 
REMARK    5  A    between atoms: C2_2  and  N6_6 
REMARK       I    between atoms: C3_3  and  N4_4 
REMARK       I    between atoms: C5_5  and  N9_9 
REMARK    6  A    between atoms: N9_9  and  C10_10 
REMARK    7  A    between atoms: N9_9  and  C14_11 
REMARK    8  A    between atoms: C51_26  and  C29_17 
ROOT
ATOM      1  C1  474 d   1      39.460  51.474  36.307  0.00  0.00     0.063 C 
ATOM      2  H1  474 d   1      39.108  52.387  36.809  0.00  0.00     0.059 H 
ENDROOT
BRANCH   1   3
ATOM      3  C2  474 d   1      38.349  51.084  35.283  0.00  0.00     0.188 C 
ATOM      4  H2  474 d   1      38.519  50.038  34.988  0.00  0.00     0.100 H 
BRANCH   3   5
ATOM      5  C3  474 d   1      36.934  51.222  35.891  0.00  0.00     0.251 C 
ATOM      6  N4  474 d   1      36.134  50.115  35.865  0.00  0.00    -0.344 N 
ATOM      7  C18 474 d   1      36.468  48.775  35.341  0.00  0.00     0.058 C 
ATOM      8  C21 474 d   1      34.775  50.158  36.393  0.00  0.00     0.003 C 
ATOM      9  C19 474 d   1      35.221  47.969  35.621  0.00  0.00     0.261 C 
ATOM     10  H12 474 d   1      37.337  48.352  35.867  0.00  0.00     0.073 H 
ATOM     11  H13 474 d   1      36.677  48.815  34.262  0.00  0.00     0.073 H 
ATOM     12  C20 474 d   1      34.137  49.000  35.629  0.00  0.00     0.013 C 
ATOM     13  F28 474 d   1      35.312  47.443  36.859  0.00  0.00    -0.204 F 
ATOM     14  F62 474 d   1      35.035  47.002  34.723  0.00  0.00    -0.204 F 
ATOM     15  H14 474 d   1      33.241  48.629  36.148  0.00  0.00     0.044 H 
ATOM     16  H15 474 d   1      33.869  49.301  34.605  0.00  0.00     0.044 H 
ATOM     17  H16 474 d   1      34.282  51.114  36.165  0.00  0.00     0.064 H 
ATOM     18  H17 474 d   1      34.757  49.986  37.479  0.00  0.00     0.064 H 
ATOM     19  O7  474 d   1      36.565  52.283  36.369  0.00  0.00    -0.271 OA
ENDBRANCH   3   5
BRANCH   3  20
ATOM     20  N6  474 d   1      38.335  51.922  34.080  0.00  0.00    -0.066 N 
ATOM     21  H3  474 d   1      37.597  51.616  33.466  0.00  0.00     0.275 HD
ATOM     22  H4  474 d   1      39.221  51.844  33.605  0.00  0.00     0.275 HD
ATOM     23  H5  474 d   1      38.178  52.883  34.342  0.00  0.00     0.275 HD
ENDBRANCH   3  20
ENDBRANCH   1   3
BRANCH   1  24
ATOM     24  C5  474 d   1      39.662  50.503  37.312  0.00  0.00     0.226 C 
ATOM     25  O8  474 d   1      39.669  49.341  36.867  0.00  0.00    -0.273 OA
ATOM     26  N9  474 d   1      39.841  50.743  38.684  0.00  0.00    -0.360 N 
BRANCH  26  27
ATOM     27  C10 474 d   1      39.840  52.053  39.365  0.00  0.00    -0.017 C 
ATOM     28  H6  474 d   1      40.006  51.906  40.443  0.00  0.00     0.056 H 
ATOM     29  H7  474 d   1      38.870  52.547  39.207  0.00  0.00     0.056 H 
ATOM     30  H8  474 d   1      40.643  52.681  38.953  0.00  0.00     0.056 H 
ENDBRANCH  26  27
BRANCH  26  31
ATOM     31  C14 474 d   1      40.049  49.540  39.521  0.00  0.00    -0.017 C 
ATOM     32  H9  474 d   1      40.026  48.643  38.885  0.00  0.00     0.056 H 
ATOM     33  H10 474 d   1      39.251  49.476  40.275  0.00  0.00     0.056 H 
ATOM     34  H11 474 d   1      41.025  49.608  40.024  0.00  0.00     0.056 H 
ENDBRANCH  26  31
ENDBRANCH   1  24
BRANCH   1  35
ATOM     35  C32 474 d   1      40.865  51.830  35.616  0.00  0.00    -0.040 C 
ATOM     36  C31 474 d   1      41.906  52.370  36.639  0.00  0.00    -0.060 C 
ATOM     37  C30 474 d   1      43.212  52.743  35.965  0.00  0.00    -0.058 C 
ATOM     38  H21 474 d   1      41.492  53.262  37.132  0.00  0.00     0.033 H 
ATOM     39  H22 474 d   1      42.102  51.593  37.392  0.00  0.00     0.033 H 
ATOM     40  C29 474 d   1      43.915  51.570  35.235  0.00  0.00    -0.027 C 
ATOM     41  H19 474 d   1      43.005  53.532  35.227  0.00  0.00     0.034 H 
ATOM     42  H20 474 d   1      43.897  53.130  36.734  0.00  0.00     0.034 H 
ATOM     43  C34 474 d   1      42.909  50.993  34.184  0.00  0.00    -0.058 C 
ATOM     44  H18 474 d   1      44.139  50.800  35.988  0.00  0.00     0.047 H 
ATOM     45  C33 474 d   1      41.539  50.619  34.828  0.00  0.00    -0.060 C 
ATOM     46  H26 474 d   1      43.347  50.091  33.732  0.00  0.00     0.034 H 
ATOM     47  H27 474 d   1      42.739  51.749  33.403  0.00  0.00     0.034 H 
ATOM     48  H24 474 d   1      40.854  50.296  34.030  0.00  0.00     0.033 H 
ATOM     49  H25 474 d   1      41.699  49.789  35.532  0.00  0.00     0.033 H 
ATOM     50  H23 474 d   1      40.663  52.627  34.886  0.00  0.00     0.041 H 
BRANCH  40  51
ATOM     51  C51 474 d   1      45.238  51.889  34.487  0.00  0.00    -0.036 A 
ATOM     52  C50 474 d   1      45.541  52.544  33.161  0.00  0.00    -0.071 A 
ATOM     53  C49 474 d   1      46.835  52.723  32.765  0.00  0.00    -0.036 A 
ATOM     54  H29 474 d   1      44.726  52.874  32.519  0.00  0.00     0.084 H 
ATOM     55  C48 474 d   1      47.928  52.338  33.703  0.00  0.00     0.151 A 
ATOM     56  H28 474 d   1      47.064  53.138  31.785  0.00  0.00     0.089 H 
ATOM     57  N53 474 d   1      47.647  51.712  34.878  0.00  0.00    -0.225 N 
ATOM     58  N56 474 d   1      49.251  52.413  33.533  0.00  0.00    -0.221 NA
ATOM     59  C52 474 d   1      46.237  51.518  35.343  0.00  0.00     0.012 A 
ATOM     60  N54 474 d   1      48.702  51.468  35.508  0.00  0.00    -0.160 NA
ATOM     61  H30 474 d   1      46.016  51.098  36.323  0.00  0.00     0.115 H 
ATOM     62  C55 474 d   1      49.696  51.871  34.693  0.00  0.00     0.108 A 
ATOM     63  H31 474 d   1      50.752  51.771  34.941  0.00  0.00     0.149 H 
ENDBRANCH  40  51
ENDBRANCH   1  35
TORSDOF 8
