REMARK  6 active torsions:
REMARK  status: ('A' for Active; 'I' for Inactive)
REMARK    1  A    between atoms: C1_1  and  O29_26 
REMARK    2  A    between atoms: C3_3  and  C26_23 
REMARK    3  A    between atoms: C6_6  and  C8_7 
REMARK    4  A    between atoms: C11_10  and  O12_11 
REMARK    5  A    between atoms: C26_23  and  O27_24 
REMARK    6  A    between atoms: O27_24  and  C28_25 
ROOT
ATOM      1  C1  3AS d   1      80.600  42.523  68.070  0.00  0.00     0.067 A 
ATOM      2  C2  3AS d   1      80.645  42.564  69.451  0.00  0.00    -0.040 A 
ATOM      3  C3  3AS d   1      79.781  41.796  70.176  0.00  0.00     0.002 A 
ATOM      4  C4  3AS d   1      78.843  40.979  69.546  0.00  0.00     0.085 A 
ATOM      5  O5  3AS d   1      78.011  40.248  70.372  0.00  0.00    -0.340 OA
ATOM      6  C6  3AS d   1      77.525  39.052  69.745  0.00  0.00     0.075 C 
ATOM      7  C15 3AS d   1      76.814  39.388  68.417  0.00  0.00    -0.011 C 
ATOM      8  C17 3AS d   1      77.804  40.081  67.428  0.00  0.00    -0.014 C 
ATOM      9  C19 3AS d   1      78.797  40.938  68.161  0.00  0.00    -0.017 A 
ATOM     10  C20 3AS d   1      79.676  41.713  67.426  0.00  0.00    -0.042 A 
ATOM     11  C21 3AS d   1      76.903  40.969  66.551  0.00  0.00     0.004 C 
ATOM     12  C22 3AS d   1      75.562  41.130  67.302  0.00  0.00     0.244 C 
ATOM     13  F23 3AS d   1      75.301  42.476  67.470  0.00  0.00    -0.206 F 
ATOM     14  F24 3AS d   1      74.527  40.553  66.583  0.00  0.00    -0.206 F 
ATOM     15  C25 3AS d   1      75.692  40.407  68.663  0.00  0.00     0.003 C 
ATOM     16  H1  3AS d   1      81.362  43.202  69.955  0.00  0.00     0.088 H 
ATOM     17  H2  3AS d   1      78.389  38.414  69.509  0.00  0.00     0.092 H 
ATOM     18  H8  3AS d   1      76.408  38.467  67.973  0.00  0.00     0.045 H 
ATOM     19  H9  3AS d   1      78.336  39.334  66.821  0.00  0.00     0.048 H 
ATOM     20  H10 3AS d   1      79.643  41.687  66.343  0.00  0.00     0.088 H 
ATOM     21  H11 3AS d   1      76.735  40.490  65.575  0.00  0.00     0.043 H 
ATOM     22  H12 3AS d   1      77.373  41.952  66.401  0.00  0.00     0.043 H 
ATOM     23  H13 3AS d   1      75.969  41.113  69.459  0.00  0.00     0.042 H 
ATOM     24  H14 3AS d   1      74.753  39.901  68.932  0.00  0.00     0.042 H 
ENDROOT
BRANCH   6  25
ATOM     25  C8  3AS d   1      76.612  38.268  70.720  0.00  0.00    -0.028 A 
ATOM     26  C9  3AS d   1      76.603  38.584  72.086  0.00  0.00    -0.072 A 
ATOM     27  C10 3AS d   1      75.793  37.871  72.967  0.00  0.00    -0.050 A 
ATOM     28  H3  3AS d   1      77.229  39.387  72.458  0.00  0.00     0.084 H 
ATOM     29  C11 3AS d   1      74.985  36.841  72.504  0.00  0.00     0.065 A 
ATOM     30  H4  3AS d   1      75.793  38.122  74.022  0.00  0.00     0.087 H 
ATOM     31  C13 3AS d   1      74.982  36.522  71.152  0.00  0.00    -0.050 A 
ATOM     32  C14 3AS d   1      75.791  37.232  70.265  0.00  0.00    -0.072 A 
ATOM     33  H6  3AS d   1      74.350  35.721  70.786  0.00  0.00     0.087 H 
ATOM     34  H7  3AS d   1      75.783  36.978  69.211  0.00  0.00     0.084 H 
BRANCH  29  35
ATOM     35  O12 3AS d   1      74.213  36.151  73.372  0.00  0.00    -0.361 OA
ATOM     36  H5  3AS d   1      74.765  35.737  74.025  0.00  0.00     0.217 HD
ENDBRANCH  29  35
ENDBRANCH   6  25
BRANCH   3  37
ATOM     37  C26 3AS d   1      79.826  41.832  71.673  0.00  0.00     0.045 C 
ATOM     38  H15 3AS d   1      78.809  41.730  72.079  0.00  0.00     0.081 H 
ATOM     39  H16 3AS d   1      80.261  42.785  72.010  0.00  0.00     0.081 H 
BRANCH  37  40
ATOM     40  O27 3AS d   1      80.629  40.755  72.117  0.00  0.00    -0.391 OA
BRANCH  40  41
ATOM     41  C28 3AS d   1      80.616  40.877  73.518  0.00  0.00     0.004 C 
ATOM     42  H17 3AS d   1      81.222  40.073  73.962  0.00  0.00     0.066 H 
ATOM     43  H18 3AS d   1      79.581  40.801  73.883  0.00  0.00     0.066 H 
ATOM     44  H19 3AS d   1      81.035  41.853  73.805  0.00  0.00     0.066 H 
ENDBRANCH  40  41
ENDBRANCH  37  40
ENDBRANCH   3  37
BRANCH   1  45
ATOM     45  O29 3AS d   1      81.445  43.277  67.350  0.00  0.00    -0.361 OA
ATOM     46  H20 3AS d   1      80.948  43.879  66.809  0.00  0.00     0.217 HD
ENDBRANCH   1  45
TORSDOF 6
