REMARK  4 active torsions:
REMARK  status: ('A' for Active; 'I' for Inactive)
REMARK    1  A    between atoms: C3_3  and  C12_7 
REMARK    2  A    between atoms: C15_10  and  C17_12 
REMARK    3  A    between atoms: N16_11  and  C28_18 
REMARK    4  A    between atoms: C28_18  and  C29_19 
REMARK       I    between atoms: C29_19  and  N32_20 
REMARK       I    between atoms: N32_20  and  C34_22 
REMARK       I    between atoms: C34_22  and  N35_23 
REMARK       I    between atoms: C34_22  and  N36_24 
ROOT
ATOM      1  C12 251 d   1      14.811 -10.469  17.976  0.00  0.00     0.045 A 
ATOM      2  C13 251 d   1      13.824 -10.777  18.857  0.00  0.00    -0.054 A 
ATOM      3  C14 251 d   1      12.643  -9.942  18.599  0.00  0.00    -0.054 A 
ATOM      4  C15 251 d   1      12.886  -9.104  17.543  0.00  0.00     0.045 A 
ATOM      5  N16 251 d   1      14.280  -9.389  17.088  0.00  0.00    -0.337 N 
ATOM      6  H6  251 d   1      13.897 -11.531  19.639  0.00  0.00     0.087 H 
ATOM      7  H7  251 d   1      11.713  -9.983  19.163  0.00  0.00     0.087 H 
ENDROOT
BRANCH   5   8
ATOM      8  C28 251 d   1      14.977  -8.683  15.954  0.00  0.00     0.075 C 
ATOM      9  H13 251 d   1      14.264  -8.479  15.141  0.00  0.00     0.079 H 
ATOM     10  H14 251 d   1      15.801  -9.304  15.572  0.00  0.00     0.079 H 
BRANCH   8  11
ATOM     11  C29 251 d   1      15.532  -7.354  16.519  0.00  0.00     0.254 C 
ATOM     12  N32 251 d   1      16.170  -6.573  15.598  0.00  0.00    -0.159 N 
ATOM     13  C34 251 d   1      16.723  -5.364  15.833  0.00  0.00     0.672 C 
ATOM     14  H15 251 d   1      16.233  -6.929  14.665  0.00  0.00     0.187 HD
ATOM     15  N35 251 d   1      16.688  -4.796  17.064  0.00  0.00    -0.235 N 
ATOM     16  N36 251 d   1      17.288  -4.777  14.796  0.00  0.00    -0.235 N 
ATOM     17  H16 251 d   1      17.117  -3.872  17.217  0.00  0.00     0.174 HD
ATOM     18  H17 251 d   1      16.232  -5.288  17.846  0.00  0.00     0.174 HD
ATOM     19  H18 251 d   1      17.292  -5.245  13.878  0.00  0.00     0.174 HD
ATOM     20  H19 251 d   1      17.726  -3.851  14.904  0.00  0.00     0.174 HD
ATOM     21  O33 251 d   1      15.375  -7.045  17.731  0.00  0.00    -0.271 OA
ENDBRANCH   8  11
ENDBRANCH   5   8
BRANCH   1  22
ATOM     22  C3  251 d   1      16.119 -11.104  17.921  0.00  0.00    -0.009 A 
ATOM     23  C2  251 d   1      17.048 -11.049  19.027  0.00  0.00    -0.071 A 
ATOM     24  C1  251 d   1      18.337 -11.698  18.917  0.00  0.00    -0.082 A 
ATOM     25  H2  251 d   1      16.780 -10.523  19.936  0.00  0.00     0.084 H 
ATOM     26  C6  251 d   1      18.696 -12.387  17.692  0.00  0.00    -0.083 A 
ATOM     27  H1  251 d   1      19.032 -11.669  19.748  0.00  0.00     0.083 H 
ATOM     28  C5  251 d   1      17.761 -12.434  16.595  0.00  0.00    -0.082 A 
ATOM     29  H5  251 d   1      19.665 -12.865  17.601  0.00  0.00     0.083 H 
ATOM     30  C4  251 d   1      16.485 -11.787  16.715  0.00  0.00    -0.071 A 
ATOM     31  H4  251 d   1      18.021 -12.957  15.682  0.00  0.00     0.083 H 
ATOM     32  H3  251 d   1      15.790 -11.815  15.884  0.00  0.00     0.084 H 
ENDBRANCH   1  22
BRANCH   4  33
ATOM     33  C17 251 d   1      11.907  -8.116  16.950  0.00  0.00    -0.009 A 
ATOM     34  C18 251 d   1      12.211  -6.695  16.744  0.00  0.00    -0.071 A 
ATOM     35  C19 251 d   1      11.244  -5.812  16.151  0.00  0.00    -0.082 A 
ATOM     36  H8  251 d   1      13.178  -6.306  17.043  0.00  0.00     0.084 H 
ATOM     37  C20 251 d   1       9.956  -6.326  15.764  0.00  0.00    -0.083 A 
ATOM     38  H9  251 d   1      11.483  -4.766  15.996  0.00  0.00     0.083 H 
ATOM     39  C21 251 d   1       9.649  -7.705  15.964  0.00  0.00    -0.082 A 
ATOM     40  H10 251 d   1       9.220  -5.665  15.321  0.00  0.00     0.083 H 
ATOM     41  C22 251 d   1      10.599  -8.599  16.550  0.00  0.00    -0.071 A 
ATOM     42  H11 251 d   1       8.677  -8.082  15.666  0.00  0.00     0.083 H 
ATOM     43  H12 251 d   1      10.341  -9.642  16.696  0.00  0.00     0.084 H 
ENDBRANCH   4  33
TORSDOF 4
