REMARK  7 active torsions:
REMARK  status: ('A' for Active; 'I' for Inactive)
REMARK    1  A    between atoms: C1_1  and  C2_2 
REMARK    2  A    between atoms: C2_2  and  C3_3 
REMARK    3  A    between atoms: C3_3  and  O1_4 
REMARK    4  A    between atoms: O1_4  and  C4_5 
REMARK    5  A    between atoms: C7_8  and  C10_11 
REMARK    6  A    between atoms: C13_15  and  C14_16 
REMARK    7  A    between atoms: C14_16  and  C15_17 
REMARK       I    between atoms: C15_17  and  N1_19 
REMARK       I    between atoms: N1_19  and  C16_20 
REMARK       I    between atoms: C16_20  and  N2_21 
ROOT
ATOM      1  C10 462 d   1      12.674  -9.207  17.806  0.00  0.00    -0.011 A 
ATOM      2  C11 462 d   1      12.317 -10.017  18.930  0.00  0.00    -0.033 A 
ATOM      3  S1  462 d   1      13.546 -11.082  19.424  0.00  0.00    -0.100 SA
ATOM      4  C12 462 d   1      14.583 -10.544  18.213  0.00  0.00     0.024 A 
ATOM      5  C13 462 d   1      13.996  -9.560  17.373  0.00  0.00    -0.020 A 
ATOM      6  C17 462 d   1      15.898 -11.098  18.041  0.00  0.00     0.003 A 
ATOM      7  C18 462 d   1      16.925 -10.710  18.988  0.00  0.00    -0.070 A 
ATOM      8  C19 462 d   1      18.229 -11.218  18.853  0.00  0.00    -0.082 A 
ATOM      9  C20 462 d   1      18.560 -12.059  17.768  0.00  0.00    -0.081 A 
ATOM     10  C21 462 d   1      17.574 -12.441  16.833  0.00  0.00    -0.061 A 
ATOM     11  C22 462 d   1      16.254 -11.947  16.943  0.00  0.00     0.045 A 
ATOM     12 CL1  462 d   1      15.130 -12.480  15.732  0.00  0.00    -0.083 Cl
ATOM     13  H12 462 d   1      11.348  -9.957  19.423  0.00  0.00     0.096 H 
ATOM     14  H20 462 d   1      16.688 -10.030  19.798  0.00  0.00     0.084 H 
ATOM     15  H21 462 d   1      18.985 -10.962  19.587  0.00  0.00     0.083 H 
ATOM     16  H22 462 d   1      19.578 -12.414  17.652  0.00  0.00     0.083 H 
ATOM     17  H23 462 d   1      17.831 -13.117  16.026  0.00  0.00     0.086 H 
ENDROOT
BRANCH   1  18
ATOM     18  C7  462 d   1      11.758  -8.241  17.180  0.00  0.00    -0.025 A 
ATOM     19  C6  462 d   1      10.455  -8.620  16.830  0.00  0.00    -0.070 A 
ATOM     20  C5  462 d   1       9.566  -7.707  16.222  0.00  0.00    -0.050 A 
ATOM     21  H9  462 d   1      10.124  -9.633  17.030  0.00  0.00     0.085 H 
ATOM     22  C4  462 d   1       9.938  -6.360  15.993  0.00  0.00     0.068 A 
ATOM     23  H8  462 d   1       8.579  -8.044  15.925  0.00  0.00     0.087 H 
ATOM     24  C9  462 d   1      11.250  -5.965  16.342  0.00  0.00    -0.050 A 
ATOM     25  C8  462 d   1      12.119  -6.871  16.941  0.00  0.00    -0.070 A 
ATOM     26  H11 462 d   1      11.580  -4.952  16.142  0.00  0.00     0.087 H 
ATOM     27  H10 462 d   1      13.104  -6.531  17.238  0.00  0.00     0.085 H 
BRANCH  22  28
ATOM     28  O1  462 d   1       9.135  -5.417  15.424  0.00  0.00    -0.351 OA
BRANCH  28  29
ATOM     29  C3  462 d   1       9.645  -4.267  14.785  0.00  0.00     0.026 C 
ATOM     30  H6  462 d   1      10.506  -3.873  15.345  0.00  0.00     0.075 H 
ATOM     31  H7  462 d   1       9.956  -4.511  13.759  0.00  0.00     0.075 H 
BRANCH  29  32
ATOM     32  C2  462 d   1       8.537  -3.256  14.762  0.00  0.00    -0.048 C 
ATOM     33  H4  462 d   1       7.648  -3.726  14.316  0.00  0.00     0.035 H 
ATOM     34  H5  462 d   1       8.315  -2.962  15.798  0.00  0.00     0.035 H 
BRANCH  32  35
ATOM     35  C1  462 d   1       8.860  -2.022  13.981  0.00  0.00    -0.075 C 
ATOM     36  H1  462 d   1       8.002  -1.334  14.012  0.00  0.00     0.027 H 
ATOM     37  H2  462 d   1       9.074  -2.294  12.937  0.00  0.00     0.027 H 
ATOM     38  H3  462 d   1       9.741  -1.530  14.420  0.00  0.00     0.027 H 
ENDBRANCH  32  35
ENDBRANCH  29  32
ENDBRANCH  28  29
ENDBRANCH  22  28
ENDBRANCH   1  18
BRANCH   5  39
ATOM     39  C14 462 d   1      14.764  -8.912  16.232  0.00  0.00     0.036 C 
ATOM     40  H13 462 d   1      14.068  -8.639  15.425  0.00  0.00     0.054 H 
ATOM     41  H14 462 d   1      15.516  -9.615  15.846  0.00  0.00     0.054 H 
BRANCH  39  42
ATOM     42  C15 462 d   1      15.451  -7.667  16.755  0.00  0.00     0.240 C 
ATOM     43  O2  462 d   1      15.747  -7.604  17.926  0.00  0.00    -0.272 OA
ATOM     44  N1  462 d   1      15.734  -6.808  15.729  0.00  0.00    -0.160 N 
ATOM     45  C16 462 d   1      16.258  -5.649  15.876  0.00  0.00     0.672 C 
ATOM     46  H15 462 d   1      15.517  -7.106  14.800  0.00  0.00     0.187 HD
ATOM     47  N2  462 d   1      16.767  -5.101  16.995  0.00  0.00    -0.235 N 
ATOM     48  N3  462 d   1      16.449  -4.847  14.802  0.00  0.00    -0.235 N 
ATOM     49  H16 462 d   1      17.161  -4.150  16.969  0.00  0.00     0.174 HD
ATOM     50  H17 462 d   1      16.763  -5.633  17.877  0.00  0.00     0.174 HD
ATOM     51  H18 462 d   1      16.110  -5.139  13.874  0.00  0.00     0.174 HD
ATOM     52  H19 462 d   1      16.933  -3.945  14.913  0.00  0.00     0.174 HD
ENDBRANCH  39  42
ENDBRANCH   5  39
TORSDOF 7
