REMARK  7 active torsions:
REMARK  status: ('A' for Active; 'I' for Inactive)
REMARK    1  A    between atoms: C4_4  and  C10_7 
REMARK    2  A    between atoms: C6_6  and  O17_11 
REMARK       I    between atoms: C10_7  and  N12_9 
REMARK    3  A    between atoms: N12_9  and  C13_10 
REMARK    4  A    between atoms: O17_11  and  C18_12 
REMARK    5  A    between atoms: C28_19  and  N32_21 
REMARK    6  A    between atoms: N32_21  and  C33_22 
REMARK    7  A    between atoms: C35_24  and  C43_28 
ROOT
ATOM      1  C18 276 d   1      67.941  92.125  44.977  0.00  0.00     0.078 A 
ATOM      2  C19 276 d   1      67.223  93.337  44.821  0.00  0.00    -0.022 A 
ATOM      3  C20 276 d   1      66.454  93.815  45.869  0.00  0.00     0.081 A 
ATOM      4  C21 276 d   1      66.384  93.084  47.106  0.00  0.00     0.103 A 
ATOM      5  C22 276 d   1      67.079  91.900  47.257  0.00  0.00    -0.050 A 
ATOM      6  C23 276 d   1      67.862  91.411  46.194  0.00  0.00    -0.048 A 
ATOM      7  N27 276 d   1      65.671  94.935  46.021  0.00  0.00    -0.187 N 
ATOM      8  C28 276 d   1      65.166  94.893  47.263  0.00  0.00     0.706 A 
ATOM      9  N29 276 d   1      65.568  93.804  47.938  0.00  0.00    -0.062 NA
ATOM     10  H8  276 d   1      67.275  93.886  43.888  0.00  0.00     0.091 H 
ATOM     11  H9  276 d   1      67.022  91.350  48.189  0.00  0.00     0.087 H 
ATOM     12  H10 276 d   1      68.407  90.481  46.310  0.00  0.00     0.087 H 
ATOM     13  H11 276 d   1      65.504  95.667  45.316  0.00  0.00     0.184 HD
ENDROOT
BRANCH   1  14
ATOM     14  O17 276 d   1      68.765  91.619  43.981  0.00  0.00    -0.311 OA
BRANCH  14  15
ATOM     15  C6  276 d   1      68.334  91.050  42.783  0.00  0.00     0.079 A 
ATOM     16  C1  276 d   1      67.022  90.619  42.448  0.00  0.00    -0.033 A 
ATOM     17  C2  276 d   1      66.825  90.064  41.175  0.00  0.00     0.006 A 
ATOM     18  H1  276 d   1      66.203  90.716  43.151  0.00  0.00     0.090 H 
ATOM     19  N3  276 d   1      67.835  89.926  40.265  0.00  0.00    -0.255 NA
ATOM     20  H2  276 d   1      65.830  89.731  40.902  0.00  0.00     0.114 H 
ATOM     21  C4  276 d   1      69.093  90.343  40.602  0.00  0.00     0.126 A 
ATOM     22  C5  276 d   1      69.366  90.903  41.845  0.00  0.00    -0.017 A 
ATOM     23  H3  276 d   1      70.372  91.225  42.088  0.00  0.00     0.091 H 
BRANCH  21  24
ATOM     24  C10 276 d   1      70.212  90.210  39.645  0.00  0.00     0.269 C 
ATOM     25  O11 276 d   1      71.304  90.798  39.775  0.00  0.00    -0.266 OA
ATOM     26  N12 276 d   1      69.937  89.378  38.601  0.00  0.00    -0.360 N 
ATOM     27  H4  276 d   1      69.043  88.933  38.548  0.00  0.00     0.162 HD
BRANCH  26  28
ATOM     28  C13 276 d   1      70.931  89.127  37.557  0.00  0.00    -0.018 C 
ATOM     29  H5  276 d   1      70.514  88.433  36.813  0.00  0.00     0.056 H 
ATOM     30  H6  276 d   1      71.832  88.684  38.007  0.00  0.00     0.056 H 
ATOM     31  H7  276 d   1      71.195  90.075  37.066  0.00  0.00     0.056 H 
ENDBRANCH  26  28
ENDBRANCH  21  24
ENDBRANCH  14  15
ENDBRANCH   1  14
BRANCH   8  32
ATOM     32  N32 276 d   1      64.282  95.903  47.862  0.00  0.00    -0.190 N 
ATOM     33  H12 276 d   1      64.444  96.103  48.859  0.00  0.00     0.184 HD
BRANCH  32  34
ATOM     34  C33 276 d   1      63.277  96.609  47.272  0.00  0.00     0.050 A 
ATOM     35  C34 276 d   1      62.818  97.712  47.991  0.00  0.00    -0.040 A 
ATOM     36  C35 276 d   1      61.776  98.545  47.526  0.00  0.00     0.071 A 
ATOM     37  H13 276 d   1      63.279  97.939  48.945  0.00  0.00     0.088 H 
ATOM     38  C36 276 d   1      61.188  98.210  46.255  0.00  0.00     0.049 A 
ATOM     39  C37 276 d   1      61.644  97.095  45.509  0.00  0.00    -0.059 A 
ATOM     40 CL44 276 d   1      59.890  99.121  45.528  0.00  0.00    -0.083 Cl
ATOM     41  C38 276 d   1      62.689  96.295  46.020  0.00  0.00    -0.055 A 
ATOM     42  H14 276 d   1      61.193  96.858  44.552  0.00  0.00     0.086 H 
ATOM     43  H15 276 d   1      63.042  95.440  45.455  0.00  0.00     0.087 H 
BRANCH  36  44
ATOM     44  C43 276 d   1      61.345  99.724  48.394  0.00  0.00     0.419 C 
ATOM     45  F45 276 d   1      60.152  99.412  48.855  0.00  0.00    -0.166 F 
ATOM     46  F46 276 d   1      61.295 100.824  47.667  0.00  0.00    -0.166 F 
ATOM     47  F47 276 d   1      62.204  99.919  49.403  0.00  0.00    -0.166 F 
ENDBRANCH  36  44
ENDBRANCH  32  34
ENDBRANCH   8  32
TORSDOF 7
