REMARK  5 active torsions:
REMARK  status: ('A' for Active; 'I' for Inactive)
REMARK    1  A    between atoms: CAE_3  and  OAK_4 
REMARK    2  A    between atoms: CAA_7  and  CAG_8 
REMARK    3  A    between atoms: CAG_8  and  NAJ_9 
REMARK    4  A    between atoms: CAG_8  and  CAH_10 
REMARK    5  A    between atoms: CAH_10  and  CAI_11 
ROOT
ATOM      1  CAB 247 d   1     -25.259   9.265  30.393  0.00  0.00    -0.072 A 
ATOM      2  CAD 247 d   1     -25.472   7.967  30.848  0.00  0.00    -0.050 A 
ATOM      3  CAE 247 d   1     -25.480   7.701  32.212  0.00  0.00     0.065 A 
ATOM      4  CAF 247 d   1     -25.265   8.732  33.119  0.00  0.00    -0.050 A 
ATOM      5  CAC 247 d   1     -25.052  10.029  32.666  0.00  0.00    -0.072 A 
ATOM      6  CAA 247 d   1     -25.055  10.298  31.301  0.00  0.00    -0.021 A 
ATOM      7  H1  247 d   1     -25.252   9.471  29.329  0.00  0.00     0.084 H 
ATOM      8  H2  247 d   1     -25.632   7.163  30.138  0.00  0.00     0.087 H 
ATOM      9  H4  247 d   1     -25.263   8.524  34.183  0.00  0.00     0.087 H 
ATOM     10  H5  247 d   1     -24.884  10.831  33.376  0.00  0.00     0.084 H 
ENDROOT
BRANCH   6  11
ATOM     11  CAG 247 d   1     -24.905  11.742  30.813  0.00  0.00     0.197 C 
ATOM     12  H6  247 d   1     -25.459  12.413  31.486  0.00  0.00     0.102 H 
BRANCH  11  13
ATOM     13  NAJ 247 d   1     -23.483  12.113  30.818  0.00  0.00    -0.065 N 
ATOM     14  H7  247 d   1     -23.116  12.025  31.753  0.00  0.00     0.275 HD
ATOM     15  H8  247 d   1     -23.383  13.066  30.506  0.00  0.00     0.275 HD
ATOM     16  H9  247 d   1     -22.974  11.502  30.198  0.00  0.00     0.275 HD
ENDBRANCH  11  13
BRANCH  11  17
ATOM     17  CAH 247 d   1     -25.467  11.874  29.395  0.00  0.00     0.361 C 
ATOM     18  F1  247 d   1     -26.414  11.336  29.339  0.00  0.00    -0.191 F 
ATOM     19  F2  247 d   1     -24.762  11.434  28.691  0.00  0.00    -0.191 F 
BRANCH  17  20
ATOM     20  CAI 247 d   1     -25.704  13.336  29.015  0.00  0.00     0.251 C 
ATOM     21  OAM 247 d   1     -25.455  14.202  29.880  0.00  0.00    -0.643 OA
ATOM     22  OAL 247 d   1     -26.141  13.558  27.864  0.00  0.00    -0.643 OA
ENDBRANCH  17  20
ENDBRANCH  11  17
ENDBRANCH   6  11
BRANCH   3  23
ATOM     23  OAK 247 d   1     -25.742   6.444  32.659  0.00  0.00    -0.361 OA
ATOM     24  H3  247 d   1     -25.709   6.433  33.608  0.00  0.00     0.217 HD
ENDBRANCH   3  23
TORSDOF 5
