REMARK  9 active torsions:
REMARK  status: ('A' for Active; 'I' for Inactive)
REMARK    1  A    between atoms: C1_1  and  C2_4 
REMARK    2  A    between atoms: C4_6  and  N4_21 
REMARK    3  A    between atoms: C5_7  and  N5_8 
REMARK       I    between atoms: N5_8  and  C10_9 
REMARK    4  A    between atoms: C10_9  and  C11_11 
REMARK    5  A    between atoms: C6_12  and  C7_14 
REMARK       I    between atoms: C7_14  and  N8_16 
REMARK    6  A    between atoms: N8_16  and  C9_19 
REMARK    7  A    between atoms: N8_16  and  C81_17 
REMARK    8  A    between atoms: C81_17  and  C82_18 
REMARK    9  A    between atoms: C9_19  and  C91_20 
ROOT
ATOM      1  C2  G28 d   1      24.088  18.595  64.081  0.00  0.00     0.144 C 
ATOM      2  C3  G28 d   1      23.380  17.540  63.565  0.00  0.00    -0.033 C 
ATOM      3  C4  G28 d   1      24.039  16.486  62.669  0.00  0.00     0.141 C 
ATOM      4  C5  G28 d   1      25.535  16.496  62.819  0.00  0.00     0.076 C 
ATOM      5  C6  G28 d   1      26.057  17.938  62.838  0.00  0.00     0.143 C 
ATOM      6  O6  G28 d   1      25.494  18.649  63.895  0.00  0.00    -0.328 OA
ATOM      7  H1  G28 d   1      22.320  17.449  63.798  0.00  0.00     0.084 H 
ATOM      8  H2  G28 d   1      23.770  16.675  61.619  0.00  0.00     0.093 H 
ATOM      9  H3  G28 d   1      25.810  15.993  63.758  0.00  0.00     0.081 H 
ATOM     10  H8  G28 d   1      25.831  18.430  61.880  0.00  0.00     0.102 H 
ENDROOT
BRANCH   5  11
ATOM     11  C7  G28 d   1      27.559  17.921  63.096  0.00  0.00     0.251 C 
ATOM     12  N8  G28 d   1      28.451  18.257  62.155  0.00  0.00    -0.351 N 
ATOM     13  O7  G28 d   1      27.909  17.589  64.226  0.00  0.00    -0.270 OA
BRANCH  12  14
ATOM     14  C9  G28 d   1      28.051  18.684  60.820  0.00  0.00    -0.006 C 
ATOM     15  H14 G28 d   1      27.019  18.361  60.617  0.00  0.00     0.063 H 
ATOM     16  H15 G28 d   1      28.727  18.248  60.069  0.00  0.00     0.063 H 
BRANCH  14  17
ATOM     17  C91 G28 d   1      28.135  20.172  60.776  0.00  0.00    -0.061 C 
ATOM     18  H16 G28 d   1      27.838  20.527  59.778  0.00  0.00     0.029 H 
ATOM     19  H17 G28 d   1      29.168  20.487  60.985  0.00  0.00     0.029 H 
ATOM     20  H18 G28 d   1      27.461  20.600  61.532  0.00  0.00     0.029 H 
ENDBRANCH  14  17
ENDBRANCH  12  14
BRANCH  12  21
ATOM     21  C81 G28 d   1      29.833  18.190  62.634  0.00  0.00    -0.006 C 
ATOM     22  H9  G28 d   1      29.856  18.349  63.722  0.00  0.00     0.063 H 
ATOM     23  H10 G28 d   1      30.435  18.965  62.138  0.00  0.00     0.063 H 
BRANCH  21  24
ATOM     24  C82 G28 d   1      30.398  16.809  62.303  0.00  0.00    -0.061 C 
ATOM     25  H11 G28 d   1      31.437  16.744  62.657  0.00  0.00     0.029 H 
ATOM     26  H12 G28 d   1      30.371  16.653  61.214  0.00  0.00     0.029 H 
ATOM     27  H13 G28 d   1      29.792  16.036  62.799  0.00  0.00     0.029 H 
ENDBRANCH  21  24
ENDBRANCH  12  21
ENDBRANCH   5  11
BRANCH   4  28
ATOM     28  N5  G28 d   1      26.155  15.786  61.672  0.00  0.00    -0.351 N 
ATOM     29  C10 G28 d   1      26.895  14.705  61.882  0.00  0.00     0.214 C 
ATOM     30  O10 G28 d   1      27.070  14.259  63.009  0.00  0.00    -0.274 OA
ATOM     31  H4  G28 d   1      26.015  16.123  60.741  0.00  0.00     0.163 HD
BRANCH  29  32
ATOM     32  C11 G28 d   1      27.499  14.041  60.658  0.00  0.00    -0.003 C 
ATOM     33  H5  G28 d   1      28.084  13.163  60.968  0.00  0.00     0.040 H 
ATOM     34  H6  G28 d   1      28.156  14.755  60.140  0.00  0.00     0.040 H 
ATOM     35  H7  G28 d   1      26.694  13.723  59.978  0.00  0.00     0.040 H 
ENDBRANCH  29  32
ENDBRANCH   4  28
BRANCH   3  36
ATOM     36  N4  G28 d   1      23.578  15.204  63.075  0.00  0.00    -0.070 N 
ATOM     37  H19 G28 d   1      22.575  15.164  62.986  0.00  0.00     0.275 HD
ATOM     38  H20 G28 d   1      23.837  15.043  64.036  0.00  0.00     0.275 HD
ATOM     39  H21 G28 d   1      23.995  14.496  62.491  0.00  0.00     0.275 HD
ENDBRANCH   3  36
BRANCH   1  40
ATOM     40  C1  G28 d   1      23.450  19.658  64.758  0.00  0.00     0.233 C 
ATOM     41  O1B G28 d   1      22.224  19.671  64.985  0.00  0.00    -0.642 OA
ATOM     42  O1A G28 d   1      24.163  20.623  65.069  0.00  0.00    -0.642 OA
ENDBRANCH   1  40
TORSDOF 9
