REMARK  3 active torsions:
REMARK  status: ('A' for Active; 'I' for Inactive)
REMARK    1  A    between atoms: C2_2  and  C11_13 
REMARK    2  A    between atoms: C6_6  and  N6_7 
REMARK    3  A    between atoms: C11_13  and  O4_14 
ROOT
ATOM      1  N1  PH2 d   1       3.468   5.550   6.956  0.00  0.00    -0.244 NA
ATOM      2  C2  PH2 d   1       3.280   5.613   8.245  0.00  0.00     0.054 A 
ATOM      3  C3  PH2 d   1       3.207   6.982   9.001  0.00  0.00     0.032 A 
ATOM      4  N4  PH2 d   1       3.363   7.990   8.150  0.00  0.00    -0.367 N 
ATOM      5  N5  PH2 d   1       3.698   9.112   6.076  0.00  0.00    -0.045 NA
ATOM      6  C6  PH2 d   1       3.884   9.152   4.811  0.00  0.00     0.703 A 
ATOM      7  N7  PH2 d   1       3.942   7.817   4.167  0.00  0.00    -0.152 N 
ATOM      8  C8  PH2 d   1       3.811   6.648   4.839  0.00  0.00     0.292 A 
ATOM      9  O8  PH2 d   1       3.884   5.580   4.138  0.00  0.00    -0.265 OA
ATOM     10  C9  PH2 d   1       3.613   6.672   6.186  0.00  0.00     0.171 A 
ATOM     11  C10 PH2 d   1       3.557   8.044   6.838  0.00  0.00     0.177 A 
ATOM     12  H1  PH2 d   1       4.004   7.021   9.758  0.00  0.00     0.073 H 
ATOM     13  H2  PH2 d   1       2.228   7.072   9.494  0.00  0.00     0.073 H 
ATOM     14  H3  PH2 d   1       3.326   8.916   8.599  0.00  0.00     0.161 HD
ATOM     15  H6  PH2 d   1       4.086   7.778   3.178  0.00  0.00     0.187 HD
ENDROOT
BRANCH   2  16
ATOM     16  C11 PH2 d   1       3.134   4.374   9.071  0.00  0.00     0.054 C 
ATOM     17  H7  PH2 d   1       2.149   4.411   9.558  0.00  0.00     0.083 H 
ATOM     18  H8  PH2 d   1       3.923   4.388   9.837  0.00  0.00     0.083 H 
BRANCH  16  19
ATOM     19  O4  PH2 d   1       3.223   3.187   8.407  0.00  0.00    -0.395 OA
ATOM     20  H9  PH2 d   1       4.074   3.122   7.989  0.00  0.00     0.209 HD
ENDBRANCH  16  19
ENDBRANCH   2  16
BRANCH   6  21
ATOM     21  N6  PH2 d   1       4.024  10.126   4.038  0.00  0.00    -0.233 N 
ATOM     22  H4  PH2 d   1       3.996  11.086   4.409  0.00  0.00     0.174 HD
ATOM     23  H5  PH2 d   1       4.168   9.967   3.030  0.00  0.00     0.174 HD
ENDBRANCH   6  21
TORSDOF 3
