REMARK  4 active torsions:
REMARK  status: ('A' for Active; 'I' for Inactive)
REMARK    1  A    between atoms: C4_1  and  C3_11 
REMARK    2  A    between atoms: C10_6  and  C7_4 
REMARK    3  A    between atoms: C18_19  and  C20_20 
REMARK    4  A    between atoms: C24_25  and  N26_26 
ROOT
ATOM      1  C10 NPV d   1      96.437  65.442  19.949  0.00  0.00     0.068 A 
ATOM      2  C15 NPV d   1      98.706  65.304  24.319  0.00  0.00     0.003 A 
ATOM      3  C11 NPV d   1      97.110  66.415  20.680  0.00  0.00    -0.042 A 
ATOM      4  C12 NPV d   1      97.657  66.075  21.912  0.00  0.00    -0.003 A 
ATOM      5  C13 NPV d   1      98.341  67.014  22.675  0.00  0.00    -0.069 A 
ATOM      6  N19 NPV d   1      96.323  64.196  20.433  0.00  0.00    -0.245 NA
ATOM      7  C14 NPV d   1      98.872  66.618  23.897  0.00  0.00    -0.065 A 
ATOM      8  N16 NPV d   1      98.050  64.432  23.573  0.00  0.00    -0.258 NA
ATOM      9  C17 NPV d   1      97.524  64.776  22.389  0.00  0.00     0.096 A 
ATOM     10  C18 NPV d   1      96.842  63.841  21.615  0.00  0.00     0.097 A 
ATOM     11  H4  NPV d   1      99.119  64.991  25.271  0.00  0.00     0.114 H 
ATOM     12  H5  NPV d   1      97.207  67.424  20.295  0.00  0.00     0.088 H 
ATOM     13  H6  NPV d   1      98.458  68.033  22.325  0.00  0.00     0.085 H 
ATOM     14  H8  NPV d   1      99.410  67.327  24.515  0.00  0.00     0.085 H 
ENDROOT
BRANCH   1  15
ATOM     15  C7  NPV d   1      95.857  65.733  18.721  0.00  0.00    -0.007 A 
ATOM     16  C6  NPV d   1      96.044  66.968  18.108  0.00  0.00    -0.070 A 
ATOM     17  C5  NPV d   1      95.430  67.238  16.890  0.00  0.00    -0.066 A 
ATOM     18  H2  NPV d   1      96.668  67.719  18.579  0.00  0.00     0.084 H 
ATOM     19  C4  NPV d   1      94.630  66.277  16.282  0.00  0.00     0.040 A 
ATOM     20  H1  NPV d   1      95.576  68.201  16.413  0.00  0.00     0.085 H 
ATOM     21  C9  NPV d   1      94.448  65.041  16.891  0.00  0.00    -0.066 A 
ATOM     22  C8  NPV d   1      95.061  64.771  18.109  0.00  0.00    -0.070 A 
ATOM     23  H3  NPV d   1      93.829  64.288  16.417  0.00  0.00     0.085 H 
ATOM     24  H7  NPV d   1      94.918  63.807  18.584  0.00  0.00     0.084 H 
BRANCH  19  25
ATOM     25  C3  NPV d   1      93.984  66.550  15.093  0.00  0.00     0.209 C 
ATOM     26  O1  NPV d   1      93.314  65.633  14.571  0.00  0.00    -0.644 OA
ATOM     27  O2  NPV d   1      94.093  67.699  14.611  0.00  0.00    -0.644 OA
ENDBRANCH  19  25
ENDBRANCH   1  15
BRANCH  10  28
ATOM     28  C20 NPV d   1      96.728  62.516  22.020  0.00  0.00    -0.003 A 
ATOM     29  C25 NPV d   1      96.940  61.509  21.086  0.00  0.00    -0.039 A 
ATOM     30  C24 NPV d   1      96.845  60.173  21.460  0.00  0.00     0.103 A 
ATOM     31  H9  NPV d   1      97.181  61.766  20.061  0.00  0.00     0.088 H 
ATOM     32  C23 NPV d   1      96.535  59.847  22.775  0.00  0.00    -0.051 A 
ATOM     33  C22 NPV d   1      96.319  60.853  23.710  0.00  0.00    -0.080 A 
ATOM     34  H12 NPV d   1      96.462  58.807  23.072  0.00  0.00     0.087 H 
ATOM     35  C21 NPV d   1      96.415  62.188  23.335  0.00  0.00    -0.071 A 
ATOM     36  H11 NPV d   1      96.075  60.596  24.734  0.00  0.00     0.083 H 
ATOM     37  H10 NPV d   1      96.246  62.971  24.065  0.00  0.00     0.084 H 
BRANCH  30  38
ATOM     38  N26 NPV d   1      97.060  59.220  20.556  0.00  0.00    -0.116 N 
ATOM     39  O27 NPV d   1      96.983  58.053  20.869  0.00  0.00    -0.532 OA
ATOM     40  O28 NPV d   1      97.331  59.520  19.416  0.00  0.00    -0.532 OA
ENDBRANCH  30  38
ENDBRANCH  10  28
TORSDOF 4
