REMARK  4 active torsions:
REMARK  status: ('A' for Active; 'I' for Inactive)
REMARK    1  A    between atoms: C4_1  and  C3_11 
REMARK    2  A    between atoms: C10_6  and  C7_4 
REMARK    3  A    between atoms: C18_19  and  C20_20 
REMARK    4  A    between atoms: C24_25  and  N26_26 
ROOT
ATOM      1  C10 NPV d   1      38.719  33.043  -1.685  0.00  0.00     0.068 A 
ATOM      2  C15 NPV d   1      39.354  35.149   2.722  0.00  0.00     0.003 A 
ATOM      3  C11 NPV d   1      39.704  32.891  -0.714  0.00  0.00    -0.042 A 
ATOM      4  C12 NPV d   1      39.614  33.636   0.456  0.00  0.00    -0.003 A 
ATOM      5  C13 NPV d   1      40.575  33.520   1.453  0.00  0.00    -0.069 A 
ATOM      6  N19 NPV d   1      37.702  33.894  -1.482  0.00  0.00    -0.245 NA
ATOM      7  C14 NPV d   1      40.439  34.289   2.603  0.00  0.00    -0.065 A 
ATOM      8  N16 NPV d   1      38.454  35.242   1.758  0.00  0.00    -0.258 NA
ATOM      9  C17 NPV d   1      38.551  34.515   0.636  0.00  0.00     0.096 A 
ATOM     10  C18 NPV d   1      37.592  34.625  -0.365  0.00  0.00     0.097 A 
ATOM     11  H4  NPV d   1      39.244  35.751   3.617  0.00  0.00     0.114 H 
ATOM     12  H5  NPV d   1      40.528  32.203  -0.867  0.00  0.00     0.088 H 
ATOM     13  H6  NPV d   1      41.414  32.843   1.336  0.00  0.00     0.085 H 
ATOM     14  H8  NPV d   1      41.172  34.218   3.399  0.00  0.00     0.085 H 
ENDROOT
BRANCH   1  15
ATOM     15  C7  NPV d   1      38.773  32.359  -2.894  0.00  0.00    -0.007 A 
ATOM     16  C6  NPV d   1      39.569  31.231  -3.063  0.00  0.00    -0.070 A 
ATOM     17  C5  NPV d   1      39.568  30.555  -4.279  0.00  0.00    -0.066 A 
ATOM     18  H2  NPV d   1      40.190  30.879  -2.247  0.00  0.00     0.084 H 
ATOM     19  C4  NPV d   1      38.775  31.006  -5.330  0.00  0.00     0.040 A 
ATOM     20  H1  NPV d   1      40.187  29.674  -4.408  0.00  0.00     0.085 H 
ATOM     21  C9  NPV d   1      37.983  32.136  -5.163  0.00  0.00    -0.066 A 
ATOM     22  C8  NPV d   1      37.984  32.810  -3.947  0.00  0.00    -0.070 A 
ATOM     23  H3  NPV d   1      37.365  32.491  -5.980  0.00  0.00     0.085 H 
ATOM     24  H7  NPV d   1      37.367  33.692  -3.819  0.00  0.00     0.084 H 
BRANCH  19  25
ATOM     25  C3  NPV d   1      38.753  30.336  -6.537  0.00  0.00     0.209 C 
ATOM     26  O1  NPV d   1      38.053  30.814  -7.457  0.00  0.00    -0.644 OA
ATOM     27  O2  NPV d   1      39.425  29.288  -6.644  0.00  0.00    -0.644 OA
ENDBRANCH  19  25
ENDBRANCH   1  15
BRANCH  10  28
ATOM     28  C20 NPV d   1      36.510  35.490  -0.241  0.00  0.00    -0.003 A 
ATOM     29  C25 NPV d   1      35.233  35.029  -0.536  0.00  0.00    -0.039 A 
ATOM     30  C24 NPV d   1      34.149  35.901  -0.504  0.00  0.00     0.103 A 
ATOM     31  H9  NPV d   1      35.081  33.987  -0.792  0.00  0.00     0.088 H 
ATOM     32  C23 NPV d   1      34.346  37.234  -0.167  0.00  0.00    -0.051 A 
ATOM     33  C22 NPV d   1      35.624  37.696   0.134  0.00  0.00    -0.080 A 
ATOM     34  H12 NPV d   1      33.503  37.915  -0.138  0.00  0.00     0.087 H 
ATOM     35  C21 NPV d   1      36.706  36.825   0.098  0.00  0.00    -0.071 A 
ATOM     36  H11 NPV d   1      35.775  38.737   0.397  0.00  0.00     0.083 H 
ATOM     37  H10 NPV d   1      37.701  37.185   0.334  0.00  0.00     0.084 H 
BRANCH  30  38
ATOM     38  N26 NPV d   1      32.932  35.459  -0.812  0.00  0.00    -0.116 N 
ATOM     39  O27 NPV d   1      31.987  36.213  -0.792  0.00  0.00    -0.532 OA
ATOM     40  O28 NPV d   1      32.764  34.298  -1.107  0.00  0.00    -0.532 OA
ENDBRANCH  30  38
ENDBRANCH  10  28
TORSDOF 4
