REMARK  4 active torsions:
REMARK  status: ('A' for Active; 'I' for Inactive)
REMARK    1  A    between atoms: C4_1  and  C3_11 
REMARK    2  A    between atoms: C10_6  and  C7_4 
REMARK    3  A    between atoms: C18_19  and  C20_20 
REMARK    4  A    between atoms: C24_25  and  N26_26 
ROOT
ATOM      1  C10 NPV d   1       4.804  -2.107  55.771  0.00  0.00     0.068 A 
ATOM      2  C15 NPV d   1       5.442  -3.167  60.544  0.00  0.00     0.003 A 
ATOM      3  C11 NPV d   1       5.599  -1.529  56.755  0.00  0.00    -0.042 A 
ATOM      4  C12 NPV d   1       5.579  -2.063  58.040  0.00  0.00    -0.003 A 
ATOM      5  C13 NPV d   1       6.341  -1.507  59.061  0.00  0.00    -0.069 A 
ATOM      6  N19 NPV d   1       4.043  -3.171  56.068  0.00  0.00    -0.245 NA
ATOM      7  C14 NPV d   1       6.270  -2.069  60.331  0.00  0.00    -0.065 A 
ATOM      8  N16 NPV d   1       4.729  -3.676  59.556  0.00  0.00    -0.258 NA
ATOM      9  C17 NPV d   1       4.773  -3.161  58.318  0.00  0.00     0.096 A 
ATOM     10  C18 NPV d   1       4.006  -3.708  57.295  0.00  0.00     0.097 A 
ATOM     11  H4  NPV d   1       5.382  -3.609  61.532  0.00  0.00     0.114 H 
ATOM     12  H5  NPV d   1       6.225  -0.675  56.524  0.00  0.00     0.088 H 
ATOM     13  H6  NPV d   1       6.979  -0.651  58.871  0.00  0.00     0.085 H 
ATOM     14  H8  NPV d   1       6.853  -1.656  61.146  0.00  0.00     0.085 H 
ENDROOT
BRANCH   1  15
ATOM     15  C7  NPV d   1       4.714  -1.576  54.487  0.00  0.00    -0.007 A 
ATOM     16  C6  NPV d   1       5.709  -0.765  53.950  0.00  0.00    -0.070 A 
ATOM     17  C5  NPV d   1       5.588  -0.275  52.653  0.00  0.00    -0.066 A 
ATOM     18  H2  NPV d   1       6.581  -0.514  54.544  0.00  0.00     0.084 H 
ATOM     19  C4  NPV d   1       4.473  -0.591  51.882  0.00  0.00     0.040 A 
ATOM     20  H1  NPV d   1       6.367   0.356  52.241  0.00  0.00     0.085 H 
ATOM     21  C9  NPV d   1       3.477  -1.398  52.419  0.00  0.00    -0.066 A 
ATOM     22  C8  NPV d   1       3.599  -1.887  53.715  0.00  0.00    -0.070 A 
ATOM     23  H3  NPV d   1       2.604  -1.647  51.827  0.00  0.00     0.085 H 
ATOM     24  H7  NPV d   1       2.818  -2.516  54.127  0.00  0.00     0.084 H 
BRANCH  19  25
ATOM     25  C3  NPV d   1       4.352  -0.142  50.581  0.00  0.00     0.209 C 
ATOM     26  O1  NPV d   1       3.298  -0.417  49.968  0.00  0.00    -0.644 OA
ATOM     27  O2  NPV d   1       5.297   0.503  50.078  0.00  0.00    -0.644 OA
ENDBRANCH  19  25
ENDBRANCH   1  15
BRANCH  10  28
ATOM     28  C20 NPV d   1       3.215  -4.832  57.509  0.00  0.00    -0.003 A 
ATOM     29  C25 NPV d   1       3.294  -5.898  56.620  0.00  0.00    -0.039 A 
ATOM     30  C24 NPV d   1       2.494  -7.021  56.800  0.00  0.00     0.103 A 
ATOM     31  H9  NPV d   1       3.982  -5.854  55.783  0.00  0.00     0.088 H 
ATOM     32  C23 NPV d   1       1.614  -7.078  57.875  0.00  0.00    -0.051 A 
ATOM     33  C22 NPV d   1       1.534  -6.013  58.764  0.00  0.00    -0.080 A 
ATOM     34  H12 NPV d   1       0.991  -7.953  58.020  0.00  0.00     0.087 H 
ATOM     35  C21 NPV d   1       2.333  -4.890  58.582  0.00  0.00    -0.071 A 
ATOM     36  H11 NPV d   1       0.847  -6.058  59.601  0.00  0.00     0.083 H 
ATOM     37  H10 NPV d   1       2.268  -4.060  59.276  0.00  0.00     0.084 H 
BRANCH  30  38
ATOM     38  N26 NPV d   1       2.565  -8.033  55.938  0.00  0.00    -0.116 N 
ATOM     39  O27 NPV d   1       1.870  -9.012  56.093  0.00  0.00    -0.532 OA
ATOM     40  O28 NPV d   1       3.323  -7.976  54.996  0.00  0.00    -0.532 OA
ENDBRANCH  30  38
ENDBRANCH  10  28
TORSDOF 4
