REMARK  5 active torsions:
REMARK  status: ('A' for Active; 'I' for Inactive)
REMARK    1  A    between atoms: C36_38  and  C5_3 
REMARK    2  A    between atoms: C11_11  and  C23_25 
REMARK    3  A    between atoms: C12_12  and  N3_15 
REMARK    4  A    between atoms: C12_12  and  C30_30 
REMARK    5  A    between atoms: C35_37  and  C37_39 
ROOT
ATOM      1  C3  I21 d   1      29.751  43.685   1.187  0.00  0.00     0.033 A 
ATOM      2  C4  I21 d   1      28.696  44.312   0.423  0.00  0.00    -0.057 A 
ATOM      3  C5  I21 d   1      27.618  43.538  -0.153  0.00  0.00    -0.023 A 
ATOM      4  C6  I21 d   1      27.592  42.121   0.089  0.00  0.00    -0.064 A 
ATOM      5  C7  I21 d   1      28.642  41.480   0.796  0.00  0.00    -0.032 A 
ATOM      6  C8  I21 d   1      29.744  42.217   1.361  0.00  0.00    -0.059 A 
ATOM      7  C9  I21 d   1      30.785  44.539   1.817  0.00  0.00     0.252 C 
ATOM      8  C10 I21 d   1      28.548  39.978   0.749  0.00  0.00     0.052 C 
ATOM      9  O3  I21 d   1      29.499  39.493   1.694  0.00  0.00    -0.315 OA
ATOM     10  N2  I21 d   1      31.319  43.999   2.915  0.00  0.00    -0.348 N 
ATOM     11  C11 I21 d   1      32.419  44.429   3.782  0.00  0.00     0.038 C 
ATOM     12  C12 I21 d   1      31.070  37.891   2.388  0.00  0.00     0.210 C 
ATOM     13  C13 I21 d   1      33.693  43.571   3.913  0.00  0.00    -0.038 C 
ATOM     14  C27 I21 d   1      34.287  43.031   2.605  0.00  0.00    -0.039 C 
ATOM     15  C14 I21 d   1      32.480  38.209   1.794  0.00  0.00    -0.001 C 
ATOM     16  C15 I21 d   1      33.577  41.950   1.785  0.00  0.00    -0.058 A 
ATOM     17  C16 I21 d   1      33.287  40.631   2.311  0.00  0.00    -0.071 A 
ATOM     18  C17 I21 d   1      32.758  39.652   1.383  0.00  0.00    -0.055 A 
ATOM     19  C18 I21 d   1      32.500  39.997   0.001  0.00  0.00    -0.077 A 
ATOM     20  C19 I21 d   1      32.780  41.321  -0.504  0.00  0.00    -0.082 A 
ATOM     21  C20 I21 d   1      33.319  42.285   0.412  0.00  0.00    -0.077 A 
ATOM     22  C29 I21 d   1      30.057  38.320   1.386  0.00  0.00     0.295 C 
ATOM     23  O1  I21 d   1      31.182  45.646   1.429  0.00  0.00    -0.268 OA
ATOM     24  O2  I21 d   1      29.741  37.669   0.425  0.00  0.00    -0.262 OA
ATOM     25  H1  I21 d   1      28.713  45.386   0.279  0.00  0.00     0.086 H 
ATOM     26  H2  I21 d   1      26.757  41.533  -0.274  0.00  0.00     0.085 H 
ATOM     27  H3  I21 d   1      30.541  41.712   1.895  0.00  0.00     0.086 H 
ATOM     28  H4  I21 d   1      28.791  39.612  -0.259  0.00  0.00     0.082 H 
ATOM     29  H5  I21 d   1      27.535  39.650   1.024  0.00  0.00     0.082 H 
ATOM     30  H6  I21 d   1      30.888  43.142   3.198  0.00  0.00     0.163 HD
ATOM     31  H7  I21 d   1      32.827  45.233   3.153  0.00  0.00     0.080 H 
ATOM     32  H8  I21 d   1      33.452  42.709   4.553  0.00  0.00     0.036 H 
ATOM     33  H9  I21 d   1      34.463  44.187   4.402  0.00  0.00     0.036 H 
ATOM     34  H10 I21 d   1      35.278  42.626   2.859  0.00  0.00     0.040 H 
ATOM     35  H11 I21 d   1      34.405  43.898   1.938  0.00  0.00     0.040 H 
ATOM     36  H15 I21 d   1      32.612  37.580   0.901  0.00  0.00     0.044 H 
ATOM     37  H16 I21 d   1      33.228  37.931   2.551  0.00  0.00     0.044 H 
ATOM     38  H17 I21 d   1      33.458  40.388   3.353  0.00  0.00     0.085 H 
ATOM     39  H18 I21 d   1      32.089  39.248  -0.667  0.00  0.00     0.084 H 
ATOM     40  H19 I21 d   1      32.589  41.578  -1.540  0.00  0.00     0.083 H 
ATOM     41  H20 I21 d   1      33.536  43.287   0.061  0.00  0.00     0.084 H 
ENDROOT
BRANCH   3  42
ATOM     42  C36 I21 d   1      26.442  44.144  -0.875  0.00  0.00    -0.005 A 
ATOM     43  C31 I21 d   1      26.314  43.898  -2.327  0.00  0.00    -0.071 A 
ATOM     44  C32 I21 d   1      25.128  44.408  -3.045  0.00  0.00    -0.082 A 
ATOM     45  H29 I21 d   1      27.082  43.349  -2.859  0.00  0.00     0.084 H 
ATOM     46  C33 I21 d   1      24.073  45.172  -2.381  0.00  0.00    -0.082 A 
ATOM     47  H30 I21 d   1      25.036  44.208  -4.106  0.00  0.00     0.083 H 
ATOM     48  C34 I21 d   1      24.217  45.424  -0.954  0.00  0.00    -0.062 A 
ATOM     49  H31 I21 d   1      23.214  45.538  -2.932  0.00  0.00     0.083 H 
ATOM     50  C35 I21 d   1      25.376  44.909  -0.223  0.00  0.00     0.055 A 
ATOM     51  H32 I21 d   1      23.461  45.997  -0.429  0.00  0.00     0.085 H 
BRANCH  50  52
ATOM     52  C37 I21 d   1      25.310  45.092   1.196  0.00  0.00     0.100 C 
ATOM     53  N1  I21 d   1      25.361  44.989   2.350  0.00  0.00    -0.191 NA
ENDBRANCH  50  52
ENDBRANCH   3  42
BRANCH  11  54
ATOM     54  C23 I21 d   1      32.027  45.204   4.939  0.00  0.00    -0.035 A 
ATOM     55  C22 I21 d   1      31.555  44.419   6.088  0.00  0.00    -0.075 A 
ATOM     56  C21 I21 d   1      31.160  45.112   7.302  0.00  0.00    -0.082 A 
ATOM     57  H22 I21 d   1      31.502  43.338   6.030  0.00  0.00     0.084 H 
ATOM     58  C26 I21 d   1      31.242  46.571   7.305  0.00  0.00    -0.083 A 
ATOM     59  H21 I21 d   1      30.817  44.567   8.174  0.00  0.00     0.083 H 
ATOM     60  C25 I21 d   1      31.704  47.334   6.146  0.00  0.00    -0.082 A 
ATOM     61  H25 I21 d   1      30.949  47.108   8.200  0.00  0.00     0.083 H 
ATOM     62  C24 I21 d   1      32.119  46.658   4.933  0.00  0.00    -0.075 A 
ATOM     63  H24 I21 d   1      31.736  48.416   6.195  0.00  0.00     0.083 H 
ATOM     64  H23 I21 d   1      32.478  47.204   4.069  0.00  0.00     0.084 H 
ENDBRANCH  11  54
BRANCH  12  65
ATOM     65  N3  I21 d   1      30.796  38.567   3.666  0.00  0.00    -0.061 N 
ATOM     66  H12 I21 d   1      31.479  38.281   4.350  0.00  0.00     0.275 HD
ATOM     67  H13 I21 d   1      29.874  38.318   3.987  0.00  0.00     0.275 HD
ATOM     68  H14 I21 d   1      30.848  39.565   3.536  0.00  0.00     0.275 HD
ENDBRANCH  12  65
BRANCH  12  69
ATOM     69  C30 I21 d   1      30.765  36.361   2.628  0.00  0.00    -0.036 C 
ATOM     70  H26 I21 d   1      30.953  35.800   1.701  0.00  0.00     0.031 H 
ATOM     71  H27 I21 d   1      29.712  36.239   2.924  0.00  0.00     0.031 H 
ATOM     72  H28 I21 d   1      31.417  35.978   3.427  0.00  0.00     0.031 H 
ENDBRANCH  12  69
TORSDOF 5
