REMARK  21 active torsions:
REMARK  status: ('A' for Active; 'I' for Inactive)
REMARK    1  A    between atoms: S1_2  and  C22_4 
REMARK    2  A    between atoms: S1_2  and  N24_5 
REMARK    3  A    between atoms: N24_5  and  C29_6 
REMARK    4  A    between atoms: N24_5  and  C19_7 
REMARK    5  A    between atoms: C15_9  and  C14_10 
REMARK       I    between atoms: C14_10  and  N13_12 
REMARK    6  A    between atoms: N13_12  and  C12_13 
REMARK    7  A    between atoms: C12_13  and  C50_14 
REMARK    8  A    between atoms: C12_13  and  C5_15 
REMARK    9  A    between atoms: C17_23  and  C34_25 
REMARK       I    between atoms: C34_25  and  N35_27 
REMARK   10  A    between atoms: N35_27  and  C36_28 
REMARK   11  A    between atoms: C36_28  and  C56_29 
REMARK   12  A    between atoms: C36_28  and  C37_36 
REMARK   13  A    between atoms: C56_29  and  C58_30 
REMARK   14  A    between atoms: C37_36  and  N38_37 
REMARK   15  A    between atoms: N38_37  and  C39_38 
REMARK   16  A    between atoms: C39_38  and  C8_39 
REMARK   17  A    between atoms: C39_38  and  C1_40 
REMARK       I    between atoms: C1_40  and  N9_42 
REMARK   18  A    between atoms: N9_42  and  C10_43 
REMARK   19  A    between atoms: C10_43  and  C51_44 
REMARK   20  A    between atoms: C51_44  and  C52_45 
REMARK   21  A    between atoms: C51_44  and  C53_46 
ROOT
ATOM      1  C34 IXS d   1      30.058  40.052   1.336  0.00  0.00     0.252 C 
ATOM      2  O4  IXS d   1      29.643  39.296   0.474  0.00  0.00    -0.268 OA
ATOM      3  N35 IXS d   1      30.809  39.621   2.345  0.00  0.00    -0.350 N 
ATOM      4  H19 IXS d   1      30.901  40.197   3.157  0.00  0.00     0.163 HD
ENDROOT
BRANCH   3   5
ATOM      5  C36 IXS d   1      31.498  38.348   2.312  0.00  0.00     0.039 C 
ATOM      6  H20 IXS d   1      31.444  37.932   1.295  0.00  0.00     0.075 H 
BRANCH   5   7
ATOM      7  C56 IXS d   1      32.966  38.496   2.720  0.00  0.00    -0.021 C 
ATOM      8  H21 IXS d   1      33.475  37.540   2.529  0.00  0.00     0.043 H 
ATOM      9  H22 IXS d   1      33.004  38.723   3.796  0.00  0.00     0.043 H 
BRANCH   7  10
ATOM     10  C58 IXS d   1      33.713  39.592   1.974  0.00  0.00    -0.056 A 
ATOM     11  C65 IXS d   1      33.494  39.848   0.616  0.00  0.00    -0.077 A 
ATOM     12  C64 IXS d   1      34.197  40.867  -0.038  0.00  0.00    -0.082 A 
ATOM     13  H23 IXS d   1      32.774  39.253   0.066  0.00  0.00     0.084 H 
ATOM     14  C63 IXS d   1      35.128  41.634   0.659  0.00  0.00    -0.083 A 
ATOM     15  H24 IXS d   1      34.016  41.060  -1.089  0.00  0.00     0.083 H 
ATOM     16  C62 IXS d   1      35.350  41.390   2.014  0.00  0.00    -0.082 A 
ATOM     17  H25 IXS d   1      35.678  42.417   0.150  0.00  0.00     0.083 H 
ATOM     18  C61 IXS d   1      34.645  40.365   2.664  0.00  0.00    -0.077 A 
ATOM     19  H26 IXS d   1      36.065  41.991   2.564  0.00  0.00     0.083 H 
ATOM     20  H27 IXS d   1      34.828  40.172   3.715  0.00  0.00     0.084 H 
ENDBRANCH   7  10
ENDBRANCH   5   7
BRANCH   5  21
ATOM     21  C37 IXS d   1      30.816  37.404   3.296  0.00  0.00     0.101 C 
ATOM     22  H28 IXS d   1      30.871  37.833   4.307  0.00  0.00     0.079 H 
ATOM     23  H29 IXS d   1      31.331  36.432   3.282  0.00  0.00     0.079 H 
BRANCH  21  24
ATOM     24  N38 IXS d   1      29.418  37.211   2.933  0.00  0.00    -0.061 N 
ATOM     25  H30 IXS d   1      29.272  37.666   2.045  0.00  0.00     0.278 HD
ATOM     26  H31 IXS d   1      28.859  37.664   3.639  0.00  0.00     0.278 HD
BRANCH  24  27
ATOM     27  C39 IXS d   1      28.930  35.840   2.805  0.00  0.00     0.174 C 
ATOM     28  H32 IXS d   1      29.190  35.292   3.723  0.00  0.00     0.099 H 
BRANCH  27  29
ATOM     29  C8  IXS d   1      27.413  35.841   2.654  0.00  0.00    -0.041 C 
ATOM     30  H33 IXS d   1      27.053  34.806   2.558  0.00  0.00     0.030 H 
ATOM     31  H34 IXS d   1      27.134  36.411   1.755  0.00  0.00     0.030 H 
ATOM     32  H35 IXS d   1      26.957  36.307   3.540  0.00  0.00     0.030 H 
ENDBRANCH  27  29
BRANCH  27  33
ATOM     33  C1  IXS d   1      29.573  35.137   1.637  0.00  0.00     0.248 C 
ATOM     34  O3  IXS d   1      29.658  35.718   0.562  0.00  0.00    -0.271 OA
ATOM     35  N9  IXS d   1      30.033  33.896   1.812  0.00  0.00    -0.359 N 
ATOM     36  H36 IXS d   1      30.052  33.499   2.730  0.00  0.00     0.162 HD
BRANCH  35  37
ATOM     37  C10 IXS d   1      30.511  33.111   0.671  0.00  0.00    -0.002 C 
ATOM     38  H37 IXS d   1      31.177  33.749   0.072  0.00  0.00     0.064 H 
ATOM     39  H38 IXS d   1      29.639  32.821   0.066  0.00  0.00     0.064 H 
BRANCH  37  40
ATOM     40  C51 IXS d   1      31.277  31.840   1.042  0.00  0.00    -0.046 C 
ATOM     41  H39 IXS d   1      32.169  32.148   1.608  0.00  0.00     0.041 H 
BRANCH  40  42
ATOM     42  C52 IXS d   1      30.468  30.906   1.935  0.00  0.00    -0.072 C 
ATOM     43  H40 IXS d   1      31.066  30.013   2.169  0.00  0.00     0.028 H 
ATOM     44  H41 IXS d   1      29.548  30.605   1.413  0.00  0.00     0.028 H 
ATOM     45  H42 IXS d   1      30.206  31.426   2.868  0.00  0.00     0.028 H 
ENDBRANCH  40  42
BRANCH  40  46
ATOM     46  C53 IXS d   1      31.749  31.098  -0.204  0.00  0.00    -0.072 C 
ATOM     47  H43 IXS d   1      32.331  31.782  -0.840  0.00  0.00     0.028 H 
ATOM     48  H44 IXS d   1      30.877  30.730  -0.764  0.00  0.00     0.028 H 
ATOM     49  H45 IXS d   1      32.380  30.247   0.093  0.00  0.00     0.028 H 
ENDBRANCH  40  46
ENDBRANCH  37  40
ENDBRANCH  35  37
ENDBRANCH  27  33
ENDBRANCH  24  27
ENDBRANCH  21  24
ENDBRANCH   5  21
ENDBRANCH   3   5
BRANCH   1  50
ATOM     50  C17 IXS d   1      29.725  41.514   1.309  0.00  0.00     0.035 A 
ATOM     51  C18 IXS d   1      28.462  41.959   0.916  0.00  0.00    -0.041 A 
ATOM     52  C19 IXS d   1      28.162  43.331   0.911  0.00  0.00     0.046 A 
ATOM     53  H17 IXS d   1      27.708  41.242   0.613  0.00  0.00     0.088 H 
ATOM     54  C20 IXS d   1      29.147  44.250   1.300  0.00  0.00    -0.041 A 
ATOM     55  C15 IXS d   1      30.411  43.811   1.696  0.00  0.00     0.035 A 
ATOM     56  H7  IXS d   1      28.925  45.311   1.293  0.00  0.00     0.088 H 
ATOM     57  C16 IXS d   1      30.694  42.442   1.693  0.00  0.00    -0.052 A 
ATOM     58  H18 IXS d   1      31.677  42.097   1.992  0.00  0.00     0.086 H 
BRANCH  52  59
ATOM     59  N24 IXS d   1      26.870  43.758   0.512  0.00  0.00    -0.281 N 
BRANCH  59  60
ATOM     60  S1  IXS d   1      26.140  44.957   1.160  0.00  0.00     0.228 S 
ATOM     61  O2  IXS d   1      26.653  45.225   2.467  0.00  0.00    -0.206 OA
ATOM     62  O1  IXS d   1      24.731  44.716   1.186  0.00  0.00    -0.206 OA
BRANCH  60  63
ATOM     63  C22 IXS d   1      26.434  46.335   0.257  0.00  0.00     0.033 C 
ATOM     64  H1  IXS d   1      27.516  46.531   0.229  0.00  0.00     0.051 H 
ATOM     65  H2  IXS d   1      25.918  47.191   0.716  0.00  0.00     0.051 H 
ATOM     66  H3  IXS d   1      26.062  46.188  -0.768  0.00  0.00     0.051 H 
ENDBRANCH  60  63
ENDBRANCH  59  60
BRANCH  59  67
ATOM     67  C29 IXS d   1      26.211  43.026  -0.570  0.00  0.00    -0.004 C 
ATOM     68  H4  IXS d   1      26.865  42.211  -0.913  0.00  0.00     0.058 H 
ATOM     69  H5  IXS d   1      26.010  43.711  -1.407  0.00  0.00     0.058 H 
ATOM     70  H6  IXS d   1      25.263  42.606  -0.204  0.00  0.00     0.058 H 
ENDBRANCH  59  67
ENDBRANCH  52  59
BRANCH  55  71
ATOM     71  C14 IXS d   1      31.474  44.774   2.141  0.00  0.00     0.252 C 
ATOM     72  O5  IXS d   1      31.623  45.852   1.570  0.00  0.00    -0.268 OA
ATOM     73  N13 IXS d   1      32.211  44.390   3.190  0.00  0.00    -0.349 N 
ATOM     74  H8  IXS d   1      32.046  43.477   3.562  0.00  0.00     0.163 HD
BRANCH  73  75
ATOM     75  C12 IXS d   1      33.237  45.204   3.830  0.00  0.00     0.034 C 
ATOM     76  H9  IXS d   1      33.391  46.103   3.215  0.00  0.00     0.079 H 
BRANCH  75  77
ATOM     77  C50 IXS d   1      34.558  44.432   3.877  0.00  0.00    -0.053 C 
ATOM     78  H10 IXS d   1      35.328  45.051   4.361  0.00  0.00     0.030 H 
ATOM     79  H11 IXS d   1      34.876  44.186   2.853  0.00  0.00     0.030 H 
ATOM     80  H12 IXS d   1      34.420  43.504   4.451  0.00  0.00     0.030 H 
ENDBRANCH  75  77
BRANCH  75  81
ATOM     81  C5  IXS d   1      32.809  45.651   5.185  0.00  0.00    -0.036 A 
ATOM     82  C6  IXS d   1      32.464  44.736   6.182  0.00  0.00    -0.072 A 
ATOM     83  C7  IXS d   1      32.065  45.185   7.443  0.00  0.00    -0.045 A 
ATOM     84  H13 IXS d   1      32.506  43.672   5.976  0.00  0.00     0.084 H 
ATOM     85  C2  IXS d   1      32.013  46.552   7.712  0.00  0.00     0.116 A 
ATOM     86  H14 IXS d   1      31.796  44.471   8.213  0.00  0.00     0.088 H 
ATOM     87  C3  IXS d   1      32.359  47.472   6.728  0.00  0.00    -0.045 A 
ATOM     88  F1  IXS d   1      31.634  46.978   8.932  0.00  0.00    -0.206 F 
ATOM     89  C4  IXS d   1      32.752  47.022   5.466  0.00  0.00    -0.072 A 
ATOM     90  H16 IXS d   1      32.324  48.535   6.940  0.00  0.00     0.088 H 
ATOM     91  H15 IXS d   1      33.015  47.740   4.697  0.00  0.00     0.084 H 
ENDBRANCH  75  81
ENDBRANCH  73  75
ENDBRANCH  55  71
ENDBRANCH   1  50
TORSDOF 21
