REMARK WARNING: 32 MAX_TORS EXCEEDED!!!
REMARK  35 active torsions:
REMARK  status: ('A' for Active; 'I' for Inactive)
REMARK    1  A    between atoms: C1_1  and  C2_4 
REMARK    2  A    between atoms: C2_4  and  C3_5 
REMARK    3  A    between atoms: C3_5  and  O3_6 
REMARK    4  A    between atoms: C3_5  and  C4_7 
REMARK    5  A    between atoms: C4_7  and  N5_8 
REMARK    6  A    between atoms: C4_7  and  C25_34 
REMARK       I    between atoms: N5_8  and  C6_9 
REMARK    7  A    between atoms: C6_9  and  C7_11 
REMARK    8  A    between atoms: C7_11  and  N8_12 
REMARK    9  A    between atoms: C7_11  and  C29_38 
REMARK       I    between atoms: N8_12  and  C9_13 
REMARK   10  A    between atoms: C9_13  and  C10_15 
REMARK   11  A    between atoms: C10_15  and  C11_16 
REMARK   12  A    between atoms: C11_16  and  O11_17 
REMARK   13  A    between atoms: C11_16  and  C12_18 
REMARK   14  A    between atoms: C12_18  and  C13_19 
REMARK   15  A    between atoms: C12_18  and  N14_20 
REMARK   16  A    between atoms: C13_19  and  C30_39 
REMARK       I    between atoms: N14_20  and  C15_21 
REMARK   17  A    between atoms: C15_21  and  C16_23 
REMARK   18  A    between atoms: C16_23  and  N17_24 
REMARK   19  A    between atoms: C16_23  and  C33_42 
REMARK       I    between atoms: N17_24  and  C18_25 
REMARK   20  A    between atoms: C18_25  and  C19_27 
REMARK   21  A    between atoms: C19_27  and  N20_28 
REMARK   22  A    between atoms: C19_27  and  C36_45 
REMARK       I    between atoms: N20_28  and  C21_29 
REMARK   23  A    between atoms: C21_29  and  C22_31 
REMARK   24  A    between atoms: C22_31  and  C23_32 
REMARK   25  A    between atoms: C23_32  and  C24_33 
REMARK   26  A    between atoms: C23_32  and  C39_48 
REMARK   27  A    between atoms: C25_34  and  C26_35 
REMARK   28  A    between atoms: C26_35  and  C27_36 
REMARK   29  A    between atoms: C26_35  and  C28_37 
REMARK   30  A    between atoms: C30_39  and  C31_40 
REMARK   31  A    between atoms: C30_39  and  C32_41 
REMARK   32  A    between atoms: C33_42  and  C34_43 
REMARK   33  A    between atoms: C33_42  and  C35_44 
REMARK   34  A    between atoms: C36_45  and  C37_46 
REMARK   35  A    between atoms: C36_45  and  C38_47 
ROOT
ATOM      1  C12 STA d   1       8.608  31.743  24.450  0.00  0.00     0.037 C 
ATOM      2  H13 STA d   1       8.239  32.734  24.147  0.00  0.00     0.076 H 
ENDROOT
BRANCH   1   3
ATOM      3  C11 STA d   1       7.474  30.719  24.374  0.00  0.00     0.063 C 
ATOM      4  H11 STA d   1       7.229  30.572  23.312  0.00  0.00     0.086 H 
BRANCH   3   5
ATOM      5  C10 STA d   1       6.185  31.149  25.081  0.00  0.00     0.035 C 
ATOM      6  H9  STA d   1       5.458  30.325  25.033  0.00  0.00     0.051 H 
ATOM      7  H10 STA d   1       6.412  31.377  26.133  0.00  0.00     0.051 H 
BRANCH   5   8
ATOM      8  C9  STA d   1       5.577  32.390  24.422  0.00  0.00     0.220 C 
ATOM      9  N8  ALA d   1       4.694  32.164  23.453  0.00  0.00    -0.348 N 
ATOM     10  H8  ALA d   1       4.463  31.218  23.225  0.00  0.00     0.163 HD
ATOM     11  O9  STA d   1       5.886  33.515  24.811  0.00  0.00    -0.274 OA
BRANCH   9  12
ATOM     12  C7  ALA d   1       4.044  33.250  22.704  0.00  0.00     0.086 C 
ATOM     13  H7  ALA d   1       4.753  34.083  22.589  0.00  0.00     0.086 H 
BRANCH  12  14
ATOM     14  C6  ALA d   1       2.772  33.759  23.390  0.00  0.00     0.240 C 
ATOM     15  N5  STA d   1       2.591  35.084  23.411  0.00  0.00    -0.352 N 
ATOM     16  H6  STA d   1       3.295  35.694  23.046  0.00  0.00     0.163 HD
ATOM     17  O6  ALA d   1       1.998  32.974  23.911  0.00  0.00    -0.271 OA
BRANCH  15  18
ATOM     18  C4  STA d   1       1.353  35.637  23.973  0.00  0.00     0.038 C 
ATOM     19  H5  STA d   1       0.740  34.750  24.191  0.00  0.00     0.076 H 
BRANCH  18  20
ATOM     20  C3  STA d   1       0.559  36.385  22.900  0.00  0.00     0.064 C 
ATOM     21  H3  STA d   1      -0.284  36.923  23.358  0.00  0.00     0.086 H 
BRANCH  20  22
ATOM     22  C2  STA d   1       0.052  35.377  21.865  0.00  0.00     0.041 C 
ATOM     23  H1  STA d   1      -0.690  35.873  21.221  0.00  0.00     0.053 H 
ATOM     24  H2  STA d   1       0.902  35.040  21.253  0.00  0.00     0.053 H 
BRANCH  22  25
ATOM     25  C1  STA d   1      -0.601  34.155  22.520  0.00  0.00     0.175 C 
ATOM     26  O1  STA d   1      -1.231  34.346  23.583  0.00  0.00    -0.648 OA
ATOM     27  O2  STA d   1      -0.424  33.052  21.962  0.00  0.00    -0.648 OA
ENDBRANCH  22  25
ENDBRANCH  20  22
BRANCH  20  28
ATOM     28  O3  STA d   1       1.429  37.299  22.227  0.00  0.00    -0.393 OA
ATOM     29  H4  STA d   1       0.948  37.744  21.540  0.00  0.00     0.210 HD
ENDBRANCH  20  28
ENDBRANCH  18  20
BRANCH  18  30
ATOM     30  C25 STA d   1       1.461  36.324  25.342  0.00  0.00    -0.041 C 
ATOM     31  H27 STA d   1       1.732  35.554  26.080  0.00  0.00     0.036 H 
ATOM     32  H28 STA d   1       0.470  36.734  25.587  0.00  0.00     0.036 H 
BRANCH  30  33
ATOM     33  C26 STA d   1       2.476  37.462  25.467  0.00  0.00    -0.059 C 
ATOM     34  H29 STA d   1       3.033  37.268  26.395  0.00  0.00     0.038 H 
BRANCH  33  35
ATOM     35  C27 STA d   1       3.513  37.473  24.343  0.00  0.00    -0.073 C 
ATOM     36  H30 STA d   1       4.208  38.312  24.494  0.00  0.00     0.028 H 
ATOM     37  H31 STA d   1       3.003  37.588  23.375  0.00  0.00     0.028 H 
ATOM     38  H32 STA d   1       4.074  36.527  24.352  0.00  0.00     0.028 H 
ENDBRANCH  33  35
BRANCH  33  39
ATOM     39  C28 STA d   1       1.817  38.831  25.643  0.00  0.00    -0.073 C 
ATOM     40  H33 STA d   1       1.080  38.781  26.458  0.00  0.00     0.028 H 
ATOM     41  H34 STA d   1       1.312  39.117  24.709  0.00  0.00     0.028 H 
ATOM     42  H35 STA d   1       2.585  39.579  25.889  0.00  0.00     0.028 H 
ENDBRANCH  33  39
ENDBRANCH  30  33
ENDBRANCH  18  30
ENDBRANCH  15  18
ENDBRANCH  12  14
BRANCH  12  43
ATOM     43  C29 ALA d   1       3.641  32.706  21.332  0.00  0.00    -0.049 C 
ATOM     44  H36 ALA d   1       3.151  33.502  20.751  0.00  0.00     0.030 H 
ATOM     45  H37 ALA d   1       2.944  31.865  21.461  0.00  0.00     0.030 H 
ATOM     46  H38 ALA d   1       4.538  32.360  20.797  0.00  0.00     0.030 H 
ENDBRANCH  12  43
ENDBRANCH   9  12
ENDBRANCH   5   8
ENDBRANCH   3   5
BRANCH   3  47
ATOM     47  O11 STA d   1       7.947  29.477  24.903  0.00  0.00    -0.393 OA
ATOM     48  H12 STA d   1       8.123  29.576  25.831  0.00  0.00     0.210 HD
ENDBRANCH   3  47
ENDBRANCH   1   3
BRANCH   1  49
ATOM     49  C13 STA d   1       9.700  31.277  23.483  0.00  0.00    -0.041 C 
ATOM     50  H14 STA d   1       9.316  31.379  22.457  0.00  0.00     0.036 H 
ATOM     51  H15 STA d   1       9.912  30.218  23.691  0.00  0.00     0.036 H 
BRANCH  49  52
ATOM     52  C30 STA d   1      11.016  32.054  23.578  0.00  0.00    -0.059 C 
ATOM     53  H39 STA d   1      11.279  32.150  24.642  0.00  0.00     0.038 H 
BRANCH  52  54
ATOM     54  C31 STA d   1      10.921  33.464  22.992  0.00  0.00    -0.073 C 
ATOM     55  H40 STA d   1      11.894  33.968  23.090  0.00  0.00     0.028 H 
ATOM     56  H41 STA d   1      10.155  34.036  23.536  0.00  0.00     0.028 H 
ATOM     57  H42 STA d   1      10.646  33.401  21.929  0.00  0.00     0.028 H 
ENDBRANCH  52  54
BRANCH  52  58
ATOM     58  C32 STA d   1      12.115  31.253  22.875  0.00  0.00    -0.073 C 
ATOM     59  H43 STA d   1      12.168  30.244  23.309  0.00  0.00     0.028 H 
ATOM     60  H44 STA d   1      13.082  31.761  23.009  0.00  0.00     0.028 H 
ATOM     61  H45 STA d   1      11.885  31.179  21.802  0.00  0.00     0.028 H 
ENDBRANCH  52  58
ENDBRANCH  49  52
ENDBRANCH   1  49
BRANCH   1  62
ATOM     62  N14 STA d   1       9.133  31.820  25.823  0.00  0.00    -0.352 N 
ATOM     63  C15 VAL d   1       9.257  32.975  26.475  0.00  0.00     0.241 C 
ATOM     64  O15 VAL d   1       8.985  34.073  25.993  0.00  0.00    -0.271 OA
ATOM     65  H16 STA d   1       9.406  30.975  26.283  0.00  0.00     0.163 HD
BRANCH  63  66
ATOM     66  C16 VAL d   1       9.859  32.876  27.878  0.00  0.00     0.092 C 
ATOM     67  H17 VAL d   1       9.853  31.837  28.239  0.00  0.00     0.088 H 
BRANCH  66  68
ATOM     68  N17 VAL d   1      11.236  33.355  27.690  0.00  0.00    -0.346 N 
ATOM     69  C18 VAL d   1      12.318  32.830  28.256  0.00  0.00     0.241 C 
ATOM     70  O18 VAL d   1      12.310  31.920  29.084  0.00  0.00    -0.271 OA
ATOM     71  H18 VAL d   1      11.370  34.141  27.086  0.00  0.00     0.163 HD
BRANCH  69  72
ATOM     72  C19 VAL d   1      13.616  33.508  27.811  0.00  0.00     0.092 C 
ATOM     73  H19 VAL d   1      13.439  34.593  27.780  0.00  0.00     0.088 H 
BRANCH  72  74
ATOM     74  N20 VAL d   1      14.730  33.246  28.731  0.00  0.00    -0.347 N 
ATOM     75  C21 IVA d   1      15.300  34.200  29.460  0.00  0.00     0.218 C 
ATOM     76  O21 IVA d   1      14.936  35.376  29.472  0.00  0.00    -0.274 OA
ATOM     77  H20 VAL d   1      15.074  32.311  28.812  0.00  0.00     0.163 HD
BRANCH  75  78
ATOM     78  C22 IVA d   1      16.471  33.690  30.304  0.00  0.00     0.012 C 
ATOM     79  H21 IVA d   1      17.401  34.052  29.841  0.00  0.00     0.047 H 
ATOM     80  H22 IVA d   1      16.451  32.590  30.276  0.00  0.00     0.047 H 
BRANCH  78  81
ATOM     81  C23 IVA d   1      16.482  34.119  31.772  0.00  0.00    -0.053 C 
ATOM     82  H23 IVA d   1      16.601  35.212  31.820  0.00  0.00     0.039 H 
BRANCH  81  83
ATOM     83  C24 IVA d   1      15.187  33.741  32.494  0.00  0.00    -0.073 C 
ATOM     84  H24 IVA d   1      15.243  34.069  33.542  0.00  0.00     0.028 H 
ATOM     85  H25 IVA d   1      15.052  32.650  32.458  0.00  0.00     0.028 H 
ATOM     86  H26 IVA d   1      14.335  34.232  32.001  0.00  0.00     0.028 H 
ENDBRANCH  81  83
BRANCH  81  87
ATOM     87  C39 IVA d   1      17.676  33.453  32.461  0.00  0.00    -0.073 C 
ATOM     88  H60 IVA d   1      18.603  33.729  31.937  0.00  0.00     0.028 H 
ATOM     89  H61 IVA d   1      17.552  32.360  32.435  0.00  0.00     0.028 H 
ATOM     90  H62 IVA d   1      17.732  33.791  33.506  0.00  0.00     0.028 H 
ENDBRANCH  81  87
ENDBRANCH  78  81
ENDBRANCH  75  78
ENDBRANCH  72  74
BRANCH  72  91
ATOM     91  C36 VAL d   1      14.018  33.033  26.411  0.00  0.00    -0.033 C 
ATOM     92  H53 VAL d   1      13.186  33.267  25.730  0.00  0.00     0.042 H 
BRANCH  91  93
ATOM     93  C37 VAL d   1      15.259  33.783  25.925  0.00  0.00    -0.071 C 
ATOM     94  H54 VAL d   1      15.531  33.429  24.920  0.00  0.00     0.028 H 
ATOM     95  H55 VAL d   1      16.093  33.599  26.617  0.00  0.00     0.028 H 
ATOM     96  H56 VAL d   1      15.045  34.861  25.888  0.00  0.00     0.028 H 
ENDBRANCH  91  93
BRANCH  91  97
ATOM     97  C38 VAL d   1      14.268  31.524  26.339  0.00  0.00    -0.071 C 
ATOM     98  H57 VAL d   1      13.374  30.987  26.689  0.00  0.00     0.028 H 
ATOM     99  H58 VAL d   1      15.125  31.264  26.977  0.00  0.00     0.028 H 
ATOM    100  H59 VAL d   1      14.484  31.237  25.299  0.00  0.00     0.028 H 
ENDBRANCH  91  97
ENDBRANCH  72  91
ENDBRANCH  69  72
ENDBRANCH  66  68
BRANCH  66 101
ATOM    101  C33 VAL d   1       9.079  33.759  28.857  0.00  0.00    -0.033 C 
ATOM    102  H46 VAL d   1       8.999  34.765  28.419  0.00  0.00     0.042 H 
BRANCH 101 103
ATOM    103  C34 VAL d   1       7.666  33.209  29.062  0.00  0.00    -0.071 C 
ATOM    104  H47 VAL d   1       7.120  33.854  29.767  0.00  0.00     0.028 H 
ATOM    105  H48 VAL d   1       7.725  32.189  29.469  0.00  0.00     0.028 H 
ATOM    106  H49 VAL d   1       7.137  33.189  28.098  0.00  0.00     0.028 H 
ENDBRANCH 101 103
BRANCH 101 107
ATOM    107  C35 VAL d   1       9.793  33.883  30.204  0.00  0.00    -0.071 C 
ATOM    108  H50 VAL d   1      10.807  34.279  30.046  0.00  0.00     0.028 H 
ATOM    109  H51 VAL d   1       9.856  32.892  30.678  0.00  0.00     0.028 H 
ATOM    110  H52 VAL d   1       9.230  34.567  30.856  0.00  0.00     0.028 H 
ENDBRANCH 101 107
ENDBRANCH  66 101
ENDBRANCH  63  66
ENDBRANCH   1  62
TORSDOF 35
