REMARK WARNING: 32 MAX_TORS EXCEEDED!!!
REMARK  55 active torsions:
REMARK  status: ('A' for Active; 'I' for Inactive)
REMARK    1  A    between atoms: CA_2  and  N_1 
REMARK    2  A    between atoms: CA_2  and  CB_5 
REMARK    3  A    between atoms: C_3  and  CA_2 
REMARK       I    between atoms: N_10  and  C_3 
REMARK    4  A    between atoms: CB_5  and  CG_6 
REMARK    5  A    between atoms: CG_6  and  CD_7 
REMARK    6  A    between atoms: CA_11  and  N_10 
REMARK    7  A    between atoms: CA_11  and  CB_14 
REMARK    8  A    between atoms: C_12  and  CA_11 
REMARK       I    between atoms: N_18  and  C_12 
REMARK    9  A    between atoms: CB_14  and  CG_15 
REMARK   10  A    between atoms: CG_15  and  CD1_16 
REMARK   11  A    between atoms: CG_15  and  CD2_17 
REMARK   12  A    between atoms: CA_19  and  N_18 
REMARK   13  A    between atoms: CA_19  and  CB_22 
REMARK   14  A    between atoms: C_20  and  CA_19 
REMARK       I    between atoms: N_30  and  C_20 
REMARK   15  A    between atoms: CB_22  and  CG_23 
REMARK   16  A    between atoms: CZ_28  and  OH_29 
REMARK   17  A    between atoms: C_32  and  CA_31 
REMARK       I    between atoms: N_37  and  C_32 
REMARK   18  A    between atoms: CA_38  and  N_37 
REMARK   19  A    between atoms: CA_38  and  CB_41 
REMARK   20  A    between atoms: C_39  and  CA_38 
REMARK       I    between atoms: N_45  and  C_39 
REMARK   21  A    between atoms: CB_41  and  CG_42 
REMARK   22  A    between atoms: CG_42  and  CD1_43 
REMARK   23  A    between atoms: CG_42  and  CD2_44 
REMARK   24  A    between atoms: CA_46  and  N_45 
REMARK   25  A    between atoms: CA_46  and  CB_49 
REMARK   26  A    between atoms: C_47  and  CA_46 
REMARK       I    between atoms: N_52  and  C_47 
REMARK   27  A    between atoms: CB_49  and  CG2_51 
REMARK   28  A    between atoms: CB_49  and  OG1_50 
REMARK   29  A    between atoms: CA_53  and  N_52 
REMARK   30  A    between atoms: CA_53  and  CB_56 
REMARK   31  A    between atoms: C_54  and  CA_53 
REMARK       I    between atoms: N_58  and  C_54 
REMARK   32  A    between atoms: CB_56  and  OG_57 
REMARK   33  A    between atoms: CA_59  and  N_58 
REMARK   34  A    between atoms: CA_59  and  CB_62 
REMARK   35  A    between atoms: C_60  and  CA_59 
REMARK       I    between atoms: N_66  and  C_60 
REMARK   36  A    between atoms: CB_62  and  CG_63 
REMARK   37  A    between atoms: CG_63  and  CD1_64 
REMARK   38  A    between atoms: CG_63  and  CD2_65 
REMARK   39  A    between atoms: CA_67  and  N_66 
REMARK   40  A    between atoms: CA_67  and  CB_70 
REMARK   41  A    between atoms: C_68  and  CA_67 
REMARK       I    between atoms: N_77  and  C_68 
REMARK   42  A    between atoms: CB_70  and  CG_71 
REMARK   43  A    between atoms: CG_71  and  CD_72 
REMARK   44  A    between atoms: CD_72  and  NE_73 
REMARK       I    between atoms: NE_73  and  CZ_74 
REMARK       I    between atoms: CZ_74  and  NH1_75 
REMARK   45  A    between atoms: CA_78  and  N_77 
REMARK   46  A    between atoms: CA_78  and  CB_81 
REMARK   47  A    between atoms: C_79  and  CA_78 
REMARK       I    between atoms: C_79  and  N_83 
REMARK   48  A    between atoms: CB_81  and  OG_82 
REMARK   49  A    between atoms: N_83  and  CA_84 
REMARK   50  A    between atoms: CA_84  and  CB_87 
REMARK   51  A    between atoms: CA_84  and  C_85 
REMARK   52  A    between atoms: C_85  and  O1_91 
REMARK   53  A    between atoms: CB_87  and  CG_88 
REMARK   54  A    between atoms: CG_88  and  CD1_89 
REMARK   55  A    between atoms: CG_88  and  CD2_90 
ROOT
ATOM      1  CA  THR d   1     -60.821 -35.719 -55.598  0.00  0.00     0.113 C 
ATOM      2  H48 THR d   1     -60.614 -36.212 -54.637  0.00  0.00     0.091 H 
ENDROOT
BRANCH   1   3
ATOM      3  N   THR d   1     -62.266 -35.485 -55.697  0.00  0.00    -0.344 N 
ATOM      4  C   LEU d   1     -62.963 -34.777 -54.803  0.00  0.00     0.241 C 
ATOM      5  O   LEU d   1     -62.496 -34.400 -53.721  0.00  0.00    -0.271 OA
ATOM      6  H47 THR d   1     -62.756 -35.877 -56.476  0.00  0.00     0.163 HD
BRANCH   4   7
ATOM      7  CA  LEU d   1     -64.421 -34.448 -55.179  0.00  0.00     0.089 C 
ATOM      8  H37 LEU d   1     -64.590 -33.389 -54.934  0.00  0.00     0.087 H 
BRANCH   7   9
ATOM      9  N   LEU d   1     -64.683 -34.614 -56.607  0.00  0.00    -0.346 N 
ATOM     10  C   PRO d   1     -64.260 -33.745 -57.519  0.00  0.00     0.241 C 
ATOM     11  O   PRO d   1     -63.690 -32.690 -57.240  0.00  0.00    -0.271 OA
ATOM     12  H36 LEU d   1     -65.201 -35.414 -56.910  0.00  0.00     0.163 HD
BRANCH  10  13
ATOM     13  CA  PRO d   1     -64.515 -34.128 -58.973  0.00  0.00     0.091 C 
ATOM     14  CB  PRO d   1     -63.686 -33.273 -59.931  0.00  0.00    -0.036 C 
ATOM     15  CG  PRO d   1     -64.541 -32.113 -60.239  0.00  0.00    -0.048 C 
ATOM     16  H30 PRO d   1     -63.451 -33.835 -60.847  0.00  0.00     0.036 H 
ATOM     17  H31 PRO d   1     -62.751 -32.948 -59.450  0.00  0.00     0.036 H 
ATOM     18  CD  PRO d   1     -65.990 -32.540 -60.068  0.00  0.00    -0.001 C 
ATOM     19  H32 PRO d   1     -64.311 -31.287 -59.550  0.00  0.00     0.035 H 
ATOM     20  H33 PRO d   1     -64.368 -31.786 -61.275  0.00  0.00     0.035 H 
ATOM     21  N   PRO d   1     -65.888 -33.842 -59.378  0.00  0.00    -0.337 N 
ATOM     22  H34 PRO d   1     -66.544 -31.813 -59.456  0.00  0.00     0.064 H 
ATOM     23  H35 PRO d   1     -66.485 -32.650 -61.044  0.00  0.00     0.064 H 
ATOM     24  C   TYR d   1     -66.835 -34.741 -59.039  0.00  0.00     0.243 C 
ATOM     25  O   TYR d   1     -66.620 -35.639 -58.238  0.00  0.00    -0.271 OA
ATOM     26  H29 PRO d   1     -64.286 -35.196 -59.107  0.00  0.00     0.087 H 
BRANCH  24  27
ATOM     27  CA  TYR d   1     -68.230 -34.583 -59.648  0.00  0.00     0.093 C 
ATOM     28  H21 TYR d   1     -68.135 -33.954 -60.545  0.00  0.00     0.088 H 
BRANCH  27  29
ATOM     29  N   TYR d   1     -68.816 -35.865 -60.059  0.00  0.00    -0.346 N 
ATOM     30  C   LEU d   1     -68.476 -36.493 -61.185  0.00  0.00     0.241 C 
ATOM     31  O   LEU d   1     -67.742 -35.993 -62.044  0.00  0.00    -0.271 OA
ATOM     32  H20 TYR d   1     -69.502 -36.287 -59.467  0.00  0.00     0.163 HD
BRANCH  30  33
ATOM     33  CA  LEU d   1     -69.031 -37.910 -61.375  0.00  0.00     0.089 C 
ATOM     34  H10 LEU d   1     -69.059 -38.110 -62.456  0.00  0.00     0.087 H 
BRANCH  33  35
ATOM     35  N   LEU d   1     -68.162 -38.922 -60.760  0.00  0.00    -0.346 N 
ATOM     36  C   GLU d   1     -67.098 -39.415 -61.421  0.00  0.00     0.249 C 
ATOM     37  O   GLU d   1     -66.779 -39.063 -62.585  0.00  0.00    -0.271 OA
ATOM     38  H9  LEU d   1     -68.364 -39.249 -59.837  0.00  0.00     0.163 HD
BRANCH  36  39
ATOM     39  CA  GLU d   1     -66.265 -40.464 -60.655  0.00  0.00     0.176 C 
ATOM     40  H4  GLU d   1     -66.788 -40.655 -59.706  0.00  0.00     0.099 H 
BRANCH  39  41
ATOM     41  N   GLU d   1     -66.171 -41.774 -61.374  0.00  0.00    -0.066 N 
ATOM     42  H1  GLU d   1     -65.618 -42.417 -60.830  0.00  0.00     0.275 HD
ATOM     43  H2  GLU d   1     -65.736 -41.634 -62.272  0.00  0.00     0.275 HD
ATOM     44  H3  GLU d   1     -67.096 -42.153 -61.504  0.00  0.00     0.275 HD
ENDBRANCH  39  41
BRANCH  39  45
ATOM     45  CB  GLU d   1     -64.864 -39.932 -60.304  0.00  0.00    -0.021 C 
ATOM     46  H5  GLU d   1     -64.141 -40.743 -60.479  0.00  0.00     0.037 H 
ATOM     47  H6  GLU d   1     -64.862 -39.664 -59.237  0.00  0.00     0.037 H 
BRANCH  45  48
ATOM     48  CG  GLU d   1     -64.396 -38.703 -61.100  0.00  0.00     0.018 C 
ATOM     49  H7  GLU d   1     -65.281 -38.123 -61.401  0.00  0.00     0.049 H 
ATOM     50  H8  GLU d   1     -63.862 -39.050 -61.997  0.00  0.00     0.049 H 
BRANCH  48  51
ATOM     51  CD  GLU d   1     -63.464 -37.790 -60.302  0.00  0.00     0.172 C 
ATOM     52  OE2 GLU d   1     -62.859 -36.874 -60.911  0.00  0.00    -0.648 OA
ATOM     53  OE1 GLU d   1     -63.343 -37.973 -59.065  0.00  0.00    -0.648 OA
ENDBRANCH  48  51
ENDBRANCH  45  48
ENDBRANCH  39  45
ENDBRANCH  36  39
ENDBRANCH  33  35
BRANCH  33  54
ATOM     54  CB  LEU d   1     -70.465 -38.027 -60.846  0.00  0.00    -0.035 C 
ATOM     55  H11 LEU d   1     -70.495 -37.561 -59.850  0.00  0.00     0.037 H 
ATOM     56  H12 LEU d   1     -70.704 -39.097 -60.758  0.00  0.00     0.037 H 
BRANCH  54  57
ATOM     57  CG  LEU d   1     -71.554 -37.374 -61.699  0.00  0.00    -0.059 C 
ATOM     58  H13 LEU d   1     -71.303 -36.308 -61.799  0.00  0.00     0.038 H 
BRANCH  57  59
ATOM     59  CD1 LEU d   1     -71.620 -37.965 -63.109  0.00  0.00    -0.073 C 
ATOM     60  H14 LEU d   1     -72.415 -37.464 -63.680  0.00  0.00     0.028 H 
ATOM     61  H15 LEU d   1     -71.837 -39.041 -63.046  0.00  0.00     0.028 H 
ATOM     62  H16 LEU d   1     -70.655 -37.815 -63.615  0.00  0.00     0.028 H 
ENDBRANCH  57  59
BRANCH  57  63
ATOM     63  CD2 LEU d   1     -72.904 -37.472 -61.007  0.00  0.00    -0.073 C 
ATOM     64  H17 LEU d   1     -72.831 -37.041 -59.997  0.00  0.00     0.028 H 
ATOM     65  H18 LEU d   1     -73.203 -38.528 -60.934  0.00  0.00     0.028 H 
ATOM     66  H19 LEU d   1     -73.655 -36.917 -61.588  0.00  0.00     0.028 H 
ENDBRANCH  57  63
ENDBRANCH  54  57
ENDBRANCH  33  54
ENDBRANCH  30  33
ENDBRANCH  27  29
BRANCH  27  67
ATOM     67  CB  TYR d   1     -69.155 -33.875 -58.663  0.00  0.00    -0.014 C 
ATOM     68  H22 TYR d   1     -68.597 -33.065 -58.171  0.00  0.00     0.043 H 
ATOM     69  H23 TYR d   1     -69.492 -34.600 -57.907  0.00  0.00     0.043 H 
BRANCH  67  70
ATOM     70  CG  TYR d   1     -70.355 -33.293 -59.344  0.00  0.00    -0.056 A 
ATOM     71  CD1 TYR d   1     -71.558 -33.990 -59.387  0.00  0.00    -0.074 A 
ATOM     72  CE1 TYR d   1     -72.654 -33.461 -60.035  0.00  0.00    -0.051 A 
ATOM     73  H24 TYR d   1     -71.635 -34.959 -58.906  0.00  0.00     0.084 H 
ATOM     74  CZ  TYR d   1     -72.552 -32.225 -60.657  0.00  0.00     0.065 A 
ATOM     75  H26 TYR d   1     -73.590 -34.008 -60.058  0.00  0.00     0.087 H 
ATOM     76  CE2 TYR d   1     -71.376 -31.520 -60.628  0.00  0.00    -0.051 A 
ATOM     77  CD2 TYR d   1     -70.283 -32.054 -59.979  0.00  0.00    -0.074 A 
ATOM     78  H27 TYR d   1     -71.306 -30.552 -61.111  0.00  0.00     0.087 H 
ATOM     79  H25 TYR d   1     -69.351 -31.501 -59.962  0.00  0.00     0.084 H 
BRANCH  74  80
ATOM     80  OH  TYR d   1     -73.651 -31.698 -61.296  0.00  0.00    -0.361 OA
ATOM     81  H28 TYR d   1     -73.445 -31.554 -62.212  0.00  0.00     0.217 HD
ENDBRANCH  74  80
ENDBRANCH  67  70
ENDBRANCH  27  67
ENDBRANCH  24  27
ENDBRANCH  10  13
ENDBRANCH   7   9
BRANCH   7  82
ATOM     82  CB  LEU d   1     -65.410 -35.282 -54.350  0.00  0.00    -0.035 C 
ATOM     83  H38 LEU d   1     -65.174 -35.100 -53.291  0.00  0.00     0.037 H 
ATOM     84  H39 LEU d   1     -65.220 -36.338 -54.592  0.00  0.00     0.037 H 
BRANCH  82  85
ATOM     85  CG  LEU d   1     -66.924 -35.048 -54.519  0.00  0.00    -0.059 C 
ATOM     86  H40 LEU d   1     -67.150 -35.116 -55.593  0.00  0.00     0.038 H 
BRANCH  85  87
ATOM     87  CD1 LEU d   1     -67.749 -36.127 -53.797  0.00  0.00    -0.073 C 
ATOM     88  H41 LEU d   1     -68.821 -35.926 -53.940  0.00  0.00     0.028 H 
ATOM     89  H42 LEU d   1     -67.513 -36.111 -52.723  0.00  0.00     0.028 H 
ATOM     90  H43 LEU d   1     -67.503 -37.116 -54.212  0.00  0.00     0.028 H 
ENDBRANCH  85  87
BRANCH  85  91
ATOM     91  CD2 LEU d   1     -67.342 -33.657 -54.043  0.00  0.00    -0.073 C 
ATOM     92  H44 LEU d   1     -66.745 -32.896 -54.566  0.00  0.00     0.028 H 
ATOM     93  H45 LEU d   1     -67.173 -33.574 -52.959  0.00  0.00     0.028 H 
ATOM     94  H46 LEU d   1     -68.409 -33.500 -54.261  0.00  0.00     0.028 H 
ENDBRANCH  85  91
ENDBRANCH  82  85
ENDBRANCH   7  82
ENDBRANCH   4   7
ENDBRANCH   1   3
BRANCH   1  95
ATOM     95  CB  THR d   1     -60.308 -36.621 -56.748  0.00  0.00     0.060 C 
ATOM     96  H49 THR d   1     -59.226 -36.462 -56.864  0.00  0.00     0.086 H 
BRANCH  95  97
ATOM     97  CG2 THR d   1     -60.550 -38.090 -56.451  0.00  0.00    -0.050 C 
ATOM     98  H51 THR d   1     -60.175 -38.700 -57.286  0.00  0.00     0.031 H 
ATOM     99  H52 THR d   1     -61.629 -38.266 -56.325  0.00  0.00     0.031 H 
ATOM    100  H53 THR d   1     -60.022 -38.369 -55.527  0.00  0.00     0.031 H 
ENDBRANCH  95  97
BRANCH  95 101
ATOM    101  OG1 THR d   1     -60.968 -36.252 -57.969  0.00  0.00    -0.393 OA
ATOM    102  H50 THR d   1     -61.902 -36.404 -57.882  0.00  0.00     0.210 HD
ENDBRANCH  95 101
ENDBRANCH   1  95
BRANCH   1 103
ATOM    103  C   THR d   1     -60.054 -34.394 -55.659  0.00  0.00     0.243 C 
ATOM    104  O   THR d   1     -59.413 -33.983 -54.684  0.00  0.00    -0.271 OA
ATOM    105  N   SER d   1     -60.135 -33.730 -56.812  0.00  0.00    -0.344 N 
ATOM    106  H54 SER d   1     -60.604 -34.162 -57.583  0.00  0.00     0.163 HD
BRANCH 105 107
ATOM    107  CA  SER d   1     -59.566 -32.395 -56.996  0.00  0.00     0.109 C 
ATOM    108  H55 SER d   1     -58.470 -32.484 -56.954  0.00  0.00     0.090 H 
BRANCH 107 109
ATOM    109  CB  SER d   1     -59.958 -31.819 -58.357  0.00  0.00     0.044 C 
ATOM    110  H56 SER d   1     -59.526 -30.812 -58.456  0.00  0.00     0.077 H 
ATOM    111  H57 SER d   1     -61.055 -31.755 -58.415  0.00  0.00     0.077 H 
BRANCH 109 112
ATOM    112  OG  SER d   1     -59.488 -32.627 -59.419  0.00  0.00    -0.398 OA
ATOM    113  H58 SER d   1     -59.748 -32.242 -60.248  0.00  0.00     0.209 HD
ENDBRANCH 109 112
ENDBRANCH 107 109
BRANCH 107 114
ATOM    114  C   SER d   1     -60.010 -31.429 -55.909  0.00  0.00     0.243 C 
ATOM    115  O   SER d   1     -59.236 -30.577 -55.491  0.00  0.00    -0.271 OA
ATOM    116  N   LEU d   1     -61.253 -31.568 -55.457  0.00  0.00    -0.346 N 
ATOM    117  H59 LEU d   1     -61.802 -32.341 -55.776  0.00  0.00     0.163 HD
BRANCH 116 118
ATOM    118  CA  LEU d   1     -61.838 -30.628 -54.512  0.00  0.00     0.089 C 
ATOM    119  H60 LEU d   1     -61.626 -29.617 -54.891  0.00  0.00     0.087 H 
BRANCH 118 120
ATOM    120  CB  LEU d   1     -63.359 -30.796 -54.461  0.00  0.00    -0.035 C 
ATOM    121  H61 LEU d   1     -63.573 -31.820 -54.119  0.00  0.00     0.037 H 
ATOM    122  H62 LEU d   1     -63.746 -30.662 -55.482  0.00  0.00     0.037 H 
BRANCH 120 123
ATOM    123  CG  LEU d   1     -64.113 -29.829 -53.543  0.00  0.00    -0.059 C 
ATOM    124  H63 LEU d   1     -63.508 -29.669 -52.638  0.00  0.00     0.038 H 
BRANCH 123 125
ATOM    125  CD1 LEU d   1     -64.305 -28.487 -54.232  0.00  0.00    -0.073 C 
ATOM    126  H64 LEU d   1     -64.847 -27.805 -53.561  0.00  0.00     0.028 H 
ATOM    127  H65 LEU d   1     -64.884 -28.629 -55.156  0.00  0.00     0.028 H 
ATOM    128  H66 LEU d   1     -63.323 -28.057 -54.477  0.00  0.00     0.028 H 
ENDBRANCH 123 125
BRANCH 123 129
ATOM    129  CD2 LEU d   1     -65.448 -30.420 -53.123  0.00  0.00    -0.073 C 
ATOM    130  H67 LEU d   1     -65.281 -31.388 -52.628  0.00  0.00     0.028 H 
ATOM    131  H68 LEU d   1     -66.080 -30.566 -54.011  0.00  0.00     0.028 H 
ATOM    132  H69 LEU d   1     -65.950 -29.733 -52.425  0.00  0.00     0.028 H 
ENDBRANCH 123 129
ENDBRANCH 120 123
ENDBRANCH 118 120
BRANCH 118 133
ATOM    133  C   LEU d   1     -61.243 -30.712 -53.102  0.00  0.00     0.241 C 
ATOM    134  O   LEU d   1     -60.810 -29.695 -52.545  0.00  0.00    -0.271 OA
ATOM    135  N   ARG d   1     -61.222 -31.916 -52.532  0.00  0.00    -0.346 N 
ATOM    136  H70 ARG d   1     -61.503 -32.715 -53.064  0.00  0.00     0.163 HD
BRANCH 135 137
ATOM    137  CA  ARG d   1     -60.795 -32.095 -51.141  0.00  0.00     0.089 C 
ATOM    138  H71 ARG d   1     -61.335 -31.341 -50.550  0.00  0.00     0.087 H 
BRANCH 137 139
ATOM    139  CB  ARG d   1     -61.206 -33.469 -50.612  0.00  0.00    -0.036 C 
ATOM    140  H72 ARG d   1     -60.701 -33.631 -49.648  0.00  0.00     0.036 H 
ATOM    141  H73 ARG d   1     -60.871 -34.229 -51.334  0.00  0.00     0.036 H 
BRANCH 139 142
ATOM    142  CG  ARG d   1     -62.698 -33.644 -50.399  0.00  0.00    -0.048 C 
ATOM    143  H74 ARG d   1     -63.202 -33.703 -51.375  0.00  0.00     0.035 H 
ATOM    144  H75 ARG d   1     -63.090 -32.785 -49.835  0.00  0.00     0.035 H 
BRANCH 142 145
ATOM    145  CD  ARG d   1     -62.958 -34.919 -49.620  0.00  0.00     0.009 C 
ATOM    146  H76 ARG d   1     -63.445 -34.665 -48.667  0.00  0.00     0.064 H 
ATOM    147  H77 ARG d   1     -61.999 -35.419 -49.419  0.00  0.00     0.064 H 
BRANCH 145 148
ATOM    148  NE  ARG d   1     -63.821 -35.826 -50.369  0.00  0.00    -0.227 N 
ATOM    149  CZ  ARG d   1     -63.927 -37.132 -50.140  0.00  0.00     0.665 C 
ATOM    150  NH2 ARG d   1     -64.740 -37.865 -50.889  0.00  0.00    -0.235 N 
ATOM    151  NH1 ARG d   1     -63.226 -37.707 -49.169  0.00  0.00    -0.235 N 
ATOM    152  H81 ARG d   1     -65.285 -37.422 -51.643  0.00  0.00     0.174 HD
ATOM    153  H82 ARG d   1     -64.826 -38.877 -50.717  0.00  0.00     0.174 HD
ATOM    154  H79 ARG d   1     -63.315 -38.719 -48.999  0.00  0.00     0.174 HD
ATOM    155  H80 ARG d   1     -62.593 -37.141 -48.586  0.00  0.00     0.174 HD
ATOM    156  H78 ARG d   1     -64.389 -35.426 -51.130  0.00  0.00     0.177 HD
ENDBRANCH 145 148
ENDBRANCH 142 145
ENDBRANCH 139 142
ENDBRANCH 137 139
BRANCH 137 157
ATOM    157  C   ARG d   1     -59.297 -31.856 -50.895  0.00  0.00     0.241 C 
ATOM    158  O   ARG d   1     -58.902 -31.487 -49.781  0.00  0.00    -0.271 OA
ATOM    159  N   SER d   1     -58.475 -32.054 -51.930  0.00  0.00    -0.344 N 
ATOM    160  H83 SER d   1     -58.857 -32.369 -52.799  0.00  0.00     0.163 HD
BRANCH 159 161
ATOM    161  CA  SER d   1     -57.026 -31.823 -51.829  0.00  0.00     0.109 C 
ATOM    162  H84 SER d   1     -56.685 -32.266 -50.882  0.00  0.00     0.090 H 
BRANCH 161 163
ATOM    163  CB  SER d   1     -56.288 -32.529 -52.979  0.00  0.00     0.044 C 
ATOM    164  H85 SER d   1     -56.417 -33.616 -52.873  0.00  0.00     0.077 H 
ATOM    165  H86 SER d   1     -55.218 -32.280 -52.924  0.00  0.00     0.077 H 
BRANCH 163 166
ATOM    166  OG  SER d   1     -56.795 -32.123 -54.251  0.00  0.00    -0.398 OA
ATOM    167  H87 SER d   1     -57.718 -32.340 -54.307  0.00  0.00     0.209 HD
ENDBRANCH 163 166
ENDBRANCH 161 163
BRANCH 161 168
ATOM    168  C   SER d   1     -56.661 -30.329 -51.803  0.00  0.00     0.243 C 
ATOM    169  O   SER d   1     -55.504 -29.966 -51.560  0.00  0.00    -0.271 OA
ATOM    170  N   LEU d   1     -57.655 -29.475 -52.047  0.00  0.00    -0.345 N 
ATOM    171  H88 LEU d   1     -58.581 -29.836 -52.159  0.00  0.00     0.163 HD
BRANCH 170 172
ATOM    172  CA  LEU d   1     -57.447 -28.034 -52.158  0.00  0.00     0.093 C 
ATOM    173  H89 LEU d   1     -56.393 -27.802 -51.943  0.00  0.00     0.089 H 
BRANCH 172 174
ATOM    174  CB  LEU d   1     -57.778 -27.573 -53.583  0.00  0.00    -0.034 C 
ATOM    175  H90 LEU d   1     -58.010 -26.501 -53.505  0.00  0.00     0.037 H 
ATOM    176  H91 LEU d   1     -58.684 -28.124 -53.874  0.00  0.00     0.037 H 
BRANCH 174 177
ATOM    177  CG  LEU d   1     -56.796 -27.709 -54.779  0.00  0.00    -0.059 C 
ATOM    178  H92 LEU d   1     -56.131 -26.833 -54.739  0.00  0.00     0.038 H 
BRANCH 177 179
ATOM    179  CD1 LEU d   1     -55.876 -28.952 -54.781  0.00  0.00    -0.073 C 
ATOM    180  H93 LEU d   1     -55.233 -28.931 -55.674  0.00  0.00     0.028 H 
ATOM    181  H94 LEU d   1     -56.491 -29.864 -54.793  0.00  0.00     0.028 H 
ATOM    182  H95 LEU d   1     -55.249 -28.945 -53.877  0.00  0.00     0.028 H 
ENDBRANCH 177 179
BRANCH 177 183
ATOM    183  CD2 LEU d   1     -57.592 -27.635 -56.092  0.00  0.00    -0.073 C 
ATOM    184  H96 LEU d   1     -58.242 -26.747 -56.077  0.00  0.00     0.028 H 
ATOM    185  H97 LEU d   1     -58.209 -28.539 -56.198  0.00  0.00     0.028 H 
ATOM    186  H98 LEU d   1     -56.895 -27.565 -56.940  0.00  0.00     0.028 H 
ENDBRANCH 177 183
ENDBRANCH 174 177
ENDBRANCH 172 174
BRANCH 172 187
ATOM    187  C   LEU d   1     -58.337 -27.314 -51.135  0.00  0.00     0.163 C 
ATOM    188  O   LEU d   1     -57.597 -27.512 -49.523  0.00  0.00    -0.648 OA
BRANCH 187 189
ATOM    189  O1  LEU d   1     -59.462 -26.658 -51.403  0.00  0.00    -0.775 OA
ATOM    190  H99 LEU d   1     -59.638 -26.700 -52.336  0.00  0.00     0.167 HD
ENDBRANCH 187 189
ENDBRANCH 172 187
ENDBRANCH 170 172
ENDBRANCH 161 168
ENDBRANCH 159 161
ENDBRANCH 137 157
ENDBRANCH 135 137
ENDBRANCH 118 133
ENDBRANCH 116 118
ENDBRANCH 107 114
ENDBRANCH 105 107
ENDBRANCH   1 103
TORSDOF 55
