REMARK WARNING: 32 MAX_TORS EXCEEDED!!!
REMARK  36 active torsions:
REMARK  status: ('A' for Active; 'I' for Inactive)
REMARK    1  A    between atoms: CA_2  and  N_1 
REMARK    2  A    between atoms: CA_2  and  CB_5 
REMARK    3  A    between atoms: C_3  and  CA_2 
REMARK       I    between atoms: N_9  and  C_3 
REMARK    4  A    between atoms: CB_5  and  CG_6 
REMARK       I    between atoms: CG_6  and  ND2_8 
REMARK    5  A    between atoms: CA_10  and  N_9 
REMARK    6  A    between atoms: CA_10  and  CB_13 
REMARK    7  A    between atoms: C_11  and  CA_10 
REMARK       I    between atoms: N_17  and  C_11 
REMARK    8  A    between atoms: CB_13  and  CG_14 
REMARK    9  A    between atoms: CG_14  and  CD1_15 
REMARK   10  A    between atoms: CG_14  and  CD2_16 
REMARK   11  A    between atoms: CA_18  and  N_17 
REMARK   12  A    between atoms: CA_18  and  CB_21 
REMARK   13  A    between atoms: C_19  and  CA_18 
REMARK       I    between atoms: N_29  and  C_19 
REMARK   14  A    between atoms: CB_21  and  CG_22 
REMARK   15  A    between atoms: CZ_27  and  OH_28 
REMARK   16  A    between atoms: C_31  and  CA_30 
REMARK       I    between atoms: N_36  and  C_31 
REMARK   17  A    between atoms: CA_37  and  N_36 
REMARK   18  A    between atoms: CA_37  and  CB_40 
REMARK   19  A    between atoms: C_38  and  CA_37 
REMARK       I    between atoms: N_44  and  C_38 
REMARK   20  A    between atoms: CB_40  and  CG_41 
REMARK   21  A    between atoms: CA_45  and  N_44 
REMARK   22  A    between atoms: CA_45  and  CB_48 
REMARK   23  A    between atoms: C_46  and  CA_45 
REMARK       I    between atoms: N_52  and  C_46 
REMARK   24  A    between atoms: CB_48  and  CG_49 
REMARK   25  A    between atoms: CG_49  and  CD1_50 
REMARK   26  A    between atoms: CG_49  and  CD2_51 
REMARK   27  A    between atoms: CA_53  and  N_52 
REMARK   28  A    between atoms: CA_53  and  CB_56 
REMARK   29  A    between atoms: C_54  and  CA_53 
REMARK       I    between atoms: C_54  and  N_58 
REMARK   30  A    between atoms: CB_56  and  OG_57 
REMARK   31  A    between atoms: N_58  and  CA_59 
REMARK   32  A    between atoms: CA_59  and  CB_62 
REMARK   33  A    between atoms: CA_59  and  C_60 
REMARK   34  A    between atoms: C_60  and  O1_67 
REMARK   35  A    between atoms: CB_62  and  CG_63 
REMARK   36  A    between atoms: CG_63  and  CD_64 
ROOT
ATOM      1  C   TYR d   1     -67.344 -34.621 -58.355  0.00  0.00     0.243 C 
ATOM      2  O   TYR d   1     -66.962 -35.451 -57.536  0.00  0.00    -0.271 OA
ATOM      3  N   PRO d   1     -66.525 -33.688 -58.885  0.00  0.00    -0.337 N 
ATOM      4  CA  PRO d   1     -65.076 -33.823 -58.743  0.00  0.00     0.091 C 
ATOM      5  CB  PRO d   1     -64.520 -32.692 -59.617  0.00  0.00    -0.036 C 
ATOM      6  CG  PRO d   1     -65.597 -31.699 -59.668  0.00  0.00    -0.048 C 
ATOM      7  CD  PRO d   1     -66.884 -32.467 -59.627  0.00  0.00    -0.001 C 
ATOM      8  H29 PRO d   1     -64.758 -34.800 -59.137  0.00  0.00     0.087 H 
ATOM      9  H30 PRO d   1     -64.284 -33.061 -60.626  0.00  0.00     0.036 H 
ATOM     10  H31 PRO d   1     -63.615 -32.260 -59.164  0.00  0.00     0.036 H 
ATOM     11  H32 PRO d   1     -65.531 -31.021 -58.804  0.00  0.00     0.035 H 
ATOM     12  H33 PRO d   1     -65.532 -31.115 -60.598  0.00  0.00     0.035 H 
ATOM     13  H34 PRO d   1     -67.665 -31.900 -59.099  0.00  0.00     0.064 H 
ATOM     14  H35 PRO d   1     -67.231 -32.710 -60.642  0.00  0.00     0.064 H 
ENDROOT
BRANCH   4  15
ATOM     15  C   PRO d   1     -64.570 -33.703 -57.318  0.00  0.00     0.241 C 
ATOM     16  O   PRO d   1     -65.275 -33.240 -56.422  0.00  0.00    -0.271 OA
ATOM     17  N   ASP d   1     -63.327 -34.134 -57.160  0.00  0.00    -0.346 N 
ATOM     18  H36 ASP d   1     -62.808 -34.352 -57.987  0.00  0.00     0.163 HD
BRANCH  17  19
ATOM     19  CA  ASP d   1     -62.658 -34.316 -55.889  0.00  0.00     0.098 C 
ATOM     20  H37 ASP d   1     -63.318 -34.884 -55.216  0.00  0.00     0.088 H 
BRANCH  19  21
ATOM     21  CB  ASP d   1     -61.390 -35.130 -56.168  0.00  0.00     0.043 C 
ATOM     22  H38 ASP d   1     -60.569 -34.433 -56.391  0.00  0.00     0.052 H 
ATOM     23  H39 ASP d   1     -61.572 -35.774 -57.041  0.00  0.00     0.052 H 
BRANCH  21  24
ATOM     24  CG  ASP d   1     -60.979 -36.000 -55.008  0.00  0.00     0.175 C 
ATOM     25  OD1 ASP d   1     -61.657 -35.963 -53.955  0.00  0.00    -0.648 OA
ATOM     26  OD2 ASP d   1     -59.967 -36.722 -55.159  0.00  0.00    -0.648 OA
ENDBRANCH  21  24
ENDBRANCH  19  21
BRANCH  19  27
ATOM     27  C   ASP d   1     -62.301 -32.984 -55.203  0.00  0.00     0.241 C 
ATOM     28  O   ASP d   1     -61.590 -32.149 -55.774  0.00  0.00    -0.271 OA
ATOM     29  N   LEU d   1     -62.804 -32.791 -53.983  0.00  0.00    -0.346 N 
ATOM     30  H40 LEU d   1     -63.459 -33.452 -53.618  0.00  0.00     0.163 HD
BRANCH  29  31
ATOM     31  CA  LEU d   1     -62.425 -31.640 -53.162  0.00  0.00     0.089 C 
ATOM     32  H41 LEU d   1     -61.839 -30.955 -53.793  0.00  0.00     0.087 H 
BRANCH  31  33
ATOM     33  CB  LEU d   1     -63.650 -30.874 -52.654  0.00  0.00    -0.035 C 
ATOM     34  H42 LEU d   1     -63.281 -30.100 -51.965  0.00  0.00     0.037 H 
ATOM     35  H43 LEU d   1     -64.271 -31.593 -52.100  0.00  0.00     0.037 H 
BRANCH  33  36
ATOM     36  CG  LEU d   1     -64.571 -30.172 -53.663  0.00  0.00    -0.059 C 
ATOM     37  H44 LEU d   1     -65.132 -30.951 -54.200  0.00  0.00     0.038 H 
BRANCH  36  38
ATOM     38  CD1 LEU d   1     -65.578 -29.294 -52.920  0.00  0.00    -0.073 C 
ATOM     39  H45 LEU d   1     -66.235 -28.794 -53.647  0.00  0.00     0.028 H 
ATOM     40  H46 LEU d   1     -65.040 -28.537 -52.331  0.00  0.00     0.028 H 
ATOM     41  H47 LEU d   1     -66.184 -29.919 -52.248  0.00  0.00     0.028 H 
ENDBRANCH  36  38
BRANCH  36  42
ATOM     42  CD2 LEU d   1     -63.797 -29.363 -54.710  0.00  0.00    -0.073 C 
ATOM     43  H48 LEU d   1     -63.082 -30.020 -55.226  0.00  0.00     0.028 H 
ATOM     44  H49 LEU d   1     -63.252 -28.547 -54.213  0.00  0.00     0.028 H 
ATOM     45  H50 LEU d   1     -64.502 -28.941 -55.442  0.00  0.00     0.028 H 
ENDBRANCH  36  42
ENDBRANCH  33  36
ENDBRANCH  31  33
BRANCH  31  46
ATOM     46  C   LEU d   1     -61.541 -32.083 -51.998  0.00  0.00     0.241 C 
ATOM     47  O   LEU d   1     -62.009 -32.722 -51.044  0.00  0.00    -0.271 OA
ATOM     48  N   SER d   1     -60.258 -31.741 -52.096  0.00  0.00    -0.344 N 
ATOM     49  H51 SER d   1     -59.979 -31.137 -52.843  0.00  0.00     0.163 HD
BRANCH  48  50
ATOM     50  CA  SER d   1     -59.237 -32.211 -51.156  0.00  0.00     0.109 C 
ATOM     51  H52 SER d   1     -59.739 -32.591 -50.254  0.00  0.00     0.090 H 
BRANCH  50  52
ATOM     52  CB  SER d   1     -58.444 -33.351 -51.796  0.00  0.00     0.044 C 
ATOM     53  H53 SER d   1     -57.824 -33.838 -51.029  0.00  0.00     0.077 H 
ATOM     54  H54 SER d   1     -57.797 -32.944 -52.587  0.00  0.00     0.077 H 
BRANCH  52  55
ATOM     55  OG  SER d   1     -59.328 -34.305 -52.358  0.00  0.00    -0.398 OA
ATOM     56  H55 SER d   1     -58.825 -35.008 -52.752  0.00  0.00     0.209 HD
ENDBRANCH  52  55
ENDBRANCH  50  52
BRANCH  50  57
ATOM     57  C   SER d   1     -58.293 -31.078 -50.743  0.00  0.00     0.243 C 
ATOM     58  O   SER d   1     -58.016 -30.885 -49.550  0.00  0.00    -0.271 OA
ATOM     59  N   GLU d   1     -57.801 -30.350 -51.746  0.00  0.00    -0.345 N 
ATOM     60  H56 GLU d   1     -57.985 -30.650 -52.682  0.00  0.00     0.163 HD
BRANCH  59  61
ATOM     61  CA  GLU d   1     -57.010 -29.141 -51.552  0.00  0.00     0.093 C 
ATOM     62  H57 GLU d   1     -57.163 -28.781 -50.524  0.00  0.00     0.089 H 
BRANCH  61  63
ATOM     63  CB  GLU d   1     -55.515 -29.434 -51.747  0.00  0.00    -0.028 C 
ATOM     64  H58 GLU d   1     -54.995 -28.479 -51.913  0.00  0.00     0.037 H 
ATOM     65  H59 GLU d   1     -55.402 -30.072 -52.636  0.00  0.00     0.037 H 
BRANCH  63  66
ATOM     66  CG  GLU d   1     -54.848 -30.145 -50.554  0.00  0.00     0.018 C 
ATOM     67  H60 GLU d   1     -55.466 -31.012 -50.278  0.00  0.00     0.049 H 
ATOM     68  H61 GLU d   1     -54.806 -29.441 -49.710  0.00  0.00     0.049 H 
BRANCH  66  69
ATOM     69  CD  GLU d   1     -53.425 -30.638 -50.842  0.00  0.00     0.172 C 
ATOM     70  OE2 GLU d   1     -52.777 -31.152 -49.900  0.00  0.00    -0.648 OA
ATOM     71  OE1 GLU d   1     -52.953 -30.520 -51.998  0.00  0.00    -0.648 OA
ENDBRANCH  66  69
ENDBRANCH  63  66
ENDBRANCH  61  63
BRANCH  61  72
ATOM     72  C   GLU d   1     -57.480 -28.059 -52.524  0.00  0.00     0.163 C 
ATOM     73  O   GLU d   1     -58.637 -27.643 -52.492  0.00  0.00    -0.648 OA
BRANCH  72  74
ATOM     74  O1  GLU d   1     -56.627 -27.561 -53.415  0.00  0.00    -0.775 OA
ATOM     75  H62 GLU d   1     -56.958 -27.721 -54.291  0.00  0.00     0.167 HD
ENDBRANCH  72  74
ENDBRANCH  61  72
ENDBRANCH  59  61
ENDBRANCH  50  57
ENDBRANCH  48  50
ENDBRANCH  31  46
ENDBRANCH  29  31
ENDBRANCH  19  27
ENDBRANCH  17  19
ENDBRANCH   4  15
BRANCH   1  76
ATOM     76  CA  TYR d   1     -68.802 -34.612 -58.806  0.00  0.00     0.093 C 
ATOM     77  H21 TYR d   1     -68.823 -34.176 -59.816  0.00  0.00     0.088 H 
BRANCH  76  78
ATOM     78  N   TYR d   1     -69.356 -35.959 -58.900  0.00  0.00    -0.346 N 
ATOM     79  C   LEU d   1     -69.321 -36.669 -60.025  0.00  0.00     0.241 C 
ATOM     80  O   LEU d   1     -68.740 -36.288 -61.052  0.00  0.00    -0.271 OA
ATOM     81  H20 TYR d   1     -69.778 -36.364 -58.089  0.00  0.00     0.163 HD
BRANCH  79  82
ATOM     82  CA  LEU d   1     -70.063 -38.008 -60.002  0.00  0.00     0.089 C 
ATOM     83  H10 LEU d   1     -69.733 -38.555 -60.898  0.00  0.00     0.087 H 
BRANCH  82  84
ATOM     84  N   LEU d   1     -69.785 -38.897 -58.861  0.00  0.00    -0.346 N 
ATOM     85  C   ASN d   1     -68.702 -39.680 -58.812  0.00  0.00     0.249 C 
ATOM     86  O   ASN d   1     -67.783 -39.596 -59.635  0.00  0.00    -0.271 OA
ATOM     87  H9  LEU d   1     -70.429 -38.916 -58.096  0.00  0.00     0.163 HD
BRANCH  85  88
ATOM     88  CA  ASN d   1     -68.612 -40.712 -57.666  0.00  0.00     0.183 C 
ATOM     89  H4  ASN d   1     -68.547 -41.702 -58.141  0.00  0.00     0.099 H 
BRANCH  88  90
ATOM     90  N   ASN d   1     -67.396 -40.561 -56.816  0.00  0.00    -0.066 N 
ATOM     91  H1  ASN d   1     -67.403 -41.263 -56.093  0.00  0.00     0.275 HD
ATOM     92  H2  ASN d   1     -67.392 -39.645 -56.395  0.00  0.00     0.275 HD
ATOM     93  H3  ASN d   1     -66.572 -40.673 -57.386  0.00  0.00     0.275 HD
ENDBRANCH  88  90
BRANCH  88  94
ATOM     94  CB  ASN d   1     -69.876 -40.709 -56.795  0.00  0.00     0.044 C 
ATOM     95  H5  ASN d   1     -70.192 -39.667 -56.636  0.00  0.00     0.051 H 
ATOM     96  H6  ASN d   1     -69.637 -41.171 -55.826  0.00  0.00     0.051 H 
BRANCH  94  97
ATOM     97  CG  ASN d   1     -71.029 -41.478 -57.432  0.00  0.00     0.217 C 
ATOM     98  ND2 ASN d   1     -72.198 -41.415 -56.796  0.00  0.00    -0.370 N 
ATOM     99  H7  ASN d   1     -72.993 -41.898 -57.163  0.00  0.00     0.159 HD
ATOM    100  H8  ASN d   1     -72.280 -40.885 -55.952  0.00  0.00     0.159 HD
ATOM    101  OD1 ASN d   1     -70.871 -42.121 -58.484  0.00  0.00    -0.274 OA
ENDBRANCH  94  97
ENDBRANCH  88  94
ENDBRANCH  85  88
ENDBRANCH  82  84
BRANCH  82 102
ATOM    102  CB  LEU d   1     -71.567 -37.766 -60.145  0.00  0.00    -0.035 C 
ATOM    103  H11 LEU d   1     -71.737 -36.680 -60.110  0.00  0.00     0.037 H 
ATOM    104  H12 LEU d   1     -72.067 -38.243 -59.289  0.00  0.00     0.037 H 
BRANCH 102 105
ATOM    105  CG  LEU d   1     -72.218 -38.300 -61.423  0.00  0.00    -0.059 C 
ATOM    106  H13 LEU d   1     -71.643 -37.921 -62.281  0.00  0.00     0.038 H 
BRANCH 105 107
ATOM    107  CD1 LEU d   1     -72.202 -39.833 -61.490  0.00  0.00    -0.073 C 
ATOM    108  H14 LEU d   1     -72.680 -40.164 -62.424  0.00  0.00     0.028 H 
ATOM    109  H15 LEU d   1     -72.753 -40.243 -60.631  0.00  0.00     0.028 H 
ATOM    110  H16 LEU d   1     -71.162 -40.190 -61.463  0.00  0.00     0.028 H 
ENDBRANCH 105 107
BRANCH 105 111
ATOM    111  CD2 LEU d   1     -73.630 -37.773 -61.529  0.00  0.00    -0.073 C 
ATOM    112  H17 LEU d   1     -73.616 -36.674 -61.479  0.00  0.00     0.028 H 
ATOM    113  H18 LEU d   1     -74.233 -38.170 -60.699  0.00  0.00     0.028 H 
ATOM    114  H19 LEU d   1     -74.069 -38.091 -62.486  0.00  0.00     0.028 H 
ENDBRANCH 105 111
ENDBRANCH 102 105
ENDBRANCH  82 102
ENDBRANCH  79  82
ENDBRANCH  76  78
BRANCH  76 115
ATOM    115  CB  TYR d   1     -69.688 -33.733 -57.909  0.00  0.00    -0.014 C 
ATOM    116  H22 TYR d   1     -69.096 -32.880 -57.544  0.00  0.00     0.043 H 
ATOM    117  H23 TYR d   1     -70.037 -34.330 -57.053  0.00  0.00     0.043 H 
BRANCH 115 118
ATOM    118  CG  TYR d   1     -70.881 -33.215 -58.666  0.00  0.00    -0.056 A 
ATOM    119  CD1 TYR d   1     -72.024 -33.996 -58.820  0.00  0.00    -0.074 A 
ATOM    120  CE1 TYR d   1     -73.120 -33.534 -59.545  0.00  0.00    -0.051 A 
ATOM    121  H24 TYR d   1     -72.061 -34.980 -58.368  0.00  0.00     0.084 H 
ATOM    122  CZ  TYR d   1     -73.077 -32.286 -60.125  0.00  0.00     0.065 A 
ATOM    123  H26 TYR d   1     -74.003 -34.154 -59.652  0.00  0.00     0.087 H 
ATOM    124  CE2 TYR d   1     -71.952 -31.489 -59.997  0.00  0.00    -0.051 A 
ATOM    125  CD2 TYR d   1     -70.856 -31.959 -59.271  0.00  0.00    -0.074 A 
ATOM    126  H27 TYR d   1     -71.922 -30.508 -60.457  0.00  0.00     0.087 H 
ATOM    127  H25 TYR d   1     -69.972 -31.338 -59.176  0.00  0.00     0.084 H 
BRANCH 122 128
ATOM    128  OH  TYR d   1     -74.156 -31.842 -60.837  0.00  0.00    -0.361 OA
ATOM    129  H28 TYR d   1     -73.894 -31.671 -61.734  0.00  0.00     0.217 HD
ENDBRANCH 122 128
ENDBRANCH 115 118
ENDBRANCH  76 115
ENDBRANCH   1  76
TORSDOF 36
