REMARK WARNING: 32 MAX_TORS EXCEEDED!!!
REMARK  53 active torsions:
REMARK  status: ('A' for Active; 'I' for Inactive)
REMARK    1  A    between atoms: N_1  and  CA_2 
REMARK    2  A    between atoms: CA_2  and  C_3 
REMARK    3  A    between atoms: CA_2  and  CB_5 
REMARK       I    between atoms: C_3  and  N_10 
REMARK    4  A    between atoms: CB_5  and  CG_6 
REMARK    5  A    between atoms: CG_6  and  CD_7 
REMARK    6  A    between atoms: N_10  and  CA_11 
REMARK    7  A    between atoms: CA_11  and  C_12 
REMARK    8  A    between atoms: CA_11  and  CB_14 
REMARK       I    between atoms: C_12  and  N_18 
REMARK    9  A    between atoms: CB_14  and  CG_15 
REMARK   10  A    between atoms: CG_15  and  CD1_16 
REMARK   11  A    between atoms: CG_15  and  CD2_17 
REMARK   12  A    between atoms: N_18  and  CA_19 
REMARK   13  A    between atoms: CA_19  and  C_20 
REMARK   14  A    between atoms: CA_19  and  CB_22 
REMARK       I    between atoms: C_20  and  N_30 
REMARK   15  A    between atoms: CB_22  and  CG_23 
REMARK   16  A    between atoms: CZ_28  and  OH_29 
REMARK   17  A    between atoms: CA_31  and  C_32 
REMARK       I    between atoms: C_32  and  N_37 
REMARK   18  A    between atoms: N_37  and  CA_38 
REMARK   19  A    between atoms: CA_38  and  C_39 
REMARK   20  A    between atoms: CA_38  and  CB_41 
REMARK       I    between atoms: C_39  and  N_45 
REMARK   21  A    between atoms: CB_41  and  CG_42 
REMARK   22  A    between atoms: CG_42  and  CD1_43 
REMARK   23  A    between atoms: CG_42  and  CD2_44 
REMARK   24  A    between atoms: N_45  and  CA_46 
REMARK   25  A    between atoms: CA_46  and  C_47 
REMARK   26  A    between atoms: CA_46  and  CB_49 
REMARK       I    between atoms: C_47  and  N_50 
REMARK   27  A    between atoms: N_50  and  CA_51 
REMARK   28  A    between atoms: CA_51  and  C_52 
REMARK   29  A    between atoms: CA_51  and  CB_54 
REMARK       I    between atoms: C_52  and  N_56 
REMARK   30  A    between atoms: CB_54  and  OG_55 
REMARK   31  A    between atoms: N_56  and  CA_57 
REMARK   32  A    between atoms: CA_57  and  C_58 
REMARK   33  A    between atoms: CA_57  and  CB_60 
REMARK       I    between atoms: C_58  and  N_64 
REMARK   34  A    between atoms: CB_60  and  CG_61 
REMARK   35  A    between atoms: CG_61  and  CD1_62 
REMARK   36  A    between atoms: CG_61  and  CD2_63 
REMARK   37  A    between atoms: N_64  and  CA_65 
REMARK   38  A    between atoms: CA_65  and  C_66 
REMARK   39  A    between atoms: CA_65  and  CB_68 
REMARK       I    between atoms: C_66  and  N_75 
REMARK   40  A    between atoms: CB_68  and  CG_69 
REMARK   41  A    between atoms: CG_69  and  CD_70 
REMARK   42  A    between atoms: CD_70  and  NE_71 
REMARK       I    between atoms: NE_71  and  CZ_72 
REMARK       I    between atoms: CZ_72  and  NH1_73 
REMARK       I    between atoms: CZ_72  and  NH2_74 
REMARK   43  A    between atoms: N_75  and  CA_76 
REMARK   44  A    between atoms: CA_76  and  C_77 
REMARK   45  A    between atoms: CA_76  and  CB_79 
REMARK       I    between atoms: C_77  and  N_81 
REMARK   46  A    between atoms: CB_79  and  OG_80 
REMARK   47  A    between atoms: N_81  and  CA_82 
REMARK   48  A    between atoms: CA_82  and  C_83 
REMARK   49  A    between atoms: CA_82  and  CB_85 
REMARK   50  A    between atoms: C_83  and  O_84 
REMARK   51  A    between atoms: CB_85  and  CG_86 
REMARK   52  A    between atoms: CG_86  and  CD1_87 
REMARK   53  A    between atoms: CG_86  and  CD2_88 
ROOT
ATOM      1  CA  ALA d   1     -60.887 -35.599 -56.194  0.00  0.00     0.086 C 
ATOM      2  H48 ALA d   1     -60.741 -36.042 -55.198  0.00  0.00     0.086 H 
ENDROOT
BRANCH   1   3
ATOM      3  N   ALA d   1     -62.314 -35.333 -56.372  0.00  0.00    -0.346 N 
ATOM      4  C   LEU d   1     -63.084 -34.814 -55.412  0.00  0.00     0.241 C 
ATOM      5  O   LEU d   1     -62.668 -34.549 -54.283  0.00  0.00    -0.271 OA
ATOM      6  H47 ALA d   1     -62.733 -35.550 -57.254  0.00  0.00     0.163 HD
BRANCH   4   7
ATOM      7  CA  LEU d   1     -64.549 -34.547 -55.783  0.00  0.00     0.089 C 
ATOM      8  H37 LEU d   1     -64.812 -33.538 -55.433  0.00  0.00     0.087 H 
BRANCH   7   9
ATOM      9  N   LEU d   1     -64.740 -34.590 -57.229  0.00  0.00    -0.346 N 
ATOM     10  C   PRO d   1     -64.246 -33.671 -58.054  0.00  0.00     0.241 C 
ATOM     11  O   PRO d   1     -63.679 -32.646 -57.676  0.00  0.00    -0.271 OA
ATOM     12  H36 LEU d   1     -65.267 -35.346 -57.618  0.00  0.00     0.163 HD
BRANCH  10  13
ATOM     13  CA  PRO d   1     -64.439 -33.942 -59.538  0.00  0.00     0.091 C 
ATOM     14  N   PRO d   1     -65.837 -33.793 -59.915  0.00  0.00    -0.337 N 
ATOM     15  C   TYR d   1     -66.727 -34.767 -59.613  0.00  0.00     0.243 C 
ATOM     16  CD  PRO d   1     -66.086 -32.498 -60.582  0.00  0.00    -0.001 C 
ATOM     17  O   TYR d   1     -66.430 -35.755 -58.944  0.00  0.00    -0.271 OA
ATOM     18  CG  PRO d   1     -64.746 -31.814 -60.556  0.00  0.00    -0.048 C 
ATOM     19  H34 PRO d   1     -66.835 -31.911 -60.031  0.00  0.00     0.064 H 
ATOM     20  H35 PRO d   1     -66.428 -32.650 -61.616  0.00  0.00     0.064 H 
ATOM     21  CB  PRO d   1     -63.735 -32.874 -60.381  0.00  0.00    -0.036 C 
ATOM     22  H32 PRO d   1     -64.575 -31.279 -61.502  0.00  0.00     0.035 H 
ATOM     23  H33 PRO d   1     -64.699 -31.103 -59.718  0.00  0.00     0.035 H 
ATOM     24  H30 PRO d   1     -63.431 -33.286 -61.355  0.00  0.00     0.036 H 
ATOM     25  H31 PRO d   1     -62.851 -32.484 -59.855  0.00  0.00     0.036 H 
ATOM     26  H29 PRO d   1     -64.068 -34.948 -59.781  0.00  0.00     0.087 H 
BRANCH  15  27
ATOM     27  CA  TYR d   1     -68.155 -34.608 -60.127  0.00  0.00     0.093 C 
ATOM     28  H21 TYR d   1     -68.120 -33.994 -61.039  0.00  0.00     0.088 H 
BRANCH  27  29
ATOM     29  N   TYR d   1     -68.732 -35.905 -60.474  0.00  0.00    -0.346 N 
ATOM     30  C   LEU d   1     -68.539 -36.469 -61.665  0.00  0.00     0.241 C 
ATOM     31  O   LEU d   1     -67.917 -35.919 -62.577  0.00  0.00    -0.271 OA
ATOM     32  H20 TYR d   1     -69.289 -36.384 -59.796  0.00  0.00     0.163 HD
BRANCH  30  33
ATOM     33  CA  LEU d   1     -69.122 -37.870 -61.865  0.00  0.00     0.089 C 
ATOM     34  H10 LEU d   1     -69.196 -38.051 -62.947  0.00  0.00     0.087 H 
BRANCH  33  35
ATOM     35  N   LEU d   1     -68.242 -38.887 -61.299  0.00  0.00    -0.346 N 
ATOM     36  C   GLU d   1     -67.122 -39.268 -61.911  0.00  0.00     0.249 C 
ATOM     37  O   GLU d   1     -66.777 -38.846 -63.030  0.00  0.00    -0.271 OA
ATOM     38  H9  LEU d   1     -68.487 -39.310 -60.427  0.00  0.00     0.163 HD
BRANCH  36  39
ATOM     39  CA  GLU d   1     -66.248 -40.265 -61.136  0.00  0.00     0.176 C 
ATOM     40  H4  GLU d   1     -66.872 -40.703 -60.343  0.00  0.00     0.099 H 
BRANCH  39  41
ATOM     41  N   GLU d   1     -65.759 -41.386 -61.988  0.00  0.00    -0.066 N 
ATOM     42  H1  GLU d   1     -65.193 -42.008 -61.432  0.00  0.00     0.275 HD
ATOM     43  H2  GLU d   1     -65.207 -41.016 -62.746  0.00  0.00     0.275 HD
ATOM     44  H3  GLU d   1     -66.546 -41.892 -62.362  0.00  0.00     0.275 HD
ENDBRANCH  39  41
BRANCH  39  45
ATOM     45  CB  GLU d   1     -65.071 -39.536 -60.461  0.00  0.00    -0.021 C 
ATOM     46  H5  GLU d   1     -64.370 -40.298 -60.089  0.00  0.00     0.037 H 
ATOM     47  H6  GLU d   1     -65.472 -38.961 -59.613  0.00  0.00     0.037 H 
BRANCH  45  48
ATOM     48  CG  GLU d   1     -64.283 -38.568 -61.356  0.00  0.00     0.018 C 
ATOM     49  H7  GLU d   1     -64.998 -37.967 -61.937  0.00  0.00     0.049 H 
ATOM     50  H8  GLU d   1     -63.656 -39.156 -62.042  0.00  0.00     0.049 H 
BRANCH  48  51
ATOM     51  CD  GLU d   1     -63.384 -37.623 -60.565  0.00  0.00     0.172 C 
ATOM     52  OE1 GLU d   1     -63.312 -37.769 -59.321  0.00  0.00    -0.648 OA
ATOM     53  OE2 GLU d   1     -62.754 -36.731 -61.185  0.00  0.00    -0.648 OA
ENDBRANCH  48  51
ENDBRANCH  45  48
ENDBRANCH  39  45
ENDBRANCH  36  39
ENDBRANCH  33  35
BRANCH  33  54
ATOM     54  CB  LEU d   1     -70.529 -37.984 -61.274  0.00  0.00    -0.035 C 
ATOM     55  H11 LEU d   1     -70.473 -37.656 -60.226  0.00  0.00     0.037 H 
ATOM     56  H12 LEU d   1     -70.817 -39.045 -61.311  0.00  0.00     0.037 H 
BRANCH  54  57
ATOM     57  CG  LEU d   1     -71.647 -37.183 -61.945  0.00  0.00    -0.059 C 
ATOM     58  H13 LEU d   1     -71.430 -36.113 -61.812  0.00  0.00     0.038 H 
BRANCH  57  59
ATOM     59  CD1 LEU d   1     -71.727 -37.464 -63.436  0.00  0.00    -0.073 C 
ATOM     60  H14 LEU d   1     -72.541 -36.870 -63.878  0.00  0.00     0.028 H 
ATOM     61  H15 LEU d   1     -71.925 -38.534 -63.597  0.00  0.00     0.028 H 
ATOM     62  H16 LEU d   1     -70.774 -37.191 -63.912  0.00  0.00     0.028 H 
ENDBRANCH  57  59
BRANCH  57  63
ATOM     63  CD2 LEU d   1     -72.960 -37.490 -61.276  0.00  0.00    -0.073 C 
ATOM     64  H17 LEU d   1     -72.881 -37.280 -60.199  0.00  0.00     0.028 H 
ATOM     65  H18 LEU d   1     -73.208 -38.551 -61.425  0.00  0.00     0.028 H 
ATOM     66  H19 LEU d   1     -73.750 -36.863 -61.715  0.00  0.00     0.028 H 
ENDBRANCH  57  63
ENDBRANCH  54  57
ENDBRANCH  33  54
ENDBRANCH  30  33
ENDBRANCH  27  29
BRANCH  27  67
ATOM     67  CB  TYR d   1     -69.038 -33.891 -59.108  0.00  0.00    -0.014 C 
ATOM     68  H22 TYR d   1     -68.468 -33.061 -58.665  0.00  0.00     0.043 H 
ATOM     69  H23 TYR d   1     -69.322 -34.604 -58.319  0.00  0.00     0.043 H 
BRANCH  67  70
ATOM     70  CG  TYR d   1     -70.292 -33.338 -59.739  0.00  0.00    -0.056 A 
ATOM     71  CD1 TYR d   1     -71.420 -34.141 -59.916  0.00  0.00    -0.074 A 
ATOM     72  CE1 TYR d   1     -72.565 -33.644 -60.513  0.00  0.00    -0.051 A 
ATOM     73  H24 TYR d   1     -71.399 -35.171 -59.580  0.00  0.00     0.084 H 
ATOM     74  CZ  TYR d   1     -72.596 -32.328 -60.943  0.00  0.00     0.065 A 
ATOM     75  H26 TYR d   1     -73.433 -34.281 -60.643  0.00  0.00     0.087 H 
ATOM     76  CE2 TYR d   1     -71.495 -31.506 -60.778  0.00  0.00    -0.051 A 
ATOM     77  CD2 TYR d   1     -70.346 -32.018 -60.185  0.00  0.00    -0.074 A 
ATOM     78  H27 TYR d   1     -71.528 -30.474 -61.108  0.00  0.00     0.087 H 
ATOM     79  H25 TYR d   1     -69.478 -31.380 -60.068  0.00  0.00     0.084 H 
BRANCH  74  80
ATOM     80  OH  TYR d   1     -73.733 -31.831 -61.533  0.00  0.00    -0.361 OA
ATOM     81  H28 TYR d   1     -73.529 -31.535 -62.413  0.00  0.00     0.217 HD
ENDBRANCH  74  80
ENDBRANCH  67  70
ENDBRANCH  27  67
ENDBRANCH  15  27
ENDBRANCH  10  13
ENDBRANCH   7   9
BRANCH   7  82
ATOM     82  CB  LEU d   1     -65.474 -35.554 -55.084  0.00  0.00    -0.035 C 
ATOM     83  H38 LEU d   1     -65.137 -35.615 -54.039  0.00  0.00     0.037 H 
ATOM     84  H39 LEU d   1     -65.312 -36.523 -55.578  0.00  0.00     0.037 H 
BRANCH  82  85
ATOM     85  CG  LEU d   1     -66.997 -35.334 -55.041  0.00  0.00    -0.059 C 
ATOM     86  H40 LEU d   1     -67.330 -35.116 -56.066  0.00  0.00     0.038 H 
BRANCH  85  87
ATOM     87  CD1 LEU d   1     -67.727 -36.595 -54.565  0.00  0.00    -0.073 C 
ATOM     88  H41 LEU d   1     -68.811 -36.406 -54.545  0.00  0.00     0.028 H 
ATOM     89  H42 LEU d   1     -67.382 -36.859 -53.554  0.00  0.00     0.028 H 
ATOM     90  H43 LEU d   1     -67.512 -37.425 -55.254  0.00  0.00     0.028 H 
ENDBRANCH  85  87
BRANCH  85  91
ATOM     91  CD2 LEU d   1     -67.382 -34.144 -54.162  0.00  0.00    -0.073 C 
ATOM     92  H44 LEU d   1     -66.854 -33.244 -54.511  0.00  0.00     0.028 H 
ATOM     93  H45 LEU d   1     -67.102 -34.353 -53.119  0.00  0.00     0.028 H 
ATOM     94  H46 LEU d   1     -68.468 -33.979 -54.224  0.00  0.00     0.028 H 
ENDBRANCH  85  91
ENDBRANCH  82  85
ENDBRANCH   7  82
ENDBRANCH   4   7
ENDBRANCH   1   3
BRANCH   1  95
ATOM     95  C   ALA d   1     -60.081 -34.300 -56.261  0.00  0.00     0.240 C 
ATOM     96  O   ALA d   1     -59.260 -34.018 -55.379  0.00  0.00    -0.271 OA
ATOM     97  N   SER d   1     -60.330 -33.518 -57.310  0.00  0.00    -0.344 N 
ATOM     98  H52 SER d   1     -60.943 -33.857 -58.024  0.00  0.00     0.163 HD
BRANCH  97  99
ATOM     99  CA  SER d   1     -59.747 -32.187 -57.464  0.00  0.00     0.109 C 
ATOM    100  H53 SER d   1     -58.653 -32.296 -57.453  0.00  0.00     0.090 H 
BRANCH  99 101
ATOM    101  C   SER d   1     -60.139 -31.239 -56.335  0.00  0.00     0.243 C 
ATOM    102  O   SER d   1     -59.313 -30.457 -55.872  0.00  0.00    -0.271 OA
ATOM    103  N   LEU d   1     -61.396 -31.312 -55.902  0.00  0.00    -0.346 N 
ATOM    104  H57 LEU d   1     -62.007 -31.999 -56.296  0.00  0.00     0.163 HD
BRANCH 103 105
ATOM    105  CA  LEU d   1     -61.908 -30.418 -54.868  0.00  0.00     0.089 C 
ATOM    106  H58 LEU d   1     -61.642 -29.393 -55.165  0.00  0.00     0.087 H 
BRANCH 105 107
ATOM    107  C   LEU d   1     -61.278 -30.668 -53.491  0.00  0.00     0.241 C 
ATOM    108  O   LEU d   1     -60.888 -29.718 -52.805  0.00  0.00    -0.271 OA
ATOM    109  N   ARG d   1     -61.175 -31.939 -53.105  0.00  0.00    -0.346 N 
ATOM    110  H68 ARG d   1     -61.462 -32.658 -53.738  0.00  0.00     0.163 HD
BRANCH 109 111
ATOM    111  CA  ARG d   1     -60.656 -32.328 -51.785  0.00  0.00     0.089 C 
ATOM    112  H69 ARG d   1     -61.247 -31.775 -51.040  0.00  0.00     0.087 H 
BRANCH 111 113
ATOM    113  C   ARG d   1     -59.186 -31.968 -51.538  0.00  0.00     0.241 C 
ATOM    114  O   ARG d   1     -58.817 -31.589 -50.420  0.00  0.00    -0.271 OA
ATOM    115  N   SER d   1     -58.353 -32.093 -52.571  0.00  0.00    -0.344 N 
ATOM    116  H81 SER d   1     -58.699 -32.468 -53.431  0.00  0.00     0.163 HD
BRANCH 115 117
ATOM    117  CA  SER d   1     -56.943 -31.696 -52.481  0.00  0.00     0.109 C 
ATOM    118  H82 SER d   1     -56.607 -31.843 -51.444  0.00  0.00     0.090 H 
BRANCH 117 119
ATOM    119  C   SER d   1     -56.789 -30.212 -52.832  0.00  0.00     0.243 C 
ATOM    120  O   SER d   1     -56.114 -29.854 -53.813  0.00  0.00    -0.271 OA
ATOM    121  N   LEU d   1     -57.429 -29.359 -52.018  0.00  0.00    -0.353 N 
ATOM    122  H86 LEU d   1     -57.870 -29.725 -51.198  0.00  0.00     0.163 HD
BRANCH 121 123
ATOM    123  CA  LEU d   1     -57.514 -27.923 -52.269  0.00  0.00     0.033 C 
ATOM    124  H87 LEU d   1     -56.497 -27.507 -52.318  0.00  0.00     0.075 H 
BRANCH 123 125
ATOM    125  C   LEU d   1     -58.280 -27.230 -51.127  0.00  0.00     0.035 C 
ATOM    126  H88 LEU d   1     -59.336 -27.532 -51.185  0.00  0.00     0.077 H 
ATOM    127  H89 LEU d   1     -58.202 -26.142 -51.268  0.00  0.00     0.077 H 
BRANCH 125 128
ATOM    128  O   LEU d   1     -57.719 -27.598 -49.626  0.00  0.00    -0.399 OA
ATOM    129  H90 LEU d   1     -58.235 -27.138 -48.975  0.00  0.00     0.209 HD
ENDBRANCH 125 128
ENDBRANCH 123 125
BRANCH 123 130
ATOM    130  CB  LEU d   1     -58.219 -27.678 -53.611  0.00  0.00    -0.042 C 
ATOM    131  H91 LEU d   1     -59.219 -27.284 -53.378  0.00  0.00     0.036 H 
ATOM    132  H92 LEU d   1     -58.316 -28.657 -54.104  0.00  0.00     0.036 H 
BRANCH 130 133
ATOM    133  CG  LEU d   1     -57.593 -26.724 -54.637  0.00  0.00    -0.059 C 
ATOM    134  H93 LEU d   1     -57.870 -25.696 -54.358  0.00  0.00     0.038 H 
BRANCH 133 135
ATOM    135  CD1 LEU d   1     -56.045 -26.799 -54.658  0.00  0.00    -0.073 C 
ATOM    136  H94 LEU d   1     -55.654 -26.097 -55.409  0.00  0.00     0.028 H 
ATOM    137  H95 LEU d   1     -55.731 -27.822 -54.914  0.00  0.00     0.028 H 
ATOM    138  H96 LEU d   1     -55.651 -26.532 -53.666  0.00  0.00     0.028 H 
ENDBRANCH 133 135
BRANCH 133 139
ATOM    139  CD2 LEU d   1     -58.194 -27.026 -56.025  0.00  0.00    -0.073 C 
ATOM    140  H97 LEU d   1     -59.291 -26.964 -55.971  0.00  0.00     0.028 H 
ATOM    141  H98 LEU d   1     -57.899 -28.038 -56.340  0.00  0.00     0.028 H 
ATOM    142  H99 LEU d   1     -57.820 -26.292 -56.754  0.00  0.00     0.028 H 
ENDBRANCH 133 139
ENDBRANCH 130 133
ENDBRANCH 123 130
ENDBRANCH 121 123
ENDBRANCH 117 119
BRANCH 117 143
ATOM    143  CB  SER d   1     -56.073 -32.570 -53.394  0.00  0.00     0.044 C 
ATOM    144  H83 SER d   1     -56.127 -33.613 -53.050  0.00  0.00     0.077 H 
ATOM    145  H84 SER d   1     -55.032 -32.219 -53.341  0.00  0.00     0.077 H 
BRANCH 143 146
ATOM    146  OG  SER d   1     -56.517 -32.503 -54.742  0.00  0.00    -0.398 OA
ATOM    147  H85 SER d   1     -56.469 -31.604 -55.046  0.00  0.00     0.209 HD
ENDBRANCH 143 146
ENDBRANCH 117 143
ENDBRANCH 115 117
ENDBRANCH 111 113
BRANCH 111 148
ATOM    148  CB  ARG d   1     -60.877 -33.820 -51.532  0.00  0.00    -0.036 C 
ATOM    149  H70 ARG d   1     -60.127 -34.161 -50.803  0.00  0.00     0.036 H 
ATOM    150  H71 ARG d   1     -60.735 -34.355 -52.482  0.00  0.00     0.036 H 
BRANCH 148 151
ATOM    151  CG  ARG d   1     -62.252 -34.165 -50.994  0.00  0.00    -0.048 C 
ATOM    152  H72 ARG d   1     -62.998 -34.032 -51.792  0.00  0.00     0.035 H 
ATOM    153  H73 ARG d   1     -62.491 -33.497 -50.154  0.00  0.00     0.035 H 
BRANCH 151 154
ATOM    154  CD  ARG d   1     -62.283 -35.604 -50.514  0.00  0.00     0.009 C 
ATOM    155  H74 ARG d   1     -61.440 -35.767 -49.826  0.00  0.00     0.064 H 
ATOM    156  H75 ARG d   1     -62.180 -36.270 -51.383  0.00  0.00     0.064 H 
BRANCH 154 157
ATOM    157  NE  ARG d   1     -63.529 -35.926 -49.818  0.00  0.00    -0.227 N 
ATOM    158  CZ  ARG d   1     -63.712 -37.007 -49.064  0.00  0.00     0.665 C 
ATOM    159  NH1 ARG d   1     -62.728 -37.887 -48.892  0.00  0.00    -0.235 N 
ATOM    160  NH2 ARG d   1     -64.883 -37.208 -48.474  0.00  0.00    -0.235 N 
ATOM    161  H77 ARG d   1     -62.879 -38.721 -48.306  0.00  0.00     0.174 HD
ATOM    162  H78 ARG d   1     -61.815 -37.734 -49.344  0.00  0.00     0.174 HD
ATOM    163  H79 ARG d   1     -65.648 -36.531 -48.603  0.00  0.00     0.174 HD
ATOM    164  H80 ARG d   1     -65.027 -38.042 -47.886  0.00  0.00     0.174 HD
ATOM    165  H76 ARG d   1     -64.318 -35.272 -49.919  0.00  0.00     0.177 HD
ENDBRANCH 154 157
ENDBRANCH 151 154
ENDBRANCH 148 151
ENDBRANCH 111 148
ENDBRANCH 109 111
ENDBRANCH 105 107
BRANCH 105 166
ATOM    166  CB  LEU d   1     -63.439 -30.496 -54.788  0.00  0.00    -0.035 C 
ATOM    167  H59 LEU d   1     -63.712 -31.554 -54.664  0.00  0.00     0.037 H 
ATOM    168  H60 LEU d   1     -63.842 -30.123 -55.741  0.00  0.00     0.037 H 
BRANCH 166 169
ATOM    169  CG  LEU d   1     -64.113 -29.707 -53.659  0.00  0.00    -0.059 C 
ATOM    170  H61 LEU d   1     -63.527 -29.855 -52.740  0.00  0.00     0.038 H 
BRANCH 169 171
ATOM    171  CD1 LEU d   1     -64.130 -28.221 -53.974  0.00  0.00    -0.073 C 
ATOM    172  H62 LEU d   1     -64.617 -27.677 -53.151  0.00  0.00     0.028 H 
ATOM    173  H63 LEU d   1     -64.687 -28.050 -54.907  0.00  0.00     0.028 H 
ATOM    174  H64 LEU d   1     -63.098 -27.859 -54.092  0.00  0.00     0.028 H 
ENDBRANCH 169 171
BRANCH 169 175
ATOM    175  CD2 LEU d   1     -65.518 -30.219 -53.410  0.00  0.00    -0.073 C 
ATOM    176  H65 LEU d   1     -65.481 -31.295 -53.184  0.00  0.00     0.028 H 
ATOM    177  H66 LEU d   1     -66.133 -30.053 -54.307  0.00  0.00     0.028 H 
ATOM    178  H67 LEU d   1     -65.959 -29.680 -52.558  0.00  0.00     0.028 H 
ENDBRANCH 169 175
ENDBRANCH 166 169
ENDBRANCH 105 166
ENDBRANCH 103 105
ENDBRANCH  99 101
BRANCH  99 179
ATOM    179  CB  SER d   1     -60.159 -31.574 -58.801  0.00  0.00     0.044 C 
ATOM    180  H54 SER d   1     -59.829 -30.525 -58.833  0.00  0.00     0.077 H 
ATOM    181  H55 SER d   1     -61.254 -31.616 -58.894  0.00  0.00     0.077 H 
BRANCH 179 182
ATOM    182  OG  SER d   1     -59.577 -32.274 -59.882  0.00  0.00    -0.398 OA
ATOM    183  H56 SER d   1     -59.848 -31.874 -60.700  0.00  0.00     0.209 HD
ENDBRANCH 179 182
ENDBRANCH  99 179
ENDBRANCH  97  99
ENDBRANCH   1  95
BRANCH   1 184
ATOM    184  CB  ALA d   1     -60.395 -36.599 -57.237  0.00  0.00    -0.049 C 
ATOM    185  H49 ALA d   1     -59.321 -36.786 -57.087  0.00  0.00     0.030 H 
ATOM    186  H50 ALA d   1     -60.559 -36.189 -58.244  0.00  0.00     0.030 H 
ATOM    187  H51 ALA d   1     -60.950 -37.543 -57.131  0.00  0.00     0.030 H 
ENDBRANCH   1 184
TORSDOF 53
