REMARK  6 active torsions:
REMARK  status: ('A' for Active; 'I' for Inactive)
REMARK    1  A    between atoms: C_1  and  C13_16 
REMARK    2  A    between atoms: C6_7  and  C18_21 
REMARK    3  A    between atoms: C22_25  and  C10_11 
REMARK    4  A    between atoms: C18_21  and  C19_22 
REMARK    5  A    between atoms: C19_22  and  C20_23 
REMARK    6  A    between atoms: C20_23  and  N21_24 
ROOT
ATOM      1  C   M54 d   1      19.878  -2.087   9.405  0.00  0.00    -0.022 A 
ATOM      2  C1  M54 d   1      19.987  -3.372  10.119  0.00  0.00    -0.071 A 
ATOM      3  C2  M54 d   1      18.859  -3.952  10.816  0.00  0.00    -0.071 A 
ATOM      4  C3  M54 d   1      18.610  -1.397   9.363  0.00  0.00    -0.060 A 
ATOM      5  C4  M54 d   1      17.455  -1.964   9.992  0.00  0.00    -0.008 A 
ATOM      6  C5  M54 d   1      17.586  -3.268  10.739  0.00  0.00    -0.018 A 
ATOM      7  C6  M54 d   1      16.446  -3.858  11.382  0.00  0.00    -0.046 A 
ATOM      8  C7  M54 d   1      15.196  -3.233  11.306  0.00  0.00    -0.064 A 
ATOM      9  C8  M54 d   1      16.158  -1.331   9.940  0.00  0.00     0.054 A 
ATOM     10  C9  M54 d   1      14.989  -1.959  10.617  0.00  0.00    -0.007 A 
ATOM     11  C10 M54 d   1      13.689  -1.315  10.565  0.00  0.00     0.001 A 
ATOM     12  C11 M54 d   1      13.494  -0.098   9.954  0.00  0.00    -0.008 A 
ATOM     13  N   M54 d   1      14.631   0.508   9.279  0.00  0.00    -0.332 N 
ATOM     14  C12 M54 d   1      15.886  -0.049   9.216  0.00  0.00     0.257 A 
ATOM     15  O   M54 d   1      16.778   0.595   8.561  0.00  0.00    -0.267 OA
ATOM     16  H1  M54 d   1      20.936  -3.896  10.122  0.00  0.00     0.084 H 
ATOM     17  H2  M54 d   1      18.965  -4.872  11.379  0.00  0.00     0.084 H 
ATOM     18  H3  M54 d   1      18.532  -0.444   8.852  0.00  0.00     0.086 H 
ATOM     19  H4  M54 d   1      14.346  -3.713  11.777  0.00  0.00     0.085 H 
ATOM     20  H5  M54 d   1      12.523   0.394   9.975  0.00  0.00     0.112 H 
ATOM     21  H6  M54 d   1      14.490   1.390   8.830  0.00  0.00     0.168 HD
ENDROOT
BRANCH   7  22
ATOM     22  C18 M54 d   1      16.705  -5.199  12.110  0.00  0.00    -0.039 C 
ATOM     23  H10 M54 d   1      17.781  -5.422  12.053  0.00  0.00     0.040 H 
ATOM     24  H11 M54 d   1      16.139  -5.989  11.594  0.00  0.00     0.040 H 
BRANCH  22  25
ATOM     25  C19 M54 d   1      16.302  -5.192  13.542  0.00  0.00    -0.039 C 
ATOM     26  H12 M54 d   1      16.555  -6.178  13.960  0.00  0.00     0.035 H 
ATOM     27  H13 M54 d   1      15.212  -5.048  13.577  0.00  0.00     0.035 H 
BRANCH  25  28
ATOM     28  C20 M54 d   1      16.906  -4.180  14.410  0.00  0.00     0.080 C 
ATOM     29  H14 M54 d   1      16.647  -3.169  14.063  0.00  0.00     0.075 H 
ATOM     30  H15 M54 d   1      18.000  -4.291  14.430  0.00  0.00     0.075 H 
BRANCH  28  31
ATOM     31  N21 M54 d   1      16.332  -4.433  15.753  0.00  0.00    -0.079 N 
ATOM     32  H16 M54 d   1      16.707  -3.766  16.410  0.00  0.00     0.274 HD
ATOM     33  H17 M54 d   1      16.570  -5.367  16.049  0.00  0.00     0.274 HD
ATOM     34  H18 M54 d   1      15.329  -4.338  15.713  0.00  0.00     0.274 HD
ENDBRANCH  28  31
ENDBRANCH  25  28
ENDBRANCH  22  25
ENDBRANCH   7  22
BRANCH  11  35
ATOM     35  C22 M54 d   1      12.477  -1.966  11.232  0.00  0.00    -0.021 A 
ATOM     36  C23 M54 d   1      11.321  -2.375  10.375  0.00  0.00    -0.075 A 
ATOM     37  C26 M54 d   1      10.110  -3.005  10.931  0.00  0.00    -0.095 A 
ATOM     38  H19 M54 d   1      11.376  -2.201   9.301  0.00  0.00     0.084 H 
ATOM     39  C24 M54 d   1      10.063  -3.310  12.342  0.00  0.00     0.009 A 
ATOM     40  H22 M54 d   1       9.263  -3.237  10.287  0.00  0.00     0.077 H 
ATOM     41  C25 M54 d   1      11.193  -2.928  13.123  0.00  0.00     0.153 A 
ATOM     42  H20 M54 d   1       9.182  -2.803  12.762  0.00  0.00     0.050 H 
ATOM     43  H21 M54 d   1       9.942  -4.399  12.443  0.00  0.00     0.050 H 
ATOM     44  C27 M54 d   1      12.421  -2.298  12.630  0.00  0.00    -0.028 A 
ATOM     45  O28 M54 d   1      11.156  -3.189  14.291  0.00  0.00    -0.293 OA
ATOM     46  H23 M54 d   1      13.257  -2.090  13.296  0.00  0.00     0.090 H 
ENDBRANCH  11  35
BRANCH   1  47
ATOM     47  C13 M54 d   1      21.074  -1.505   8.730  0.00  0.00     0.010 A 
ATOM     48  C14 M54 d   1      22.346  -2.116   8.684  0.00  0.00     0.008 A 
ATOM     49  N15 M54 d   1      23.120  -1.229   7.973  0.00  0.00    -0.289 N 
ATOM     50  H7  M54 d   1      22.646  -3.071   9.113  0.00  0.00     0.115 H 
ATOM     51  N16 M54 d   1      22.353  -0.136   7.623  0.00  0.00    -0.187 NA
ATOM     52  H8  M54 d   1      24.114  -1.360   7.739  0.00  0.00     0.188 HD
ATOM     53  C17 M54 d   1      21.088  -0.282   8.051  0.00  0.00     0.034 A 
ATOM     54  H9  M54 d   1      20.255   0.403   7.902  0.00  0.00     0.118 H 
ENDBRANCH   1  47
TORSDOF 6
