REMARK  8 active torsions:
REMARK  status: ('A' for Active; 'I' for Inactive)
REMARK    1  A    between atoms: CH_2  and  CH3_3 
REMARK       I    between atoms: CH_2  and  NZ_4 
REMARK    2  A    between atoms: NZ_4  and  CE_5 
REMARK    3  A    between atoms: CE_5  and  CD_6 
REMARK    4  A    between atoms: CD_6  and  CG_7 
REMARK    5  A    between atoms: CG_7  and  CB_8 
REMARK    6  A    between atoms: CB_8  and  CA_9 
REMARK    7  A    between atoms: CA_9  and  N_10 
REMARK    8  A    between atoms: CA_9  and  C_11 
ROOT
ATOM      1  CG  ALY d   1      26.960   9.541   2.000  0.00  0.00    -0.061 C 
ATOM      2  H9  ALY d   1      27.177   8.467   1.898  0.00  0.00     0.033 H 
ATOM      3  H10 ALY d   1      27.869  10.121   1.784  0.00  0.00     0.033 H 
ENDROOT
BRANCH   1   4
ATOM      4  CD  ALY d   1      26.507   9.829   3.425  0.00  0.00    -0.050 C 
ATOM      5  H7  ALY d   1      25.425   9.645   3.503  0.00  0.00     0.035 H 
ATOM      6  H8  ALY d   1      27.043   9.161   4.115  0.00  0.00     0.035 H 
BRANCH   4   7
ATOM      7  CE  ALY d   1      26.795  11.274   3.807  0.00  0.00    -0.005 C 
ATOM      8  H5  ALY d   1      27.202  11.809   2.937  0.00  0.00     0.064 H 
ATOM      9  H6  ALY d   1      25.864  11.760   4.133  0.00  0.00     0.064 H 
BRANCH   7  10
ATOM     10  NZ  ALY d   1      27.761  11.304   4.889  0.00  0.00    -0.361 N 
ATOM     11  CH  ALY d   1      27.436  11.654   6.139  0.00  0.00     0.213 C 
ATOM     12  OH  ALY d   1      26.296  11.956   6.460  0.00  0.00    -0.274 OA
ATOM     13  H4  ALY d   1      28.709  11.053   4.693  0.00  0.00     0.162 HD
BRANCH  11  14
ATOM     14  CH3 ALY d   1      28.595  11.629   7.116  0.00  0.00    -0.003 C 
ATOM     15  H1  ALY d   1      29.512  11.328   6.589  0.00  0.00     0.040 H 
ATOM     16  H2  ALY d   1      28.381  10.910   7.920  0.00  0.00     0.040 H 
ATOM     17  H3  ALY d   1      28.732  12.631   7.548  0.00  0.00     0.040 H 
ENDBRANCH  11  14
ENDBRANCH   7  10
ENDBRANCH   4   7
ENDBRANCH   1   4
BRANCH   1  18
ATOM     18  CB  ALY d   1      25.863   9.931   1.005  0.00  0.00    -0.029 C 
ATOM     19  H11 ALY d   1      26.232   9.719  -0.009  0.00  0.00     0.036 H 
ATOM     20  H12 ALY d   1      25.677  11.010   1.109  0.00  0.00     0.036 H 
BRANCH  18  21
ATOM     21  CA  ALY d   1      24.522   9.196   1.188  0.00  0.00     0.182 C 
ATOM     22  H13 ALY d   1      24.290   9.184   2.263  0.00  0.00     0.101 H 
BRANCH  21  23
ATOM     23  N   ALY d   1      24.632   7.783   0.716  0.00  0.00    -0.065 N 
ATOM     24  H14 ALY d   1      23.747   7.317   0.843  0.00  0.00     0.275 HD
ATOM     25  H15 ALY d   1      25.343   7.305   1.248  0.00  0.00     0.275 HD
ATOM     26  H16 ALY d   1      24.880   7.773  -0.261  0.00  0.00     0.275 HD
ENDBRANCH  21  23
BRANCH  21  27
ATOM     27  C   ALY d   1      23.382   9.884   0.475  0.00  0.00     0.204 C 
ATOM     28  O   ALY d   1      23.554  10.541  -0.586  0.00  0.00    -0.646 OA
ATOM     29  O17 ALY d   1      22.221   9.798   0.957  0.00  0.00    -0.646 OA
ENDBRANCH  21  27
ENDBRANCH  18  21
ENDBRANCH   1  18
TORSDOF 8
