REMARK  16 active torsions:
REMARK  status: ('A' for Active; 'I' for Inactive)
REMARK    1  A    between atoms: C2_4  and  C1_2 
REMARK    2  A    between atoms: C6_6  and  C7_7 
REMARK    3  A    between atoms: C7_7  and  C8_8 
REMARK    4  A    between atoms: C7_7  and  O7_10 
REMARK    5  A    between atoms: C8_8  and  O8_9 
REMARK    6  A    between atoms: O8_28  and  C4_13 
REMARK    7  A    between atoms: C2_17  and  C1_14 
REMARK    8  A    between atoms: O2_29  and  C2_17 
REMARK    9  A    between atoms: C4_19  and  O4_20 
REMARK   10  A    between atoms: C5_21  and  O5_22 
REMARK   11  A    between atoms: C6_23  and  C7_25 
REMARK   12  A    between atoms: C7_25  and  O7_26 
REMARK   13  A    between atoms: C7_25  and  C8_27 
REMARK   14  A    between atoms: C8_27  and  O8_28 
REMARK   15  A    between atoms: C9_30  and  O2_29 
REMARK   16  A    between atoms: C10_31  and  C9_30 
ROOT
ATOM      1  C7  KDA d   1      -8.173   5.275  67.039  0.00  0.00     0.083 C 
ATOM      2  H18 KDA d   1      -8.745   5.716  66.209  0.00  0.00     0.090 H 
ENDROOT
BRANCH   1   3
ATOM      3  C6  KDA d   1      -7.671   3.873  66.675  0.00  0.00     0.096 C 
ATOM      4  C5  KDA d   1      -6.735   3.866  65.433  0.00  0.00     0.088 C 
ATOM      5  C4  KDA d   1      -6.264   2.453  65.118  0.00  0.00     0.068 C 
ATOM      6  H15 KDA d   1      -5.868   4.522  65.600  0.00  0.00     0.091 H 
ATOM      7  C3  KDA d   1      -7.422   1.451  64.949  0.00  0.00     0.024 C 
ATOM      8  H13 KDA d   1      -5.635   2.108  65.952  0.00  0.00     0.087 H 
ATOM      9  C2  KDA d   1      -8.442   1.595  66.119  0.00  0.00     0.259 C 
ATOM     10  H11 KDA d   1      -7.934   1.647  63.996  0.00  0.00     0.045 H 
ATOM     11  H12 KDA d   1      -7.018   0.428  64.945  0.00  0.00     0.045 H 
ATOM     12  O6  KDA d   1      -8.822   3.019  66.413  0.00  0.00    -0.336 OA
ATOM     13  H17 KDA d   1      -7.111   3.471  67.532  0.00  0.00     0.091 H 
BRANCH   4  14
ATOM     14  O5  KDA d   1      -7.533   4.338  64.333  0.00  0.00    -0.390 OA
ATOM     15  H16 KDA d   1      -8.282   3.765  64.217  0.00  0.00     0.210 HD
ENDBRANCH   4  14
BRANCH   5  16
ATOM     16  O4  KDA d   1      -5.462   2.485  63.908  0.00  0.00    -0.393 OA
ATOM     17  H14 KDA d   1      -4.750   3.104  64.018  0.00  0.00     0.210 HD
ENDBRANCH   5  16
BRANCH   9  18
ATOM     18  C1  KDA d   1      -9.665   0.779  65.813  0.00  0.00     0.239 C 
ATOM     19  O1A KDA d   1     -10.677   1.422  65.406  0.00  0.00    -0.644 OA
ATOM     20  O1B KDA d   1      -9.576  -0.445  65.935  0.00  0.00    -0.644 OA
ENDBRANCH   9  18
BRANCH   9  21
ATOM     21  O2  KDA d   1      -7.817   1.087  67.383  0.00  0.00    -0.343 OA
BRANCH  21  22
ATOM     22  C9  KDA d   1      -8.623   1.110  68.558  0.00  0.00     0.038 C 
ATOM     23  H22 KDA d   1      -9.641   1.365  68.228  0.00  0.00     0.080 H 
ATOM     24  H23 KDA d   1      -8.227   1.921  69.186  0.00  0.00     0.080 H 
BRANCH  22  25
ATOM     25  C10 KDA d   1      -8.747   0.028  69.369  0.00  0.00    -0.089 C 
ATOM     26  C11 KDA d   1      -7.679  -0.401  70.120  0.00  0.00    -0.123 C 
ATOM     27  H25 KDA d   1      -7.783  -1.269  70.769  0.00  0.00     0.066 H 
ATOM     28  H26 KDA d   1      -6.728   0.127  70.066  0.00  0.00     0.066 H 
ATOM     29  H24 KDA d   1      -9.697  -0.502  69.424  0.00  0.00     0.078 H 
ENDBRANCH  22  25
ENDBRANCH  21  22
ENDBRANCH   9  21
ENDBRANCH   1   3
BRANCH   1  30
ATOM     30  O7  KDA d   1      -6.999   6.023  67.299  0.00  0.00    -0.391 OA
ATOM     31  H19 KDA d   1      -6.522   5.622  68.016  0.00  0.00     0.210 HD
ENDBRANCH   1  30
BRANCH   1  32
ATOM     32  C8  KDA d   1      -9.051   5.212  68.306  0.00  0.00     0.046 C 
ATOM     33  H20 KDA d   1      -9.879   4.502  68.165  0.00  0.00     0.078 H 
ATOM     34  H21 KDA d   1      -9.457   6.207  68.542  0.00  0.00     0.078 H 
BRANCH  32  35
ATOM     35  O8  KDA d   1      -8.176   4.763  69.359  0.00  0.00    -0.379 OA
BRANCH  35  36
ATOM     36  C4  KDD d   1      -8.666   4.470  70.706  0.00  0.00     0.060 C 
ATOM     37  C5  KDD d   1      -7.653   4.443  71.853  0.00  0.00    -0.011 C 
ATOM     38  C6  KDD d   1      -7.683   2.942  72.230  0.00  0.00     0.074 C 
ATOM     39  H7  KDA d   1      -6.653   4.756  71.518  0.00  0.00     0.041 H 
ATOM     40  H8  KDA d   1      -7.974   5.078  72.692  0.00  0.00     0.041 H 
ATOM     41  O6  KDD d   1      -9.043   2.471  72.477  0.00  0.00    -0.337 OA
ATOM     42  H1  KDA d   1      -7.322   2.406  71.340  0.00  0.00     0.088 H 
ATOM     43  C2  KDD d   1     -10.079   2.864  71.649  0.00  0.00     0.144 C 
ATOM     44  C3  KDD d   1      -9.981   4.021  70.852  0.00  0.00    -0.037 C 
ATOM     45  H9  KDA d   1     -10.839   4.514  70.398  0.00  0.00     0.085 H 
ATOM     46  H10 KDA d   1      -8.945   5.515  70.907  0.00  0.00     0.089 H 
BRANCH  38  47
ATOM     47  C7  KDD d   1      -6.749   2.524  73.379  0.00  0.00     0.081 C 
ATOM     48  H2  KDA d   1      -5.777   3.022  73.244  0.00  0.00     0.090 H 
BRANCH  47  49
ATOM     49  C8  KDD d   1      -7.270   2.851  74.785  0.00  0.00     0.043 C 
ATOM     50  H3  KDA d   1      -7.856   2.001  75.164  0.00  0.00     0.078 H 
ATOM     51  H4  KDA d   1      -7.909   3.745  74.738  0.00  0.00     0.078 H 
BRANCH  49  52
ATOM     52  O8  KDD d   1      -6.175   3.099  75.664  0.00  0.00    -0.398 OA
ATOM     53  H5  KDA d   1      -6.506   3.300  76.531  0.00  0.00     0.209 HD
ENDBRANCH  49  52
ENDBRANCH  47  49
BRANCH  47  54
ATOM     54  O7  KDD d   1      -6.595   1.116  73.276  0.00  0.00    -0.391 OA
ATOM     55  H6  KDA d   1      -7.435   0.695  73.418  0.00  0.00     0.210 HD
ENDBRANCH  47  54
ENDBRANCH  38  47
BRANCH  43  56
ATOM     56  C1  KDD d   1     -11.309   1.949  71.686  0.00  0.00     0.233 C 
ATOM     57  O1A KDD d   1     -12.225   2.027  70.814  0.00  0.00    -0.642 OA
ATOM     58  O1B KDD d   1     -11.290   1.138  72.641  0.00  0.00    -0.642 OA
ENDBRANCH  43  56
ENDBRANCH  35  36
ENDBRANCH  32  35
ENDBRANCH   1  32
TORSDOF 16
