REMARK  26 active torsions:
REMARK  status: ('A' for Active; 'I' for Inactive)
REMARK    1  A    between atoms: C2_4  and  C1_1 
REMARK    2  A    between atoms: C2_4  and  O2_15 
REMARK    3  A    between atoms: O2_23  and  C4_6 
REMARK    4  A    between atoms: C5_7  and  O5_8 
REMARK    5  A    between atoms: C6_9  and  C7_11 
REMARK    6  A    between atoms: C7_11  and  O7_12 
REMARK    7  A    between atoms: C7_11  and  C8_13 
REMARK    8  A    between atoms: C8_13  and  O8_14 
REMARK    9  A    between atoms: O2_15  and  C9_16 
REMARK   10  A    between atoms: C9_16  and  C10_17 
REMARK   11  A    between atoms: C2_22  and  C1_19 
REMARK   12  A    between atoms: C2_22  and  O2_23 
REMARK   13  A    between atoms: O2_38  and  C4_25 
REMARK   14  A    between atoms: C5_26  and  O5_27 
REMARK   15  A    between atoms: C6_28  and  C7_30 
REMARK   16  A    between atoms: C7_30  and  O7_31 
REMARK   17  A    between atoms: C7_30  and  C8_32 
REMARK   18  A    between atoms: C8_32  and  O8_33 
REMARK   19  A    between atoms: C2_37  and  C1_34 
REMARK   20  A    between atoms: C2_37  and  O2_38 
REMARK   21  A    between atoms: C4_40  and  O4_41 
REMARK   22  A    between atoms: C5_42  and  O5_43 
REMARK   23  A    between atoms: C6_44  and  C7_46 
REMARK   24  A    between atoms: C7_46  and  O7_47 
REMARK   25  A    between atoms: C7_46  and  C8_48 
REMARK   26  A    between atoms: C8_48  and  O8_49 
ROOT
ATOM      1  C2  KDA d   1      -8.658   1.360  70.871  0.00  0.00     0.259 C 
ATOM      2  C3  KDA d   1      -8.495   1.673  69.353  0.00  0.00     0.024 C 
ATOM      3  C4  KDA d   1      -7.849   0.522  68.543  0.00  0.00     0.075 C 
ATOM      4  C5  KDA d   1      -6.576  -0.061  69.162  0.00  0.00     0.088 C 
ATOM      5  C6  KDA d   1      -6.930  -0.506  70.598  0.00  0.00     0.096 C 
ATOM      6  O6  KDA d   1      -7.458   0.650  71.344  0.00  0.00    -0.336 OA
ATOM      7  H17 KDA d   1      -7.863   2.567  69.249  0.00  0.00     0.045 H 
ATOM      8  H18 KDA d   1      -9.491   1.877  68.932  0.00  0.00     0.045 H 
ATOM      9  H19 KDA d   1      -8.580  -0.290  68.417  0.00  0.00     0.087 H 
ATOM     10  H20 KDA d   1      -6.257  -0.941  68.585  0.00  0.00     0.091 H 
ATOM     11  H22 KDA d   1      -7.736  -1.251  70.533  0.00  0.00     0.091 H 
ENDROOT
BRANCH   1  12
ATOM     12  C1  KDA d   1      -8.721   2.716  71.614  0.00  0.00     0.239 C 
ATOM     13  O1A KDA d   1      -7.681   3.157  72.182  0.00  0.00    -0.644 OA
ATOM     14  O1B KDA d   1      -9.824   3.305  71.595  0.00  0.00    -0.644 OA
ENDBRANCH   1  12
BRANCH   1  15
ATOM     15  O2  KDA d   1      -9.863   0.562  71.118  0.00  0.00    -0.338 OA
BRANCH  15  16
ATOM     16  C4  KDA d   1      -9.848  -0.084  72.412  0.00  0.00     0.075 C 
ATOM     17  C3  KDA d   1     -11.147  -0.876  72.150  0.00  0.00     0.024 C 
ATOM     18  C2  KDA d   1     -11.321  -2.150  73.041  0.00  0.00     0.259 C 
ATOM     19  H1  KDA d   1     -12.000  -0.207  72.336  0.00  0.00     0.045 H 
ATOM     20  H2  KDA d   1     -11.151  -1.191  71.096  0.00  0.00     0.045 H 
ATOM     21  O6  KDA d   1     -10.504  -2.159  74.257  0.00  0.00    -0.336 OA
ATOM     22  C6  KDA d   1      -9.279  -1.374  74.397  0.00  0.00     0.096 C 
ATOM     23  C5  KDA d   1      -9.571   0.064  73.918  0.00  0.00     0.088 C 
ATOM     24  H6  KDA d   1      -8.532  -1.803  73.713  0.00  0.00     0.091 H 
ATOM     25  H4  KDA d   1      -8.696   0.710  74.082  0.00  0.00     0.091 H 
ATOM     26  H3  KDA d   1      -9.025  -0.790  72.225  0.00  0.00     0.087 H 
BRANCH  18  27
ATOM     27  C1  KDA d   1     -12.743  -2.176  73.621  0.00  0.00     0.239 C 
ATOM     28  O1A KDA d   1     -13.590  -1.347  73.182  0.00  0.00    -0.644 OA
ATOM     29  O1B KDA d   1     -12.978  -3.017  74.511  0.00  0.00    -0.644 OA
ENDBRANCH  18  27
BRANCH  18  30
ATOM     30  O2  KDA d   1     -11.001  -3.355  72.278  0.00  0.00    -0.343 OA
BRANCH  30  31
ATOM     31  C9  KDA d   1     -10.971  -4.658  72.723  0.00  0.00     0.038 C 
ATOM     32  H12 KDA d   1     -11.363  -4.609  73.749  0.00  0.00     0.080 H 
ATOM     33  H13 KDA d   1      -9.902  -4.917  72.751  0.00  0.00     0.080 H 
BRANCH  31  34
ATOM     34  C10 KDA d   1     -11.592  -5.784  72.161  0.00  0.00    -0.089 C 
ATOM     35  C11 KDA d   1     -11.448  -7.031  72.759  0.00  0.00    -0.123 C 
ATOM     36  H15 KDA d   1     -11.931  -7.904  72.322  0.00  0.00     0.066 H 
ATOM     37  H16 KDA d   1     -10.853  -7.135  73.665  0.00  0.00     0.066 H 
ATOM     38  H14 KDA d   1     -12.188  -5.681  71.255  0.00  0.00     0.078 H 
ENDBRANCH  31  34
ENDBRANCH  30  31
ENDBRANCH  18  30
BRANCH  22  39
ATOM     39  C7  KDA d   1      -8.667  -1.447  75.811  0.00  0.00     0.083 C 
ATOM     40  H7  KDA d   1      -9.324  -0.897  76.502  0.00  0.00     0.090 H 
BRANCH  39  41
ATOM     41  O7  KDA d   1      -7.365  -0.859  75.829  0.00  0.00    -0.391 OA
ATOM     42  H8  KDA d   1      -7.005  -0.913  76.707  0.00  0.00     0.210 HD
ENDBRANCH  39  41
BRANCH  39  43
ATOM     43  C8  KDA d   1      -8.522  -2.900  76.305  0.00  0.00     0.043 C 
ATOM     44  H9  KDA d   1      -9.523  -3.326  76.466  0.00  0.00     0.078 H 
ATOM     45  H10 KDA d   1      -7.965  -2.903  77.254  0.00  0.00     0.078 H 
BRANCH  43  46
ATOM     46  O8  KDA d   1      -7.816  -3.710  75.343  0.00  0.00    -0.398 OA
ATOM     47  H11 KDA d   1      -7.741  -4.598  75.671  0.00  0.00     0.209 HD
ENDBRANCH  43  46
ENDBRANCH  39  43
ENDBRANCH  22  39
BRANCH  23  48
ATOM     48  O5  KDA d   1     -10.699   0.614  74.622  0.00  0.00    -0.390 OA
ATOM     49  H5  KDA d   1     -10.490   0.690  75.546  0.00  0.00     0.210 HD
ENDBRANCH  23  48
ENDBRANCH  15  16
ENDBRANCH   1  15
BRANCH   3  50
ATOM     50  O2  KDA d   1      -7.527   1.111  67.276  0.00  0.00    -0.338 OA
BRANCH  50  51
ATOM     51  C2  KDA d   1      -8.341   1.557  66.167  0.00  0.00     0.259 C 
ATOM     52  C3  KDA d   1      -7.474   1.498  64.885  0.00  0.00     0.024 C 
ATOM     53  C4  KDA d   1      -6.303   2.488  65.012  0.00  0.00     0.068 C 
ATOM     54  H28 KDA d   1      -8.089   1.767  64.014  0.00  0.00     0.045 H 
ATOM     55  H29 KDA d   1      -7.080   0.479  64.755  0.00  0.00     0.045 H 
ATOM     56  C5  KDA d   1      -6.799   3.910  65.310  0.00  0.00     0.088 C 
ATOM     57  H30 KDA d   1      -5.633   2.163  65.821  0.00  0.00     0.087 H 
ATOM     58  C6  KDA d   1      -7.653   3.898  66.605  0.00  0.00     0.096 C 
ATOM     59  H32 KDA d   1      -5.937   4.582  65.433  0.00  0.00     0.091 H 
ATOM     60  O6  KDA d   1      -8.739   2.932  66.459  0.00  0.00    -0.336 OA
ATOM     61  H34 KDA d   1      -7.005   3.560  67.427  0.00  0.00     0.091 H 
BRANCH  51  62
ATOM     62  C1  KDA d   1      -9.619   0.725  65.937  0.00  0.00     0.239 C 
ATOM     63  O1A KDA d   1     -10.667   1.308  65.550  0.00  0.00    -0.644 OA
ATOM     64  O1B KDA d   1      -9.505  -0.493  66.091  0.00  0.00    -0.644 OA
ENDBRANCH  51  62
BRANCH  53  65
ATOM     65  O4  KDA d   1      -5.602   2.480  63.764  0.00  0.00    -0.393 OA
ATOM     66  H31 KDA d   1      -4.870   3.083  63.808  0.00  0.00     0.210 HD
ENDBRANCH  53  65
BRANCH  56  67
ATOM     67  O5  KDA d   1      -7.639   4.380  64.239  0.00  0.00    -0.390 OA
ATOM     68  H33 KDA d   1      -7.939   5.260  64.435  0.00  0.00     0.210 HD
ENDBRANCH  56  67
BRANCH  58  69
ATOM     69  C7  KDA d   1      -8.193   5.288  66.991  0.00  0.00     0.083 C 
ATOM     70  H35 KDA d   1      -8.851   5.665  66.194  0.00  0.00     0.090 H 
BRANCH  69  71
ATOM     71  O7  KDA d   1      -7.090   6.158  67.175  0.00  0.00    -0.391 OA
ATOM     72  H36 KDA d   1      -7.405   7.022  67.414  0.00  0.00     0.210 HD
ENDBRANCH  69  71
BRANCH  69  73
ATOM     73  C8  KDA d   1      -8.961   5.233  68.320  0.00  0.00     0.043 C 
ATOM     74  H37 KDA d   1      -9.743   4.461  68.258  0.00  0.00     0.078 H 
ATOM     75  H38 KDA d   1      -9.426   6.211  68.514  0.00  0.00     0.078 H 
BRANCH  73  76
ATOM     76  O8  KDA d   1      -8.053   4.911  69.399  0.00  0.00    -0.398 OA
ATOM     77  H39 KDA d   1      -8.533   4.878  70.218  0.00  0.00     0.209 HD
ENDBRANCH  73  76
ENDBRANCH  69  73
ENDBRANCH  58  69
ENDBRANCH  50  51
ENDBRANCH   3  50
BRANCH   5  78
ATOM     78  C7  KDA d   1      -5.735  -1.196  71.277  0.00  0.00     0.083 C 
ATOM     79  H23 KDA d   1      -4.863  -0.530  71.200  0.00  0.00     0.090 H 
BRANCH  78  80
ATOM     80  O7  KDA d   1      -5.431  -2.437  70.631  0.00  0.00    -0.391 OA
ATOM     81  H24 KDA d   1      -4.692  -2.847  71.064  0.00  0.00     0.210 HD
ENDBRANCH  78  80
BRANCH  78  82
ATOM     82  C8  KDA d   1      -6.011  -1.479  72.763  0.00  0.00     0.043 C 
ATOM     83  H25 KDA d   1      -6.914  -2.101  72.854  0.00  0.00     0.078 H 
ATOM     84  H26 KDA d   1      -6.166  -0.527  73.293  0.00  0.00     0.078 H 
BRANCH  82  85
ATOM     85  O8  KDA d   1      -4.894  -2.172  73.346  0.00  0.00    -0.398 OA
ATOM     86  H27 KDA d   1      -5.072  -2.343  74.263  0.00  0.00     0.209 HD
ENDBRANCH  82  85
ENDBRANCH  78  82
ENDBRANCH   5  78
BRANCH   4  87
ATOM     87  O5  KDA d   1      -5.515   0.918  69.123  0.00  0.00    -0.390 OA
ATOM     88  H21 KDA d   1      -4.729   0.549  69.509  0.00  0.00     0.210 HD
ENDBRANCH   4  87
TORSDOF 26
