REMARK  10 active torsions:
REMARK  status: ('A' for Active; 'I' for Inactive)
REMARK    1  A    between atoms: N10_7  and  C60_34 
REMARK    2  A    between atoms: C12_9  and  N20_13 
REMARK    3  A    between atoms: N20_13  and  S22_14 
REMARK    4  A    between atoms: N20_13  and  C35_23 
REMARK    5  A    between atoms: S22_14  and  C23_15 
REMARK    6  A    between atoms: C35_23  and  C36_24 
REMARK       I    between atoms: N41_27  and  C53_30 
REMARK    7  A    between atoms: C53_30  and  O54_31 
REMARK    8  A    between atoms: O54_31  and  C56_33 
REMARK    9  A    between atoms: C60_34  and  C61_35 
REMARK   10  A    between atoms: N67_39  and  C68_40 
ROOT
ATOM      1  C1  PB9 d   1     186.664 131.800  36.234  0.00  0.00    -0.061 A 
ATOM      2  C2  PB9 d   1     187.764 131.096  35.681  0.00  0.00    -0.055 A 
ATOM      3  C3  PB9 d   1     187.594 130.047  34.714  0.00  0.00     0.037 A 
ATOM      4  C4  PB9 d   1     186.270 129.683  34.365  0.00  0.00    -0.028 A 
ATOM      5  C5  PB9 d   1     185.168 130.442  34.879  0.00  0.00    -0.055 A 
ATOM      6  C6  PB9 d   1     185.369 131.482  35.823  0.00  0.00     0.045 A 
ATOM      7  N10 PB9 d   1     188.698 129.387  34.128  0.00  0.00    -0.373 N 
ATOM      8  C11 PB9 d   1     188.530 128.255  33.195  0.00  0.00     0.015 C 
ATOM      9  C12 PB9 d   1     187.169 128.163  32.514  0.00  0.00     0.042 C 
ATOM     10  C13 PB9 d   1     185.999 128.476  33.477  0.00  0.00    -0.018 C 
ATOM     11  C18 PB9 d   1     184.242 132.177  36.398  0.00  0.00     0.099 C 
ATOM     12  N19 PB9 d   1     183.353 132.717  36.902  0.00  0.00    -0.191 NA
ATOM     13  H1  PB9 d   1     186.828 132.579  36.970  0.00  0.00     0.085 H 
ATOM     14  H2  PB9 d   1     188.767 131.358  35.999  0.00  0.00     0.087 H 
ATOM     15  H3  PB9 d   1     184.163 130.217  34.540  0.00  0.00     0.086 H 
ATOM     16  H4  PB9 d   1     188.690 127.324  33.759  0.00  0.00     0.067 H 
ATOM     17  H5  PB9 d   1     189.296 128.345  32.411  0.00  0.00     0.067 H 
ATOM     18  H6  PB9 d   1     187.156 128.979  31.776  0.00  0.00     0.076 H 
ATOM     19  H7  PB9 d   1     185.097 128.675  32.880  0.00  0.00     0.043 H 
ATOM     20  H8  PB9 d   1     185.828 127.599  34.119  0.00  0.00     0.043 H 
ENDROOT
BRANCH   7  21
ATOM     21  C60 PB9 d   1     190.103 129.749  34.427  0.00  0.00     0.035 C 
ATOM     22  H27 PB9 d   1     190.134 130.791  34.778  0.00  0.00     0.073 H 
ATOM     23  H28 PB9 d   1     190.698 129.654  33.506  0.00  0.00     0.073 H 
BRANCH  21  24
ATOM     24  C61 PB9 d   1     190.718 128.838  35.514  0.00  0.00     0.047 A 
ATOM     25  C64 PB9 d   1     190.094 127.925  36.313  0.00  0.00     0.027 A 
ATOM     26  N65 PB9 d   1     191.067 127.302  37.218  0.00  0.00    -0.254 NA
ATOM     27  H29 PB9 d   1     189.030 127.693  36.284  0.00  0.00     0.117 H 
ATOM     28  C66 PB9 d   1     192.247 127.874  36.913  0.00  0.00     0.065 A 
ATOM     29  N67 PB9 d   1     192.139 128.798  35.915  0.00  0.00    -0.347 N 
ATOM     30  H30 PB9 d   1     193.185 127.626  37.408  0.00  0.00     0.143 H 
BRANCH  29  31
ATOM     31  C68 PB9 d   1     193.199 129.647  35.336  0.00  0.00    -0.013 C 
ATOM     32  H31 PB9 d   1     192.770 130.282  34.547  0.00  0.00     0.057 H 
ATOM     33  H32 PB9 d   1     193.986 129.009  34.906  0.00  0.00     0.057 H 
ATOM     34  H33 PB9 d   1     193.631 130.282  36.123  0.00  0.00     0.057 H 
ENDBRANCH  29  31
ENDBRANCH  21  24
ENDBRANCH   7  21
BRANCH   9  35
ATOM     35  N20 PB9 d   1     187.000 126.892  31.696  0.00  0.00    -0.298 N 
BRANCH  35  36
ATOM     36  S22 PB9 d   1     187.247 125.188  32.283  0.00  0.00     0.278 S 
ATOM     37  O24 PB9 d   1     187.101 124.328  31.144  0.00  0.00    -0.199 OA
ATOM     38  O25 PB9 d   1     186.364 125.040  33.403  0.00  0.00    -0.199 OA
BRANCH  36  39
ATOM     39  C23 PB9 d   1     188.927 125.058  32.818  0.00  0.00     0.171 A 
ATOM     40  N26 PB9 d   1     189.192 124.723  34.106  0.00  0.00    -0.248 NA
ATOM     41  C27 PB9 d   1     190.479 124.773  34.551  0.00  0.00     0.004 A 
ATOM     42  C28 PB9 d   1     191.554 125.190  33.722  0.00  0.00    -0.066 A 
ATOM     43  H9  PB9 d   1     190.690 124.484  35.574  0.00  0.00     0.114 H 
ATOM     44  C29 PB9 d   1     191.269 125.449  32.359  0.00  0.00    -0.079 A 
ATOM     45  H10 PB9 d   1     192.556 125.306  34.118  0.00  0.00     0.085 H 
ATOM     46  C30 PB9 d   1     189.940 125.367  31.894  0.00  0.00    -0.042 A 
ATOM     47  H11 PB9 d   1     192.069 125.709  31.676  0.00  0.00     0.083 H 
ATOM     48  H12 PB9 d   1     189.706 125.538  30.850  0.00  0.00     0.088 H 
ENDBRANCH  36  39
ENDBRANCH  35  36
BRANCH  35  49
ATOM     49  C35 PB9 d   1     186.691 127.124  30.291  0.00  0.00     0.009 C 
ATOM     50  H13 PB9 d   1     187.508 126.683  29.701  0.00  0.00     0.066 H 
ATOM     51  H14 PB9 d   1     186.674 128.213  30.137  0.00  0.00     0.066 H 
BRANCH  49  52
ATOM     52  C36 PB9 d   1     185.394 126.574  29.742  0.00  0.00    -0.035 C 
ATOM     53  C39 PB9 d   1     184.110 127.195  30.345  0.00  0.00    -0.045 C 
ATOM     54  C40 PB9 d   1     182.841 126.760  29.575  0.00  0.00     0.000 C 
ATOM     55  H16 PB9 d   1     184.192 128.291  30.304  0.00  0.00     0.036 H 
ATOM     56  H17 PB9 d   1     184.018 126.873  31.393  0.00  0.00     0.036 H 
ATOM     57  N41 PB9 d   1     183.033 126.853  28.110  0.00  0.00    -0.328 N 
ATOM     58  H18 PB9 d   1     182.005 127.412  29.867  0.00  0.00     0.064 H 
ATOM     59  H19 PB9 d   1     182.603 125.719  29.838  0.00  0.00     0.064 H 
ATOM     60  C42 PB9 d   1     184.245 126.229  27.561  0.00  0.00     0.000 C 
ATOM     61  C53 PB9 d   1     182.153 127.502  27.283  0.00  0.00     0.362 C 
ATOM     62  C43 PB9 d   1     185.470 126.803  28.235  0.00  0.00    -0.045 C 
ATOM     63  H20 PB9 d   1     184.298 126.425  26.480  0.00  0.00     0.064 H 
ATOM     64  H21 PB9 d   1     184.208 125.144  27.736  0.00  0.00     0.064 H 
ATOM     65  H22 PB9 d   1     186.369 126.310  27.837  0.00  0.00     0.036 H 
ATOM     66  H23 PB9 d   1     185.524 127.883  28.033  0.00  0.00     0.036 H 
ATOM     67  O55 PB9 d   1     181.158 128.018  27.706  0.00  0.00    -0.238 OA
ATOM     68  H15 PB9 d   1     185.360 125.493  29.943  0.00  0.00     0.042 H 
BRANCH  61  69
ATOM     69  O54 PB9 d   1     182.479 127.538  25.986  0.00  0.00    -0.309 OA
BRANCH  69  70
ATOM     70  C56 PB9 d   1     181.440 127.742  25.030  0.00  0.00     0.015 C 
ATOM     71  H24 PB9 d   1     181.869 127.746  24.017  0.00  0.00     0.067 H 
ATOM     72  H25 PB9 d   1     180.948 128.707  25.223  0.00  0.00     0.067 H 
ATOM     73  H26 PB9 d   1     180.702 126.931  25.112  0.00  0.00     0.067 H 
ENDBRANCH  69  70
ENDBRANCH  61  69
ENDBRANCH  49  52
ENDBRANCH  35  49
ENDBRANCH   9  35
TORSDOF 10
