REMARK WARNING: 32 MAX_TORS EXCEEDED!!!
REMARK  40 active torsions:
REMARK  status: ('A' for Active; 'I' for Inactive)
REMARK    1  A    between atoms: N_1  and  CA_2 
REMARK    2  A    between atoms: CA_2  and  C_3 
REMARK    3  A    between atoms: CA_2  and  CB_5 
REMARK       I    between atoms: C_3  and  N_10 
REMARK    4  A    between atoms: CB_5  and  CG_6 
REMARK    5  A    between atoms: CG_6  and  CD_7 
REMARK    6  A    between atoms: CD_7  and  CE_8 
REMARK    7  A    between atoms: CE_8  and  NZ_9 
REMARK    8  A    between atoms: N_10  and  CA_11 
REMARK    9  A    between atoms: CA_11  and  C_12 
REMARK       I    between atoms: C_12  and  N_14 
REMARK   10  A    between atoms: N_14  and  CA_15 
REMARK   11  A    between atoms: CA_15  and  CB_16 
REMARK   12  A    between atoms: CA_15  and  C_17 
REMARK       I    between atoms: C_17  and  N_19 
REMARK   13  A    between atoms: N_19  and  CA_20 
REMARK   14  A    between atoms: CA_26  and  CB_29 
REMARK   15  A    between atoms: CB_29  and  CG_30 
REMARK   16  A    between atoms: CG_30  and  CD_31 
REMARK   17  A    between atoms: CA_35  and  CB_38 
REMARK   18  A    between atoms: CB_38  and  OG_39 
REMARK   19  A    between atoms: CA_48  and  CB_51 
REMARK   20  A    between atoms: CB_51  and  CG_52 
REMARK   21  A    between atoms: CG_52  and  CD_53 
REMARK   22  A    between atoms: CA_57  and  CB_58 
REMARK   23  A    between atoms: CB_58  and  CG_59 
REMARK   24  A    between atoms: CA_71  and  CB_74 
REMARK   25  A    between atoms: CB_74  and  CG_75 
REMARK   26  A    between atoms: CG_75  and  CD_76 
REMARK       I    between atoms: CD_76  and  NE2_78 
REMARK   27  A    between atoms: CA_80  and  CB_81 
REMARK   28  A    between atoms: CB_81  and  CG_82 
REMARK   29  A    between atoms: CA_94  and  CB_95 
REMARK   30  A    between atoms: CB_95  and  CG_96 
REMARK   31  A    between atoms: CG_96  and  CD1_97 
REMARK   32  A    between atoms: CG_96  and  CD2_98 
REMARK   33  A    between atoms: CA_102  and  C_103 
REMARK       I    between atoms: C_103  and  N_107 
REMARK   34  A    between atoms: N_107  and  CA_108 
REMARK   35  A    between atoms: CA_108  and  CB_109 
REMARK   36  A    between atoms: CA_108  and  C_110 
REMARK       I    between atoms: C_110  and  N_112 
REMARK   37  A    between atoms: N_112  and  CA_113 
REMARK   38  A    between atoms: CA_113  and  CB_114 
REMARK   39  A    between atoms: CA_113  and  C_115 
REMARK   40  A    between atoms: C_115  and  O_221 
ROOT
ATOM      1  CA  DCY d   1       8.470  14.240 -29.370  0.00  0.00     0.098 C 
ATOM      2  C   DCY d   1       8.891  15.310 -30.373  0.00  0.00     0.241 C 
ATOM      3  O   DCY d   1      10.063  15.680 -30.435  0.00  0.00    -0.271 OA
ATOM      4  CB  DCY d   1       8.513  14.752 -27.934  0.00  0.00     0.013 C 
ATOM      5  SG  DCY d   1       8.398  13.380 -26.733  0.00  0.00    -0.095 SA
ATOM      6  N   DCY d   1       9.138   8.648 -28.184  0.00  0.00    -0.345 N 
ATOM      7  CA  DCY d   1       9.355   9.739 -27.242  0.00  0.00     0.098 C 
ATOM      8  CB  DCY d   1       9.806  10.980 -28.002  0.00  0.00     0.013 C 
ATOM      9  SG  DCY d   1      10.179  12.414 -26.949  0.00  0.00    -0.095 SA
ATOM     10  H25 DCY d   1       9.223  13.443 -29.450  0.00  0.00     0.088 H 
ATOM     11  H26 DCY d   1       7.669  15.439 -27.774  0.00  0.00     0.053 H 
ATOM     12  H27 DCY d   1       9.459  15.289 -27.774  0.00  0.00     0.053 H 
ATOM     13  H91 DCY d   1       9.337   8.808 -29.151  0.00  0.00     0.163 HD
ATOM     14  H92 DCY d   1       8.414   9.958 -26.715  0.00  0.00     0.088 H 
ATOM     15  H93 DCY d   1       9.005  11.265 -28.700  0.00  0.00     0.053 H 
ATOM     16  H94 DCY d   1      10.713  10.725 -28.569  0.00  0.00     0.053 H 
ATOM     17  N   DGL d   1       7.943  15.725 -31.213  0.00  0.00    -0.346 N 
ATOM     18  CA  DGL d   1       8.165  16.740 -32.243  0.00  0.00     0.090 C 
ATOM     19  C   DGL d   1       8.147  16.158 -33.663  0.00  0.00     0.241 C 
ATOM     20  O   DGL d   1       8.518  16.836 -34.626  0.00  0.00    -0.271 OA
ATOM     21  N   DGL d   1       9.983  10.904 -37.190  0.00  0.00    -0.346 N 
ATOM     22  CA  DGL d   1       9.913   9.444 -37.335  0.00  0.00     0.090 C 
ATOM     23  C   DGL d   1       9.413   8.724 -36.076  0.00  0.00     0.241 C 
ATOM     24  O   DGL d   1       9.315   7.488 -36.051  0.00  0.00    -0.271 OA
ATOM     25  H28 DGL d   1       7.032  15.321 -31.135  0.00  0.00     0.163 HD
ATOM     26  H29 DGL d   1       9.163  17.172 -32.077  0.00  0.00     0.087 H 
ATOM     27  H46 DGL d   1       9.184  11.454 -37.434  0.00  0.00     0.163 HD
ATOM     28  H47 DGL d   1      10.935   9.088 -37.533  0.00  0.00     0.087 H 
ATOM     29  N   DSN d   1       7.738  14.893 -33.776  0.00  0.00    -0.344 N 
ATOM     30  CA  DSN d   1       7.672  14.187 -35.053  0.00  0.00     0.109 C 
ATOM     31  C   DSN d   1       8.987  13.419 -35.245  0.00  0.00     0.245 C 
ATOM     32  O   DSN d   1       9.331  12.575 -34.414  0.00  0.00    -0.271 OA
ATOM     33  H34 DSN d   1       7.464  14.405 -32.947  0.00  0.00     0.163 HD
ATOM     34  H35 DSN d   1       7.553  14.915 -35.869  0.00  0.00     0.090 H 
ATOM     35  N   DPR d   1       9.744  13.711 -36.334  0.00  0.00    -0.337 N 
ATOM     36  CA  DPR d   1      11.031  13.054 -36.634  0.00  0.00     0.091 C 
ATOM     37  CB  DPR d   1      11.479  13.737 -37.935  0.00  0.00    -0.036 C 
ATOM     38  CG  DPR d   1      10.191  14.241 -38.546  0.00  0.00    -0.048 C 
ATOM     39  CD  DPR d   1       9.450  14.747 -37.346  0.00  0.00    -0.001 C 
ATOM     40  C   DPR d   1      11.082  11.521 -36.742  0.00  0.00     0.241 C 
ATOM     41  O   DPR d   1      12.110  10.914 -36.399  0.00  0.00    -0.271 OA
ATOM     42  H39 DPR d   1      11.733  13.321 -35.830  0.00  0.00     0.087 H 
ATOM     43  H40 DPR d   1      11.974  13.018 -38.604  0.00  0.00     0.036 H 
ATOM     44  H41 DPR d   1      12.164  14.571 -37.723  0.00  0.00     0.036 H 
ATOM     45  H42 DPR d   1       9.640  13.428 -39.042  0.00  0.00     0.035 H 
ATOM     46  H43 DPR d   1      10.381  15.049 -39.268  0.00  0.00     0.035 H 
ATOM     47  H44 DPR d   1       9.828  15.731 -37.030  0.00  0.00     0.064 H 
ATOM     48  H45 DPR d   1       8.370  14.815 -37.544  0.00  0.00     0.064 H 
ATOM     49  N   DTR d   1       9.133   9.498 -35.027  0.00  0.00    -0.346 N 
ATOM     50  CA  DTR d   1       8.620   8.952 -33.767  0.00  0.00     0.093 C 
ATOM     51  C   DTR d   1       9.480   9.249 -32.534  0.00  0.00     0.241 C 
ATOM     52  O   DTR d   1       9.015   9.112 -31.398  0.00  0.00    -0.271 OA
ATOM     53  N   DTR d   1      11.854   7.523 -31.243  0.00  0.00    -0.346 N 
ATOM     54  CA  DTR d   1      12.082   6.299 -30.477  0.00  0.00     0.093 C 
ATOM     55  C   DTR d   1      10.961   6.094 -29.443  0.00  0.00     0.241 C 
ATOM     56  O   DTR d   1      11.190   5.521 -28.375  0.00  0.00    -0.271 OA
ATOM     57  H52 DTR d   1       9.278  10.485 -35.102  0.00  0.00     0.163 HD
ATOM     58  H53 DTR d   1       8.586   7.858 -33.881  0.00  0.00     0.088 H 
ATOM     59  H70 DTR d   1      11.572   7.438 -32.199  0.00  0.00     0.163 HD
ATOM     60  H71 DTR d   1      13.033   6.404 -29.933  0.00  0.00     0.088 H 
ATOM     61  N   DGN d   1      10.750   9.584 -32.762  0.00  0.00    -0.346 N 
ATOM     62  CA  DGN d   1      11.687   9.909 -31.680  0.00  0.00     0.090 C 
ATOM     63  C   DGN d   1      12.002   8.749 -30.735  0.00  0.00     0.241 C 
ATOM     64  O   DGN d   1      12.306   8.969 -29.561  0.00  0.00    -0.271 OA
ATOM     65  H62 DGN d   1      11.077   9.615 -33.707  0.00  0.00     0.163 HD
ATOM     66  H63 DGN d   1      11.205  10.687 -31.070  0.00  0.00     0.087 H 
ATOM     67  N   DLE d   1       9.748   6.532 -29.802  0.00  0.00    -0.346 N 
ATOM     68  CA  DLE d   1       8.567   6.427 -28.937  0.00  0.00     0.089 C 
ATOM     69  C   DLE d   1       8.688   7.448 -27.821  0.00  0.00     0.241 C 
ATOM     70  O   DLE d   1       8.418   7.139 -26.661  0.00  0.00    -0.271 OA
ATOM     71  H80 DLE d   1       9.641   6.951 -30.704  0.00  0.00     0.163 HD
ATOM     72  H81 DLE d   1       8.528   5.416 -28.506  0.00  0.00     0.087 H 
ENDROOT
BRANCH   1  73
ATOM     73  N   DCY d   1       7.181  13.610 -29.620  0.00  0.00    -0.345 N 
ATOM     74  C   DAL d   1       6.966  12.783 -30.640  0.00  0.00     0.240 C 
ATOM     75  O   DAL d   1       7.805  12.536 -31.515  0.00  0.00    -0.271 OA
ATOM     76  H24 DCY d   1       6.424  13.808 -28.997  0.00  0.00     0.163 HD
BRANCH  74  77
ATOM     77  CA  DAL d   1       5.559  12.215 -30.736  0.00  0.00     0.086 C 
ATOM     78  H20 DAL d   1       5.418  11.884 -31.775  0.00  0.00     0.086 H 
BRANCH  77  79
ATOM     79  N   DAL d   1       4.489  13.184 -30.448  0.00  0.00    -0.347 N 
ATOM     80  C   GLY d   1       4.329  14.329 -31.122  0.00  0.00     0.236 C 
ATOM     81  O   GLY d   1       5.057  14.667 -32.060  0.00  0.00    -0.272 OA
ATOM     82  H19 DAL d   1       3.848  12.976 -29.710  0.00  0.00     0.163 HD
BRANCH  80  83
ATOM     83  CA  GLY d   1       3.156  15.222 -30.694  0.00  0.00     0.069 C 
ATOM     84  H17 GLY d   1       2.221  14.652 -30.799  0.00  0.00     0.078 H 
ATOM     85  H18 GLY d   1       3.295  15.507 -29.641  0.00  0.00     0.078 H 
BRANCH  83  86
ATOM     86  N   GLY d   1       3.059  16.439 -31.502  0.00  0.00    -0.351 N 
ATOM     87  C   DLY d   1       2.527  16.478 -32.724  0.00  0.00     0.248 C 
ATOM     88  O   DLY d   1       2.100  15.482 -33.313  0.00  0.00    -0.271 OA
ATOM     89  H16 GLY d   1       3.412  17.291 -31.115  0.00  0.00     0.163 HD
BRANCH  87  90
ATOM     90  CA  DLY d   1       2.518  17.851 -33.398  0.00  0.00     0.176 C 
ATOM     91  H4  DLY d   1       2.736  18.600 -32.623  0.00  0.00     0.099 H 
BRANCH  90  92
ATOM     92  N   DLY d   1       1.194  18.204 -33.998  0.00  0.00    -0.067 N 
ATOM     93  H1  DLY d   1       1.251  19.115 -34.425  0.00  0.00     0.275 HD
ATOM     94  H2  DLY d   1       0.490  18.215 -33.276  0.00  0.00     0.275 HD
ATOM     95  H3  DLY d   1       0.949  17.520 -34.697  0.00  0.00     0.275 HD
ENDBRANCH  90  92
BRANCH  90  96
ATOM     96  CB  DLY d   1       3.631  17.927 -34.454  0.00  0.00    -0.030 C 
ATOM     97  H5  DLY d   1       3.268  17.442 -35.372  0.00  0.00     0.036 H 
ATOM     98  H6  DLY d   1       4.506  17.380 -34.072  0.00  0.00     0.036 H 
BRANCH  96  99
ATOM     99  CG  DLY d   1       4.071  19.343 -34.806  0.00  0.00    -0.061 C 
ATOM    100  H7  DLY d   1       4.229  19.911 -33.877  0.00  0.00     0.033 H 
ATOM    101  H8  DLY d   1       3.283  19.826 -35.402  0.00  0.00     0.033 H 
BRANCH  99 102
ATOM    102  CD  DLY d   1       5.364  19.335 -35.608  0.00  0.00    -0.043 C 
ATOM    103  H9  DLY d   1       5.179  18.856 -36.581  0.00  0.00     0.035 H 
ATOM    104  H10 DLY d   1       6.124  18.762 -35.056  0.00  0.00     0.035 H 
BRANCH 102 105
ATOM    105  CE  DLY d   1       5.884  20.752 -35.843  0.00  0.00     0.080 C 
ATOM    106  H11 DLY d   1       6.024  21.243 -34.869  0.00  0.00     0.075 H 
ATOM    107  H12 DLY d   1       5.139  21.309 -36.431  0.00  0.00     0.075 H 
BRANCH 105 108
ATOM    108  NZ  DLY d   1       7.186  20.768 -36.580  0.00  0.00    -0.079 N 
ATOM    109  H13 DLY d   1       7.487  21.721 -36.710  0.00  0.00     0.274 HD
ATOM    110  H14 DLY d   1       7.069  20.327 -37.479  0.00  0.00     0.274 HD
ATOM    111  H15 DLY d   1       7.880  20.267 -36.047  0.00  0.00     0.274 HD
ENDBRANCH 105 108
ENDBRANCH 102 105
ENDBRANCH  99 102
ENDBRANCH  96  99
ENDBRANCH  90  96
ENDBRANCH  87  90
ENDBRANCH  83  86
ENDBRANCH  80  83
ENDBRANCH  77  79
BRANCH  77 112
ATOM    112  CB  DAL d   1       5.425  10.990 -29.836  0.00  0.00    -0.049 C 
ATOM    113  H21 DAL d   1       6.231  10.277 -30.064  0.00  0.00     0.030 H 
ATOM    114  H22 DAL d   1       4.451  10.510 -30.012  0.00  0.00     0.030 H 
ATOM    115  H23 DAL d   1       5.496  11.299 -28.783  0.00  0.00     0.030 H 
ENDBRANCH  77 112
ENDBRANCH  74  77
ENDBRANCH   1  73
BRANCH  18 116
ATOM    116  CB  DGL d   1       7.131  17.863 -32.092  0.00  0.00    -0.029 C 
ATOM    117  H30 DGL d   1       6.145  17.409 -31.915  0.00  0.00     0.037 H 
ATOM    118  H31 DGL d   1       7.106  18.443 -33.026  0.00  0.00     0.037 H 
BRANCH 116 119
ATOM    119  CG  DGL d   1       7.443  18.815 -30.936  0.00  0.00     0.018 C 
ATOM    120  H32 DGL d   1       7.985  19.684 -31.337  0.00  0.00     0.049 H 
ATOM    121  H33 DGL d   1       8.081  18.287 -30.212  0.00  0.00     0.049 H 
BRANCH 119 122
ATOM    122  CD  DGL d   1       6.204  19.313 -30.212  0.00  0.00     0.172 C 
ATOM    123  OE1 DGL d   1       5.541  18.499 -29.523  0.00  0.00    -0.648 OA
ATOM    124  OE2 DGL d   1       5.907  20.525 -30.311  0.00  0.00    -0.648 OA
ENDBRANCH 119 122
ENDBRANCH 116 119
ENDBRANCH  18 116
BRANCH   7 125
ATOM    125  C   DCY d   1      10.422   9.331 -26.219  0.00  0.00     0.241 C 
ATOM    126  O   DCY d   1      10.312   9.657 -25.040  0.00  0.00    -0.271 OA
ATOM    127  N   DAL d   1      11.406   8.555 -26.682  0.00  0.00    -0.346 N 
ATOM    128  H95 DAL d   1      11.395   8.304 -27.650  0.00  0.00     0.163 HD
BRANCH 127 129
ATOM    129  CA  DAL d   1      12.499   8.052 -25.849  0.00  0.00     0.086 C 
ATOM    130  H96 DAL d   1      12.874   8.887 -25.239  0.00  0.00     0.086 H 
BRANCH 129 131
ATOM    131  CB  DAL d   1      13.626   7.551 -26.727  0.00  0.00    -0.049 C 
ATOM    132  H97 DAL d   1      14.444   7.175 -26.095  0.00  0.00     0.030 H 
ATOM    133  H98 DAL d   1      13.997   8.375 -27.354  0.00  0.00     0.030 H 
ATOM    134  H99 DAL d   1      13.256   6.739 -27.370  0.00  0.00     0.030 H 
ENDBRANCH 129 131
BRANCH 129 135
ATOM    135  C   DAL d   1      12.048   6.937 -24.900  0.00  0.00     0.240 C 
ATOM    136  O   DAL d   1      12.528   6.849 -23.764  0.00  0.00    -0.271 OA
ATOM    137  N   DAL d   1      11.109   6.111 -25.369  0.00  0.00    -0.345 N 
ATOM    138 0H10 DAL d   1      10.754   6.270 -26.290  0.00  0.00     0.163 HD
BRANCH 137 139
ATOM    139  CA  DAL d   1      10.574   4.987 -24.605  0.00  0.00     0.090 C 
ATOM    140 1H10 DAL d   1      11.420   4.451 -24.150  0.00  0.00     0.088 H 
BRANCH 139 141
ATOM    141  CB  DAL d   1       9.847   4.034 -25.531  0.00  0.00    -0.048 C 
ATOM    142 2H10 DAL d   1       9.447   3.191 -24.949  0.00  0.00     0.030 H 
ATOM    143 3H10 DAL d   1      10.547   3.656 -26.291  0.00  0.00     0.030 H 
ATOM    144 4H10 DAL d   1       9.019   4.563 -26.026  0.00  0.00     0.030 H 
ENDBRANCH 139 141
BRANCH 139 145
ATOM    145  C   DAL d   1       9.651   5.446 -23.482  0.00  0.00     0.163 C 
ATOM    146  O   DAL d   1       9.469   4.743 -22.487  0.00  0.00    -0.648 OA
BRANCH 145 147
ATOM    147  O   NH2 d   1       9.034   6.620 -23.578  0.00  0.00    -0.775 OA
ATOM    148 5H10 NH2 d   1       9.294   7.173 -22.850  0.00  0.00     0.167 HD
ENDBRANCH 145 147
ENDBRANCH 139 145
ENDBRANCH 137 139
ENDBRANCH 129 135
ENDBRANCH 127 129
ENDBRANCH   7 125
BRANCH  30 149
ATOM    149  CB  DSN d   1       6.479  13.235 -35.059  0.00  0.00     0.044 C 
ATOM    150  H36 DSN d   1       6.627  12.467 -34.285  0.00  0.00     0.077 H 
ATOM    151  H37 DSN d   1       6.408  12.753 -36.045  0.00  0.00     0.077 H 
BRANCH 149 152
ATOM    152  OG  DSN d   1       5.275  13.932 -34.796  0.00  0.00    -0.398 OA
ATOM    153  H38 DSN d   1       5.331  14.347 -33.944  0.00  0.00     0.209 HD
ENDBRANCH 149 152
ENDBRANCH  30 149
BRANCH  68 154
ATOM    154  CB  DLE d   1       7.271   6.684 -29.719  0.00  0.00    -0.035 C 
ATOM    155  H82 DLE d   1       7.535   6.628 -30.785  0.00  0.00     0.037 H 
ATOM    156  H83 DLE d   1       6.957   7.709 -29.473  0.00  0.00     0.037 H 
BRANCH 154 157
ATOM    157  CG  DLE d   1       6.031   5.792 -29.530  0.00  0.00    -0.059 C 
ATOM    158  H84 DLE d   1       6.110   4.964 -30.249  0.00  0.00     0.038 H 
BRANCH 157 159
ATOM    159  CD1 DLE d   1       5.910   5.169 -28.161  0.00  0.00    -0.073 C 
ATOM    160  H85 DLE d   1       5.000   4.552 -28.118  0.00  0.00     0.028 H 
ATOM    161  H86 DLE d   1       5.852   5.962 -27.401  0.00  0.00     0.028 H 
ATOM    162  H87 DLE d   1       6.790   4.538 -27.966  0.00  0.00     0.028 H 
ENDBRANCH 157 159
BRANCH 157 163
ATOM    163  CD2 DLE d   1       4.809   6.595 -29.881  0.00  0.00    -0.073 C 
ATOM    164  H88 DLE d   1       4.933   7.033 -30.883  0.00  0.00     0.028 H 
ATOM    165  H89 DLE d   1       4.675   7.400 -29.143  0.00  0.00     0.028 H 
ATOM    166  H90 DLE d   1       3.925   5.940 -29.874  0.00  0.00     0.028 H 
ENDBRANCH 157 163
ENDBRANCH 154 157
ENDBRANCH  68 154
BRANCH  54 167
ATOM    167  CB  DTR d   1      12.203   5.085 -31.429  0.00  0.00    -0.012 C 
ATOM    168  H72 DTR d   1      12.379   4.186 -30.820  0.00  0.00     0.044 H 
ATOM    169  H73 DTR d   1      13.064   5.253 -32.092  0.00  0.00     0.044 H 
BRANCH 167 170
ATOM    170  CG  DTR d   1      10.977   4.839 -32.295  0.00  0.00    -0.028 A 
ATOM    171  CD1 DTR d   1      10.697   5.417 -33.506  0.00  0.00    -0.015 A 
ATOM    172  NE1 DTR d   1       9.432   5.068 -33.921  0.00  0.00    -0.365 N 
ATOM    173  H74 DTR d   1      11.378   6.061 -34.061  0.00  0.00     0.112 H 
ATOM    174  CE2 DTR d   1       8.868   4.236 -32.989  0.00  0.00     0.042 A 
ATOM    175  H75 DTR d   1       8.981   5.382 -34.792  0.00  0.00     0.165 HD
ATOM    176  CZ2 DTR d   1       7.592   3.624 -32.962  0.00  0.00    -0.056 A 
ATOM    177  CD2 DTR d   1       9.818   4.059 -31.948  0.00  0.00    -0.002 A 
ATOM    178  CH2 DTR d   1       7.279   2.826 -31.874  0.00  0.00    -0.081 A 
ATOM    179  H76 DTR d   1       6.882   3.775 -33.767  0.00  0.00     0.086 H 
ATOM    180  CZ3 DTR d   1       8.205   2.621 -30.816  0.00  0.00    -0.082 A 
ATOM    181  H77 DTR d   1       6.307   2.348 -31.829  0.00  0.00     0.083 H 
ATOM    182  CE3 DTR d   1       9.482   3.233 -30.848  0.00  0.00    -0.070 A 
ATOM    183  H78 DTR d   1       7.932   1.991 -29.977  0.00  0.00     0.083 H 
ATOM    184  H79 DTR d   1      10.191   3.072 -30.044  0.00  0.00     0.084 H 
ENDBRANCH 167 170
ENDBRANCH  54 167
BRANCH  22 185
ATOM    185  CB  DGL d   1       9.034   9.058 -38.538  0.00  0.00    -0.029 C 
ATOM    186  H48 DGL d   1       8.047   9.524 -38.397  0.00  0.00     0.037 H 
ATOM    187  H49 DGL d   1       8.926   7.963 -38.538  0.00  0.00     0.037 H 
BRANCH 185 188
ATOM    188  CG  DGL d   1       9.562   9.481 -39.927  0.00  0.00     0.018 C 
ATOM    189  H50 DGL d   1       9.926  10.516 -39.854  0.00  0.00     0.049 H 
ATOM    190  H51 DGL d   1       8.725   9.436 -40.639  0.00  0.00     0.049 H 
BRANCH 188 191
ATOM    191  CD  DGL d   1      10.697   8.616 -40.473  0.00  0.00     0.172 C 
ATOM    192  OE1 DGL d   1      11.114   7.638 -39.814  0.00  0.00    -0.648 OA
ATOM    193  OE2 DGL d   1      11.179   8.923 -41.582  0.00  0.00    -0.648 OA
ENDBRANCH 188 191
ENDBRANCH 185 188
ENDBRANCH  22 185
BRANCH  62 194
ATOM    194  CB  DGN d   1      12.972  10.507 -32.252  0.00  0.00    -0.030 C 
ATOM    195  H64 DGN d   1      13.396   9.789 -32.969  0.00  0.00     0.037 H 
ATOM    196  H65 DGN d   1      13.679  10.659 -31.423  0.00  0.00     0.037 H 
BRANCH 194 197
ATOM    197  CG  DGN d   1      12.783  11.846 -32.971  0.00  0.00     0.011 C 
ATOM    198  H66 DGN d   1      12.025  11.716 -33.758  0.00  0.00     0.047 H 
ATOM    199  H67 DGN d   1      13.741  12.134 -33.429  0.00  0.00     0.047 H 
BRANCH 197 200
ATOM    200  CD  DGN d   1      12.332  12.968 -32.048  0.00  0.00     0.215 C 
ATOM    201  OE1 DGN d   1      13.076  13.401 -31.172  0.00  0.00    -0.274 OA
ATOM    202  NE2 DGN d   1      11.109  13.443 -32.248  0.00  0.00    -0.370 N 
ATOM    203  H68 DGN d   1      10.759  14.181 -31.671  0.00  0.00     0.159 HD
ATOM    204  H69 DGN d   1      10.538  13.063 -32.975  0.00  0.00     0.159 HD
ENDBRANCH 197 200
ENDBRANCH 194 197
ENDBRANCH  62 194
BRANCH  50 205
ATOM    205  CB  DTR d   1       7.187   9.451 -33.527  0.00  0.00    -0.012 C 
ATOM    206  H54 DTR d   1       7.196  10.550 -33.577  0.00  0.00     0.044 H 
ATOM    207  H55 DTR d   1       6.879   9.132 -32.520  0.00  0.00     0.044 H 
BRANCH 205 208
ATOM    208  CG  DTR d   1       6.155   8.943 -34.518  0.00  0.00    -0.028 A 
ATOM    209  CD1 DTR d   1       5.673   9.605 -35.614  0.00  0.00    -0.015 A 
ATOM    210  NE1 DTR d   1       4.695   8.861 -36.229  0.00  0.00    -0.365 N 
ATOM    211  H56 DTR d   1       6.016  10.582 -35.951  0.00  0.00     0.112 H 
ATOM    212  CE2 DTR d   1       4.527   7.692 -35.550  0.00  0.00     0.042 A 
ATOM    213  H57 DTR d   1       4.172   9.143 -37.070  0.00  0.00     0.165 HD
ATOM    214  CZ2 DTR d   1       3.648   6.602 -35.794  0.00  0.00    -0.056 A 
ATOM    215  CD2 DTR d   1       5.442   7.697 -34.453  0.00  0.00    -0.002 A 
ATOM    216  CH2 DTR d   1       3.692   5.525 -34.927  0.00  0.00    -0.081 A 
ATOM    217  H58 DTR d   1       2.963   6.614 -36.635  0.00  0.00     0.086 H 
ATOM    218  CZ3 DTR d   1       4.594   5.501 -33.822  0.00  0.00    -0.082 A 
ATOM    219  H59 DTR d   1       3.029   4.683 -35.090  0.00  0.00     0.083 H 
ATOM    220  CE3 DTR d   1       5.475   6.594 -33.579  0.00  0.00    -0.070 A 
ATOM    221  H60 DTR d   1       4.609   4.642 -33.160  0.00  0.00     0.083 H 
ATOM    222  H61 DTR d   1       6.158   6.577 -32.737  0.00  0.00     0.084 H 
ENDBRANCH 205 208
ENDBRANCH  50 205
TORSDOF 40
