REMARK  4 active torsions:
REMARK  status: ('A' for Active; 'I' for Inactive)
REMARK    1  A    between atoms: C07_7  and  C11_11 
REMARK    2  A    between atoms: C09_9  and  N10_10 
REMARK    3  A    between atoms: N10_10  and  C12_12 
REMARK    4  A    between atoms: C12_12  and  C13_13 
ROOT
ATOM      1  C01 SC8 d   1      -0.543  31.288   8.050  0.00  0.00    -0.018 A 
ATOM      2  C02 SC8 d   1       0.022  30.020   8.379  0.00  0.00     0.155 A 
ATOM      3  N03 SC8 d   1       1.275  29.983   7.651  0.00  0.00    -0.200 N 
ATOM      4  N04 SC8 d   1       1.475  31.112   6.918  0.00  0.00    -0.177 NA
ATOM      5  C05 SC8 d   1       0.414  31.919   7.188  0.00  0.00     0.026 A 
ATOM      6  N06 SC8 d   1      -0.414  28.993   9.166  0.00  0.00    -0.228 NA
ATOM      7  C07 SC8 d   1       0.385  27.927   9.236  0.00  0.00     0.074 A 
ATOM      8  C08 SC8 d   1       1.669  27.832   8.588  0.00  0.00    -0.010 A 
ATOM      9  C09 SC8 d   1       2.109  28.899   7.778  0.00  0.00     0.129 A 
ATOM     10  H1  SC8 d   1      -1.498  31.691   8.383  0.00  0.00     0.091 H 
ATOM     11  H2  SC8 d   1       0.304  32.928   6.795  0.00  0.00     0.117 H 
ATOM     12  H3  SC8 d   1       2.291  26.948   8.722  0.00  0.00     0.093 H 
ENDROOT
BRANCH   9  13
ATOM     13  N10 SC8 d   1       3.324  28.941   7.136  0.00  0.00    -0.370 N 
ATOM     14  H4  SC8 d   1       3.504  29.625   6.388  0.00  0.00     0.161 HD
BRANCH  13  15
ATOM     15  C12 SC8 d   1       4.345  27.996   7.541  0.00  0.00     0.018 C 
ATOM     16  H5  SC8 d   1       4.087  27.599   8.534  0.00  0.00     0.071 H 
ATOM     17  H6  SC8 d   1       5.311  28.520   7.596  0.00  0.00     0.071 H 
BRANCH  15  18
ATOM     18  C13 SC8 d   1       4.469  26.860   6.588  0.00  0.00    -0.038 A 
ATOM     19  C14 SC8 d   1       4.376  25.544   7.044  0.00  0.00    -0.058 A 
ATOM     20  C15 SC8 d   1       4.481  24.502   6.100  0.00  0.00     0.002 A 
ATOM     21  H7  SC8 d   1       4.227  25.329   8.096  0.00  0.00     0.086 H 
ATOM     22  N16 SC8 d   1       4.646  24.711   4.781  0.00  0.00    -0.273 NA
ATOM     23  H8  SC8 d   1       4.426  23.479   6.455  0.00  0.00     0.114 H 
ATOM     24  C17 SC8 d   1       4.757  25.995   4.360  0.00  0.00     0.002 A 
ATOM     25  C18 SC8 d   1       4.654  27.098   5.227  0.00  0.00    -0.058 A 
ATOM     26  H9  SC8 d   1       4.933  26.180   3.307  0.00  0.00     0.114 H 
ATOM     27  H10 SC8 d   1       4.717  28.111   4.845  0.00  0.00     0.086 H 
ENDBRANCH  15  18
ENDBRANCH  13  15
ENDBRANCH   9  13
BRANCH   7  28
ATOM     28  C11 SC8 d   1      -0.033  26.845  10.161  0.00  0.00     0.016 A 
ATOM     29  C19 SC8 d   1      -0.280  27.201  11.494  0.00  0.00    -0.069 A 
ATOM     30  C20 SC8 d   1      -0.730  26.258  12.402  0.00  0.00    -0.080 A 
ATOM     31  H11 SC8 d   1      -0.117  28.223  11.816  0.00  0.00     0.085 H 
ATOM     32  C21 SC8 d   1      -0.908  24.943  12.001  0.00  0.00    -0.060 A 
ATOM     33  H12 SC8 d   1      -0.943  26.547  13.425  0.00  0.00     0.083 H 
ATOM     34  C22 SC8 d   1      -0.671  24.583  10.674  0.00  0.00     0.056 A 
ATOM     35  H13 SC8 d   1      -1.231  24.196  12.717  0.00  0.00     0.086 H 
ATOM     36  C23 SC8 d   1      -0.237  25.521   9.747  0.00  0.00     0.068 A 
ATOM     37 CL25 SC8 d   1      -0.948  22.979  10.206  0.00  0.00    -0.083 Cl
ATOM     38 CL24 SC8 d   1       0.040  25.055   8.162  0.00  0.00    -0.082 Cl
ENDBRANCH   7  28
TORSDOF 4
