REMARK  4 active torsions:
REMARK  status: ('A' for Active; 'I' for Inactive)
REMARK    1  A    between atoms: C07_7  and  C18_18 
REMARK    2  A    between atoms: C09_9  and  N10_10 
REMARK    3  A    between atoms: N10_10  and  C11_11 
REMARK    4  A    between atoms: C11_11  and  C12_12 
ROOT
ATOM      1  C01 SC9 d   1       4.751  27.260   5.353  0.00  0.00     0.001 A 
ATOM      2  N02 SC9 d   1       3.776  27.423   6.315  0.00  0.00    -0.312 N 
ATOM      3  C03 SC9 d   1       3.945  26.455   7.238  0.00  0.00     0.158 A 
ATOM      4  N04 SC9 d   1       4.981  25.652   6.920  0.00  0.00    -0.347 N 
ATOM      5  C05 SC9 d   1       5.477  26.165   5.768  0.00  0.00    -0.006 A 
ATOM      6  C06 SC9 d   1       2.733  28.284   6.395  0.00  0.00     0.015 A 
ATOM      7  C07 SC9 d   1       1.874  28.238   7.488  0.00  0.00     0.088 A 
ATOM      8  N08 SC9 d   1       2.048  27.265   8.451  0.00  0.00    -0.226 NA
ATOM      9  C09 SC9 d   1       3.030  26.389   8.366  0.00  0.00     0.169 A 
ATOM     10  H1  SC9 d   1       4.912  27.864   4.461  0.00  0.00     0.114 H 
ATOM     11  H2  SC9 d   1       5.321  24.829   7.439  0.00  0.00     0.167 HD
ATOM     12  H3  SC9 d   1       6.339  25.763   5.238  0.00  0.00     0.113 H 
ATOM     13  H4  SC9 d   1       2.568  29.009   5.606  0.00  0.00     0.116 H 
ENDROOT
BRANCH   9  14
ATOM     14  N10 SC9 d   1       3.253  25.402   9.284  0.00  0.00    -0.367 N 
ATOM     15  H5  SC9 d   1       3.964  24.671   9.140  0.00  0.00     0.161 HD
BRANCH  14  16
ATOM     16  C11 SC9 d   1       2.415  25.450  10.487  0.00  0.00     0.019 C 
ATOM     17  H6  SC9 d   1       2.097  26.487  10.672  0.00  0.00     0.071 H 
ATOM     18  H7  SC9 d   1       2.990  25.083  11.350  0.00  0.00     0.071 H 
BRANCH  16  19
ATOM     19  C12 SC9 d   1       1.210  24.586  10.284  0.00  0.00    -0.023 A 
ATOM     20  C13 SC9 d   1       1.330  23.192  10.136  0.00  0.00    -0.072 A 
ATOM     21  C14 SC9 d   1       0.168  22.429   9.936  0.00  0.00    -0.065 A 
ATOM     22  H8  SC9 d   1       2.303  22.715  10.176  0.00  0.00     0.084 H 
ATOM     23  C15 SC9 d   1      -1.064  23.091   9.877  0.00  0.00     0.002 A 
ATOM     24  H9  SC9 d   1       0.224  21.352   9.830  0.00  0.00     0.085 H 
ATOM     25  N16 SC9 d   1      -1.201  24.429  10.034  0.00  0.00    -0.273 NA
ATOM     26  H10 SC9 d   1      -1.956  22.501   9.696  0.00  0.00     0.114 H 
ATOM     27  C17 SC9 d   1      -0.080  25.136  10.226  0.00  0.00     0.009 A 
ATOM     28  H11 SC9 d   1      -0.176  26.209  10.345  0.00  0.00     0.115 H 
ENDBRANCH  16  19
ENDBRANCH  14  16
ENDBRANCH   9  14
BRANCH   7  29
ATOM     29  C18 SC9 d   1       0.783  29.231   7.752  0.00  0.00     0.033 A 
ATOM     30  C19 SC9 d   1       0.687  30.527   7.136  0.00  0.00     0.129 A 
ATOM     31  C20 SC9 d   1      -0.316  31.422   7.513  0.00  0.00    -0.045 A 
ATOM     32  F24 SC9 d   1       1.502  30.925   6.182  0.00  0.00    -0.205 F 
ATOM     33  C21 SC9 d   1      -1.228  31.094   8.524  0.00  0.00    -0.080 A 
ATOM     34  H12 SC9 d   1      -0.390  32.383   7.017  0.00  0.00     0.088 H 
ATOM     35  C22 SC9 d   1      -1.156  29.835   9.129  0.00  0.00    -0.082 A 
ATOM     36  H13 SC9 d   1      -1.982  31.808   8.834  0.00  0.00     0.083 H 
ATOM     37  C23 SC9 d   1      -0.147  28.927   8.760  0.00  0.00    -0.068 A 
ATOM     38  H14 SC9 d   1      -1.881  29.558   9.886  0.00  0.00     0.083 H 
ATOM     39  H15 SC9 d   1      -0.086  27.970   9.265  0.00  0.00     0.085 H 
ENDBRANCH   7  29
TORSDOF 4
