REMARK  4 active torsions:
REMARK  status: ('A' for Active; 'I' for Inactive)
REMARK    1  A    between atoms: C01_1  and  C18_18 
REMARK    2  A    between atoms: C09_9  and  N10_10 
REMARK    3  A    between atoms: N10_10  and  C11_11 
REMARK    4  A    between atoms: C11_11  and  C12_12 
ROOT
ATOM      1  C01 SCE d   1      -0.228  30.483   7.841  0.00  0.00     0.032 A 
ATOM      2  N02 SCE d   1       0.450  29.265   8.011  0.00  0.00    -0.305 N 
ATOM      3  C03 SCE d   1       1.689  29.366   7.299  0.00  0.00     0.180 A 
ATOM      4  N04 SCE d   1       1.792  30.586   6.662  0.00  0.00    -0.237 NA
ATOM      5  C05 SCE d   1       0.642  31.299   7.040  0.00  0.00     0.026 A 
ATOM      6  C06 SCE d   1       0.148  28.108   8.712  0.00  0.00     0.004 A 
ATOM      7  C07 SCE d   1       1.066  27.060   8.686  0.00  0.00     0.020 A 
ATOM      8  N08 SCE d   1       2.267  27.076   8.028  0.00  0.00    -0.239 NA
ATOM      9  C09 SCE d   1       2.602  28.201   7.341  0.00  0.00     0.170 A 
ATOM     10  H1  SCE d   1       0.437  32.332   6.763  0.00  0.00     0.117 H 
ATOM     11  H2  SCE d   1      -0.783  28.020   9.269  0.00  0.00     0.114 H 
ATOM     12  H3  SCE d   1       0.807  26.155   9.233  0.00  0.00     0.117 H 
ENDROOT
BRANCH   9  13
ATOM     13  N10 SCE d   1       3.790  28.303   6.645  0.00  0.00    -0.367 N 
ATOM     14  H4  SCE d   1       3.953  29.109   6.024  0.00  0.00     0.161 HD
BRANCH  13  15
ATOM     15  C11 SCE d   1       4.813  27.276   6.785  0.00  0.00     0.018 C 
ATOM     16  H5  SCE d   1       4.601  26.695   7.694  0.00  0.00     0.071 H 
ATOM     17  H6  SCE d   1       5.791  27.770   6.885  0.00  0.00     0.071 H 
BRANCH  15  18
ATOM     18  C12 SCE d   1       4.874  26.327   5.615  0.00  0.00    -0.038 A 
ATOM     19  C13 SCE d   1       4.703  24.946   5.813  0.00  0.00    -0.058 A 
ATOM     20  C14 SCE d   1       4.765  24.092   4.693  0.00  0.00     0.002 A 
ATOM     21  H7  SCE d   1       4.527  24.546   6.805  0.00  0.00     0.086 H 
ATOM     22  N15 SCE d   1       4.992  24.533   3.430  0.00  0.00    -0.273 NA
ATOM     23  H8  SCE d   1       4.624  23.029   4.849  0.00  0.00     0.114 H 
ATOM     24  C16 SCE d   1       5.153  25.861   3.261  0.00  0.00     0.002 A 
ATOM     25  C17 SCE d   1       5.098  26.791   4.318  0.00  0.00    -0.058 A 
ATOM     26  H9  SCE d   1       5.334  26.233   2.259  0.00  0.00     0.114 H 
ATOM     27  H10 SCE d   1       5.228  27.850   4.127  0.00  0.00     0.086 H 
ENDBRANCH  15  18
ENDBRANCH  13  15
ENDBRANCH   9  13
BRANCH   1  28
ATOM     28  C18 SCE d   1      -1.546  30.798   8.413  0.00  0.00    -0.036 C 
ATOM     29  H11 SCE d   1      -1.838  31.818   8.122  0.00  0.00     0.035 H 
ATOM     30  H12 SCE d   1      -1.496  30.730   9.510  0.00  0.00     0.035 H 
ATOM     31  H13 SCE d   1      -2.290  30.082   8.035  0.00  0.00     0.035 H 
ENDBRANCH   1  28
TORSDOF 4
