REMARK  4 active torsions:
REMARK  status: ('A' for Active; 'I' for Inactive)
REMARK    1  A    between atoms: C07_7  and  C11_11 
REMARK    2  A    between atoms: C09_9  and  N10_10 
REMARK    3  A    between atoms: N10_10  and  C12_12 
REMARK    4  A    between atoms: C12_12  and  C13_13 
ROOT
ATOM      1  C01 SCF d   1      -0.454  31.525   8.094  0.00  0.00    -0.018 A 
ATOM      2  C02 SCF d   1       0.087  30.250   8.284  0.00  0.00     0.155 A 
ATOM      3  N03 SCF d   1       1.226  30.196   7.470  0.00  0.00    -0.200 N 
ATOM      4  N04 SCF d   1       1.458  31.363   6.836  0.00  0.00    -0.177 NA
ATOM      5  C05 SCF d   1       0.451  32.178   7.215  0.00  0.00     0.026 A 
ATOM      6  N06 SCF d   1      -0.328  29.205   9.017  0.00  0.00    -0.228 NA
ATOM      7  C07 SCF d   1       0.450  28.134   8.983  0.00  0.00     0.076 A 
ATOM      8  C08 SCF d   1       1.666  28.051   8.254  0.00  0.00    -0.010 A 
ATOM      9  C09 SCF d   1       2.047  29.124   7.495  0.00  0.00     0.129 A 
ATOM     10  H1  SCF d   1      -1.369  31.929   8.525  0.00  0.00     0.091 H 
ATOM     11  H2  SCF d   1       0.345  33.211   6.887  0.00  0.00     0.117 H 
ATOM     12  H3  SCF d   1       2.281  27.154   8.298  0.00  0.00     0.093 H 
ENDROOT
BRANCH   9  13
ATOM     13  N10 SCF d   1       3.198  29.227   6.796  0.00  0.00    -0.370 N 
ATOM     14  H4  SCF d   1       3.254  29.857   5.983  0.00  0.00     0.161 HD
BRANCH  13  15
ATOM     15  C12 SCF d   1       4.353  28.450   7.193  0.00  0.00     0.018 C 
ATOM     16  H5  SCF d   1       4.181  28.038   8.198  0.00  0.00     0.071 H 
ATOM     17  H6  SCF d   1       5.237  29.104   7.211  0.00  0.00     0.071 H 
BRANCH  15  18
ATOM     18  C13 SCF d   1       4.595  27.337   6.250  0.00  0.00    -0.038 A 
ATOM     19  C14 SCF d   1       4.514  26.019   6.690  0.00  0.00    -0.058 A 
ATOM     20  C15 SCF d   1       4.757  24.986   5.755  0.00  0.00     0.002 A 
ATOM     21  H7  SCF d   1       4.271  25.790   7.721  0.00  0.00     0.086 H 
ATOM     22  N16 SCF d   1       5.031  25.219   4.451  0.00  0.00    -0.273 NA
ATOM     23  H8  SCF d   1       4.722  23.959   6.100  0.00  0.00     0.114 H 
ATOM     24  C17 SCF d   1       5.099  26.509   4.050  0.00  0.00     0.002 A 
ATOM     25  C18 SCF d   1       4.855  27.594   4.910  0.00  0.00    -0.058 A 
ATOM     26  H9  SCF d   1       5.354  26.716   3.017  0.00  0.00     0.114 H 
ATOM     27  H10 SCF d   1       4.870  28.611   4.535  0.00  0.00     0.086 H 
ENDBRANCH  15  18
ENDBRANCH  13  15
ENDBRANCH   9  13
BRANCH   7  28
ATOM     28  C11 SCF d   1       0.070  26.987   9.814  0.00  0.00     0.031 A 
ATOM     29  C19 SCF d   1       0.021  25.689   9.261  0.00  0.00    -0.068 A 
ATOM     30  C20 SCF d   1      -0.366  24.580  10.023  0.00  0.00    -0.082 A 
ATOM     31  H11 SCF d   1       0.290  25.547   8.220  0.00  0.00     0.085 H 
ATOM     32  C21 SCF d   1      -0.701  24.762  11.362  0.00  0.00    -0.080 A 
ATOM     33  H12 SCF d   1      -0.404  23.593   9.576  0.00  0.00     0.083 H 
ATOM     34  C22 SCF d   1      -0.632  26.024  11.953  0.00  0.00    -0.045 A 
ATOM     35  H13 SCF d   1      -1.020  23.912  11.954  0.00  0.00     0.083 H 
ATOM     36  C23 SCF d   1      -0.270  27.160  11.182  0.00  0.00     0.129 A 
ATOM     37  H14 SCF d   1      -0.856  26.138  13.007  0.00  0.00     0.088 H 
ATOM     38  F24 SCF d   1      -0.226  28.405  11.813  0.00  0.00    -0.205 F 
ENDBRANCH   7  28
TORSDOF 4
