REMARK  4 active torsions:
REMARK  status: ('A' for Active; 'I' for Inactive)
REMARK    1  A    between atoms: C07_7  and  C11_11 
REMARK    2  A    between atoms: C09_9  and  N10_10 
REMARK    3  A    between atoms: N10_10  and  C12_12 
REMARK    4  A    between atoms: C12_12  and  C13_13 
ROOT
ATOM      1  C01 SCJ d   1      -0.265  32.071   8.540  0.00  0.00     0.078 A 
ATOM      2  C02 SCJ d   1       0.289  30.853   8.853  0.00  0.00     0.172 A 
ATOM      3  N03 SCJ d   1       1.449  30.773   8.142  0.00  0.00    -0.198 N 
ATOM      4  N04 SCJ d   1       1.655  31.917   7.386  0.00  0.00    -0.175 NA
ATOM      5  C05 SCJ d   1       0.619  32.702   7.657  0.00  0.00     0.043 A 
ATOM      6  N06 SCJ d   1      -0.196  29.879   9.696  0.00  0.00    -0.227 NA
ATOM      7  C07 SCJ d   1       0.533  28.787   9.801  0.00  0.00     0.073 A 
ATOM      8  C08 SCJ d   1       1.758  28.650   9.078  0.00  0.00    -0.010 A 
ATOM      9  C09 SCJ d   1       2.242  29.658   8.247  0.00  0.00     0.129 A 
ATOM     10 BR24 SCJ d   1      -1.840  32.767   9.215  0.00  0.00    -0.045 Br
ATOM     11  H1  SCJ d   1       0.476  33.701   7.248  0.00  0.00     0.119 H 
ATOM     12  H2  SCJ d   1       2.331  27.729   9.180  0.00  0.00     0.093 H 
ENDROOT
BRANCH   9  13
ATOM     13  N10 SCJ d   1       3.408  29.634   7.507  0.00  0.00    -0.370 N 
ATOM     14  H3  SCJ d   1       3.536  30.287   6.720  0.00  0.00     0.161 HD
BRANCH  13  15
ATOM     15  C12 SCJ d   1       4.470  28.668   7.850  0.00  0.00     0.019 C 
ATOM     16  H4  SCJ d   1       4.201  28.136   8.775  0.00  0.00     0.071 H 
ATOM     17  H5  SCJ d   1       5.421  29.201   7.997  0.00  0.00     0.071 H 
BRANCH  15  18
ATOM     18  C13 SCJ d   1       4.613  27.679   6.720  0.00  0.00    -0.023 A 
ATOM     19  C14 SCJ d   1       4.585  26.291   6.930  0.00  0.00     0.009 A 
ATOM     20  N15 SCJ d   1       4.705  25.375   5.961  0.00  0.00    -0.273 NA
ATOM     21  H6  SCJ d   1       4.457  25.937   7.947  0.00  0.00     0.115 H 
ATOM     22  C16 SCJ d   1       4.867  25.829   4.714  0.00  0.00     0.002 A 
ATOM     23  C17 SCJ d   1       4.928  27.182   4.392  0.00  0.00    -0.065 A 
ATOM     24  H7  SCJ d   1       4.955  25.106   3.912  0.00  0.00     0.114 H 
ATOM     25  C18 SCJ d   1       4.786  28.119   5.411  0.00  0.00    -0.072 A 
ATOM     26  H8  SCJ d   1       5.083  27.500   3.367  0.00  0.00     0.085 H 
ATOM     27  H9  SCJ d   1       4.810  29.180   5.188  0.00  0.00     0.084 H 
ENDBRANCH  15  18
ENDBRANCH  13  15
ENDBRANCH   9  13
BRANCH   7  28
ATOM     28  C11 SCJ d   1       0.048  27.729  10.698  0.00  0.00    -0.007 A 
ATOM     29  C19 SCJ d   1      -0.494  28.058  11.946  0.00  0.00    -0.071 A 
ATOM     30  C20 SCJ d   1      -0.957  27.061  12.822  0.00  0.00    -0.082 A 
ATOM     31  H10 SCJ d   1      -0.558  29.099  12.242  0.00  0.00     0.084 H 
ATOM     32  C21 SCJ d   1      -0.864  25.721  12.464  0.00  0.00    -0.083 A 
ATOM     33  H11 SCJ d   1      -1.387  27.337  13.778  0.00  0.00     0.083 H 
ATOM     34  C22 SCJ d   1      -0.300  25.373  11.232  0.00  0.00    -0.082 A 
ATOM     35  H12 SCJ d   1      -1.226  24.951  13.135  0.00  0.00     0.083 H 
ATOM     36  C23 SCJ d   1       0.148  26.368  10.358  0.00  0.00    -0.071 A 
ATOM     37  H13 SCJ d   1      -0.210  24.329  10.954  0.00  0.00     0.083 H 
ATOM     38  H14 SCJ d   1       0.579  26.086   9.404  0.00  0.00     0.084 H 
ENDBRANCH   7  28
TORSDOF 4
