REMARK  4 active torsions:
REMARK  status: ('A' for Active; 'I' for Inactive)
REMARK    1  A    between atoms: C07_7  and  C11_11 
REMARK    2  A    between atoms: C09_9  and  N10_10 
REMARK    3  A    between atoms: N10_10  and  C12_12 
REMARK    4  A    between atoms: C12_12  and  C13_13 
ROOT
ATOM      1  C01 SCQ d   1      -0.382  31.780   8.664  0.00  0.00     0.059 A 
ATOM      2  C02 SCQ d   1       0.167  30.559   8.971  0.00  0.00     0.080 A 
ATOM      3  N03 SCQ d   1       1.380  30.511   8.351  0.00  0.00    -0.217 N 
ATOM      4  N04 SCQ d   1       1.612  31.687   7.648  0.00  0.00    -0.177 NA
ATOM      5  C05 SCQ d   1       0.538  32.447   7.847  0.00  0.00     0.041 A 
ATOM      6  C06 SCQ d   1      -0.324  29.472   9.770  0.00  0.00    -0.043 A 
ATOM      7  C07 SCQ d   1       0.465  28.366   9.891  0.00  0.00    -0.020 A 
ATOM      8  C08 SCQ d   1       1.741  28.337   9.226  0.00  0.00    -0.028 A 
ATOM      9  C09 SCQ d   1       2.199  29.413   8.456  0.00  0.00     0.126 A 
ATOM     10 BR24 SCQ d   1      -2.021  32.397   9.223  0.00  0.00    -0.047 Br
ATOM     11  H1  SCQ d   1       0.395  33.444   7.434  0.00  0.00     0.119 H 
ATOM     12  H2  SCQ d   1      -1.294  29.529  10.263  0.00  0.00     0.088 H 
ATOM     13  H3  SCQ d   1       2.369  27.453   9.325  0.00  0.00     0.090 H 
ENDROOT
BRANCH   9  14
ATOM     14  N10 SCQ d   1       3.413  29.461   7.803  0.00  0.00    -0.370 N 
ATOM     15  H4  SCQ d   1       3.583  30.165   7.070  0.00  0.00     0.161 HD
BRANCH  14  16
ATOM     16  C12 SCQ d   1       4.453  28.503   8.163  0.00  0.00     0.020 C 
ATOM     17  H5  SCQ d   1       4.202  28.015   9.116  0.00  0.00     0.071 H 
ATOM     18  H6  SCQ d   1       5.421  29.016   8.257  0.00  0.00     0.071 H 
BRANCH  16  19
ATOM     19  C13 SCQ d   1       4.516  27.491   7.073  0.00  0.00    -0.005 A 
ATOM     20  C14 SCQ d   1       4.715  27.844   5.734  0.00  0.00     0.013 A 
ATOM     21  N15 SCQ d   1       4.744  26.945   4.750  0.00  0.00    -0.254 NA
ATOM     22  H7  SCQ d   1       4.851  28.891   5.487  0.00  0.00     0.115 H 
ATOM     23  C16 SCQ d   1       4.565  25.671   5.121  0.00  0.00     0.085 A 
ATOM     24  N17 SCQ d   1       4.335  25.206   6.362  0.00  0.00    -0.254 NA
ATOM     25  H8  SCQ d   1       4.611  24.930   4.331  0.00  0.00     0.146 H 
ATOM     26  C18 SCQ d   1       4.321  26.130   7.330  0.00  0.00     0.013 A 
ATOM     27  H9  SCQ d   1       4.152  25.811   8.352  0.00  0.00     0.115 H 
ENDBRANCH  16  19
ENDBRANCH  14  16
ENDBRANCH   9  14
BRANCH   7  28
ATOM     28  C11 SCQ d   1       0.027  27.192  10.696  0.00  0.00    -0.026 A 
ATOM     29  C19 SCQ d   1      -0.102  27.275  12.094  0.00  0.00    -0.072 A 
ATOM     30  C20 SCQ d   1      -0.526  26.162  12.835  0.00  0.00    -0.082 A 
ATOM     31  H10 SCQ d   1       0.128  28.205  12.602  0.00  0.00     0.084 H 
ATOM     32  C21 SCQ d   1      -0.822  24.962  12.187  0.00  0.00    -0.083 A 
ATOM     33  H11 SCQ d   1      -0.624  26.234  13.912  0.00  0.00     0.083 H 
ATOM     34  C22 SCQ d   1      -0.696  24.876  10.798  0.00  0.00    -0.082 A 
ATOM     35  H12 SCQ d   1      -1.148  24.101  12.758  0.00  0.00     0.083 H 
ATOM     36  C23 SCQ d   1      -0.278  25.988  10.061  0.00  0.00    -0.072 A 
ATOM     37  H13 SCQ d   1      -0.923  23.945  10.291  0.00  0.00     0.083 H 
ATOM     38  H14 SCQ d   1      -0.190  25.914   8.983  0.00  0.00     0.084 H 
ENDBRANCH   7  28
TORSDOF 4
