REMARK  4 active torsions:
REMARK  status: ('A' for Active; 'I' for Inactive)
REMARK    1  A    between atoms: C07_7  and  C11_11 
REMARK    2  A    between atoms: C09_9  and  N10_10 
REMARK    3  A    between atoms: N10_10  and  C12_12 
REMARK    4  A    between atoms: C12_12  and  C13_13 
ROOT
ATOM      1  C01 SCW d   1      -0.238  32.484   8.990  0.00  0.00     0.105 A 
ATOM      2  N02 SCW d   1       0.329  31.283   9.231  0.00  0.00    -0.297 N 
ATOM      3  C03 SCW d   1       1.483  31.231   8.510  0.00  0.00     0.161 A 
ATOM      4  N04 SCW d   1       1.686  32.376   7.796  0.00  0.00    -0.238 NA
ATOM      5  C05 SCW d   1       0.614  33.162   8.110  0.00  0.00     0.038 A 
ATOM      6  C06 SCW d   1      -0.105  30.227  10.032  0.00  0.00    -0.002 A 
ATOM      7  C07 SCW d   1       0.645  29.081  10.110  0.00  0.00    -0.008 A 
ATOM      8  C08 SCW d   1       1.858  28.992   9.370  0.00  0.00    -0.042 A 
ATOM      9  C09 SCW d   1       2.306  30.046   8.566  0.00  0.00     0.076 A 
ATOM     10 BR24 SCW d   1      -1.838  33.093   9.698  0.00  0.00    -0.029 Br
ATOM     11  H1  SCW d   1       0.447  34.169   7.731  0.00  0.00     0.119 H 
ATOM     12  H2  SCW d   1      -1.035  30.312  10.593  0.00  0.00     0.113 H 
ATOM     13  H3  SCW d   1       2.452  28.081   9.431  0.00  0.00     0.088 H 
ENDROOT
BRANCH   9  14
ATOM     14  N10 SCW d   1       3.478  30.076   7.863  0.00  0.00    -0.382 N 
ATOM     15  H4  SCW d   1       3.632  30.773   7.120  0.00  0.00     0.160 HD
BRANCH  14  16
ATOM     16  C12 SCW d   1       4.517  29.081   8.198  0.00  0.00     0.019 C 
ATOM     17  H5  SCW d   1       4.277  28.610   9.163  0.00  0.00     0.071 H 
ATOM     18  H6  SCW d   1       5.495  29.580   8.266  0.00  0.00     0.071 H 
BRANCH  16  19
ATOM     19  C13 SCW d   1       4.563  28.033   7.128  0.00  0.00    -0.005 A 
ATOM     20  C14 SCW d   1       4.406  26.662   7.406  0.00  0.00     0.013 A 
ATOM     21  N15 SCW d   1       4.441  25.723   6.439  0.00  0.00    -0.254 NA
ATOM     22  H7  SCW d   1       4.252  26.351   8.433  0.00  0.00     0.115 H 
ATOM     23  C16 SCW d   1       4.671  26.182   5.189  0.00  0.00     0.085 A 
ATOM     24  N17 SCW d   1       4.842  27.455   4.809  0.00  0.00    -0.254 NA
ATOM     25  H8  SCW d   1       4.723  25.435   4.405  0.00  0.00     0.146 H 
ATOM     26  C18 SCW d   1       4.784  28.368   5.785  0.00  0.00     0.013 A 
ATOM     27  H9  SCW d   1       4.914  29.413   5.526  0.00  0.00     0.115 H 
ENDBRANCH  16  19
ENDBRANCH  14  16
ENDBRANCH   9  14
BRANCH   7  28
ATOM     28  C11 SCW d   1       0.228  27.980  11.017  0.00  0.00    -0.025 A 
ATOM     29  C19 SCW d   1      -0.374  28.270  12.251  0.00  0.00    -0.072 A 
ATOM     30  C20 SCW d   1      -0.754  27.236  13.121  0.00  0.00    -0.082 A 
ATOM     31  H10 SCW d   1      -0.547  29.302  12.535  0.00  0.00     0.084 H 
ATOM     32  C21 SCW d   1      -0.509  25.908  12.780  0.00  0.00    -0.083 A 
ATOM     33  H11 SCW d   1      -1.240  27.472  14.061  0.00  0.00     0.083 H 
ATOM     34  C22 SCW d   1       0.119  25.605  11.563  0.00  0.00    -0.082 A 
ATOM     35  H12 SCW d   1      -0.803  25.111  13.453  0.00  0.00     0.083 H 
ATOM     36  C23 SCW d   1       0.485  26.634  10.688  0.00  0.00    -0.072 A 
ATOM     37  H13 SCW d   1       0.321  24.573  11.300  0.00  0.00     0.083 H 
ATOM     38  H14 SCW d   1       0.970  26.394   9.749  0.00  0.00     0.084 H 
ENDBRANCH   7  28
TORSDOF 4
