REMARK  7 active torsions:
REMARK  status: ('A' for Active; 'I' for Inactive)
REMARK    1  A    between atoms: C01_1  and  C24_24 
REMARK    2  A    between atoms: C07_7  and  C11_11 
REMARK    3  A    between atoms: C09_9  and  N10_10 
REMARK    4  A    between atoms: N10_10  and  C12_12 
REMARK    5  A    between atoms: C12_12  and  C13_13 
REMARK    6  A    between atoms: C16_16  and  N25_25 
REMARK    7  A    between atoms: C24_24  and  C26_26 
ROOT
ATOM      1  C01 SCX d   1      -0.675  31.157   8.222  0.00  0.00     0.009 A 
ATOM      2  C02 SCX d   1      -0.109  29.957   8.607  0.00  0.00     0.161 A 
ATOM      3  N03 SCX d   1       1.127  29.880   7.975  0.00  0.00    -0.199 N 
ATOM      4  N04 SCX d   1       1.377  30.991   7.194  0.00  0.00    -0.176 NA
ATOM      5  C05 SCX d   1       0.294  31.754   7.365  0.00  0.00     0.032 A 
ATOM      6  N06 SCX d   1      -0.564  28.969   9.452  0.00  0.00    -0.228 NA
ATOM      7  C07 SCX d   1       0.211  27.949   9.625  0.00  0.00     0.079 A 
ATOM      8  C08 SCX d   1       1.552  27.778   8.991  0.00  0.00    -0.010 A 
ATOM      9  C09 SCX d   1       1.996  28.782   8.199  0.00  0.00     0.129 A 
ATOM     10  H1  SCX d   1       0.165  32.730   6.899  0.00  0.00     0.118 H 
ATOM     11  H2  SCX d   1       2.148  26.882   9.159  0.00  0.00     0.093 H 
ENDROOT
BRANCH   9  12
ATOM     12  N10 SCX d   1       3.240  28.830   7.586  0.00  0.00    -0.370 N 
ATOM     13  H3  SCX d   1       3.322  29.501   6.809  0.00  0.00     0.161 HD
BRANCH  12  14
ATOM     14  C12 SCX d   1       4.441  28.074   7.879  0.00  0.00     0.020 C 
ATOM     15  H4  SCX d   1       4.415  27.750   8.930  0.00  0.00     0.071 H 
ATOM     16  H5  SCX d   1       5.319  28.715   7.714  0.00  0.00     0.071 H 
BRANCH  14  17
ATOM     17  C13 SCX d   1       4.540  26.880   7.005  0.00  0.00    -0.004 A 
ATOM     18  C14 SCX d   1       4.503  25.606   7.517  0.00  0.00     0.030 A 
ATOM     19  N15 SCX d   1       4.557  24.496   6.758  0.00  0.00    -0.075 NA
ATOM     20  H6  SCX d   1       4.426  25.488   8.592  0.00  0.00     0.116 H 
ATOM     21  C16 SCX d   1       4.632  24.684   5.428  0.00  0.00     0.719 A 
ATOM     22  N17 SCX d   1       4.671  25.880   4.819  0.00  0.00    -0.075 NA
ATOM     23  C18 SCX d   1       4.606  26.953   5.618  0.00  0.00     0.030 A 
ATOM     24  H7  SCX d   1       4.605  27.934   5.157  0.00  0.00     0.116 H 
BRANCH  21  25
ATOM     25  N25 SCX d   1       4.668  23.582   4.642  0.00  0.00    -0.231 N 
ATOM     26  H13 SCX d   1       4.640  22.645   5.068  0.00  0.00     0.174 HD
ATOM     27  H14 SCX d   1       4.723  23.681   3.618  0.00  0.00     0.174 HD
ENDBRANCH  21  25
ENDBRANCH  14  17
ENDBRANCH  12  14
ENDBRANCH   9  12
BRANCH   7  28
ATOM     28  C11 SCX d   1      -0.218  26.867  10.541  0.00  0.00     0.070 A 
ATOM     29  C19 SCX d   1      -0.336  27.144  11.900  0.00  0.00     0.132 A 
ATOM     30  C20 SCX d   1      -0.756  26.169  12.810  0.00  0.00    -0.045 A 
ATOM     31  F27 SCX d   1      -0.079  28.354  12.372  0.00  0.00    -0.205 F 
ATOM     32  C21 SCX d   1      -1.038  24.876  12.364  0.00  0.00    -0.077 A 
ATOM     33  H8  SCX d   1      -0.863  26.416  13.860  0.00  0.00     0.088 H 
ATOM     34  C22 SCX d   1      -0.913  24.577  11.008  0.00  0.00    -0.045 A 
ATOM     35  H9  SCX d   1      -1.351  24.112  13.066  0.00  0.00     0.083 H 
ATOM     36  C23 SCX d   1      -0.511  25.575  10.105  0.00  0.00     0.132 A 
ATOM     37  H10 SCX d   1      -1.126  23.576  10.651  0.00  0.00     0.088 H 
ATOM     38  F28 SCX d   1      -0.414  25.242   8.807  0.00  0.00    -0.205 F 
ENDBRANCH   7  28
BRANCH   1  39
ATOM     39  C24 SCX d   1      -1.994  31.700   8.633  0.00  0.00    -0.039 C 
ATOM     40  H11 SCX d   1      -2.165  32.650   8.105  0.00  0.00     0.039 H 
ATOM     41  H12 SCX d   1      -1.979  31.881   9.718  0.00  0.00     0.039 H 
BRANCH  39  42
ATOM     42  C26 SCX d   1      -3.135  30.752   8.312  0.00  0.00    -0.072 C 
ATOM     43  H15 SCX d   1      -4.086  31.200   8.635  0.00  0.00     0.028 H 
ATOM     44  H16 SCX d   1      -2.980  29.800   8.840  0.00  0.00     0.028 H 
ATOM     45  H17 SCX d   1      -3.166  30.569   7.228  0.00  0.00     0.028 H 
ENDBRANCH  39  42
ENDBRANCH   1  39
TORSDOF 7
