REMARK  5 active torsions:
REMARK  status: ('A' for Active; 'I' for Inactive)
REMARK    1  A    between atoms: C01_1  and  C24_24 
REMARK    2  A    between atoms: C07_7  and  C11_11 
REMARK    3  A    between atoms: C09_9  and  N10_10 
REMARK    4  A    between atoms: N10_10  and  C12_12 
REMARK    5  A    between atoms: C12_12  and  C13_13 
ROOT
ATOM      1  C01 SCZ d   1      -0.170  30.525   8.271  0.00  0.00     0.013 A 
ATOM      2  C02 SCZ d   1       0.529  29.348   8.507  0.00  0.00     0.161 A 
ATOM      3  N03 SCZ d   1       1.720  29.475   7.782  0.00  0.00    -0.199 N 
ATOM      4  N04 SCZ d   1       1.776  30.671   7.087  0.00  0.00    -0.176 NA
ATOM      5  C05 SCZ d   1       0.643  31.291   7.417  0.00  0.00     0.032 A 
ATOM      6  N06 SCZ d   1       0.267  28.214   9.225  0.00  0.00    -0.228 NA
ATOM      7  C07 SCZ d   1       1.205  27.261   9.209  0.00  0.00     0.073 A 
ATOM      8  C08 SCZ d   1       2.465  27.318   8.468  0.00  0.00    -0.010 A 
ATOM      9  C09 SCZ d   1       2.700  28.455   7.778  0.00  0.00     0.129 A 
ATOM     10  H1  SCZ d   1       0.375  32.285   7.063  0.00  0.00     0.118 H 
ATOM     11  H2  SCZ d   1       3.173  26.491   8.473  0.00  0.00     0.093 H 
ENDROOT
BRANCH   9  12
ATOM     12  N10 SCZ d   1       3.818  28.698   7.051  0.00  0.00    -0.370 N 
ATOM     13  H3  SCZ d   1       3.757  29.494   6.401  0.00  0.00     0.161 HD
BRANCH  12  14
ATOM     14  C12 SCZ d   1       5.088  27.997   7.058  0.00  0.00     0.019 C 
ATOM     15  H4  SCZ d   1       5.273  27.615   8.073  0.00  0.00     0.071 H 
ATOM     16  H5  SCZ d   1       5.882  28.707   6.783  0.00  0.00     0.071 H 
BRANCH  14  17
ATOM     17  C13 SCZ d   1       5.123  26.841   6.096  0.00  0.00    -0.023 A 
ATOM     18  C14 SCZ d   1       5.107  27.066   4.733  0.00  0.00     0.009 A 
ATOM     19  N15 SCZ d   1       5.178  26.077   3.797  0.00  0.00    -0.273 NA
ATOM     20  H6  SCZ d   1       5.034  28.091   4.387  0.00  0.00     0.115 H 
ATOM     21  C16 SCZ d   1       5.254  24.812   4.258  0.00  0.00     0.002 A 
ATOM     22  C17 SCZ d   1       5.249  24.480   5.603  0.00  0.00    -0.065 A 
ATOM     23  H7  SCZ d   1       5.323  24.008   3.534  0.00  0.00     0.114 H 
ATOM     24  C18 SCZ d   1       5.179  25.512   6.536  0.00  0.00    -0.072 A 
ATOM     25  H8  SCZ d   1       5.298  23.445   5.921  0.00  0.00     0.085 H 
ATOM     26  H9  SCZ d   1       5.168  25.288   7.597  0.00  0.00     0.084 H 
ENDBRANCH  14  17
ENDBRANCH  12  14
ENDBRANCH   9  12
BRANCH   7  27
ATOM     27  C11 SCZ d   1       0.973  26.006   9.970  0.00  0.00    -0.007 A 
ATOM     28  C19 SCZ d   1      -0.318  25.713  10.391  0.00  0.00    -0.071 A 
ATOM     29  C20 SCZ d   1      -0.589  24.544  11.108  0.00  0.00    -0.082 A 
ATOM     30  H10 SCZ d   1      -1.125  26.399  10.161  0.00  0.00     0.084 H 
ATOM     31  C21 SCZ d   1       0.448  23.680  11.445  0.00  0.00    -0.083 A 
ATOM     32  H11 SCZ d   1      -1.606  24.311  11.401  0.00  0.00     0.083 H 
ATOM     33  C22 SCZ d   1       1.757  23.969  11.029  0.00  0.00    -0.082 A 
ATOM     34  H12 SCZ d   1       0.246  22.788  12.026  0.00  0.00     0.083 H 
ATOM     35  C23 SCZ d   1       2.021  25.133  10.288  0.00  0.00    -0.071 A 
ATOM     36  H13 SCZ d   1       2.566  23.293  11.280  0.00  0.00     0.083 H 
ATOM     37  H14 SCZ d   1       3.031  25.355   9.964  0.00  0.00     0.084 H 
ENDBRANCH   7  27
BRANCH   1  38
ATOM     38  C24 SCZ d   1      -1.531  30.966   8.755  0.00  0.00    -0.023 A 
ATOM     39  C25 SCZ d   1      -2.524  29.957   9.242  0.00  0.00    -0.057 A 
ATOM     40  C26 SCZ d   1      -1.888  30.927  10.216  0.00  0.00    -0.057 A 
ATOM     41  H16 SCZ d   1      -2.255  28.891   9.273  0.00  0.00     0.034 H 
ATOM     42  H17 SCZ d   1      -3.587  30.060   8.978  0.00  0.00     0.034 H 
ATOM     43  H18 SCZ d   1      -2.487  31.736  10.659  0.00  0.00     0.034 H 
ATOM     44  H19 SCZ d   1      -1.155  30.567  10.953  0.00  0.00     0.034 H 
ATOM     45  H15 SCZ d   1      -1.873  31.811   8.139  0.00  0.00     0.047 H 
ENDBRANCH   1  38
TORSDOF 5
