REMARK  6 active torsions:
REMARK  status: ('A' for Active; 'I' for Inactive)
REMARK    1  A    between atoms: C01_1  and  C24_24 
REMARK    2  A    between atoms: C07_7  and  C11_11 
REMARK    3  A    between atoms: C09_9  and  N10_10 
REMARK    4  A    between atoms: N10_10  and  C12_12 
REMARK    5  A    between atoms: C12_12  and  C13_13 
REMARK    6  A    between atoms: C24_24  and  O25_25 
ROOT
ATOM      1  C01 2SC d   1      -0.054  30.216   7.749  0.00  0.00     0.032 A 
ATOM      2  C02 2SC d   1       0.602  28.995   7.895  0.00  0.00     0.163 A 
ATOM      3  N03 2SC d   1       1.778  29.084   7.177  0.00  0.00    -0.199 N 
ATOM      4  N04 2SC d   1       1.917  30.315   6.584  0.00  0.00    -0.176 NA
ATOM      5  C05 2SC d   1       0.822  30.985   6.958  0.00  0.00     0.034 A 
ATOM      6  N06 2SC d   1       0.248  27.856   8.587  0.00  0.00    -0.228 NA
ATOM      7  C07 2SC d   1       1.098  26.852   8.528  0.00  0.00     0.073 A 
ATOM      8  C08 2SC d   1       2.378  26.869   7.773  0.00  0.00    -0.010 A 
ATOM      9  C09 2SC d   1       2.695  28.004   7.119  0.00  0.00     0.129 A 
ATOM     10  H1  2SC d   1       0.627  32.020   6.679  0.00  0.00     0.118 H 
ATOM     11  H2  2SC d   1       3.033  26.000   7.749  0.00  0.00     0.093 H 
ENDROOT
BRANCH   9  12
ATOM     12  N10 2SC d   1       3.844  28.205   6.385  0.00  0.00    -0.370 N 
ATOM     13  H3  2SC d   1       3.807  28.978   5.705  0.00  0.00     0.161 HD
BRANCH  12  14
ATOM     14  C12 2SC d   1       5.090  27.483   6.437  0.00  0.00     0.019 C 
ATOM     15  H4  2SC d   1       5.185  27.009   7.425  0.00  0.00     0.071 H 
ATOM     16  H5  2SC d   1       5.918  28.192   6.289  0.00  0.00     0.071 H 
BRANCH  14  17
ATOM     17  C13 2SC d   1       5.165  26.426   5.385  0.00  0.00    -0.023 A 
ATOM     18  C14 2SC d   1       5.421  26.771   4.064  0.00  0.00     0.009 A 
ATOM     19  N15 2SC d   1       5.531  25.879   3.049  0.00  0.00    -0.273 NA
ATOM     20  H6  2SC d   1       5.541  27.823   3.829  0.00  0.00     0.115 H 
ATOM     21  C16 2SC d   1       5.349  24.576   3.365  0.00  0.00     0.002 A 
ATOM     22  C17 2SC d   1       5.069  24.130   4.654  0.00  0.00    -0.065 A 
ATOM     23  H7  2SC d   1       5.425  23.840   2.573  0.00  0.00     0.114 H 
ATOM     24  C18 2SC d   1       5.000  25.071   5.670  0.00  0.00    -0.072 A 
ATOM     25  H8  2SC d   1       4.910  23.077   4.857  0.00  0.00     0.085 H 
ATOM     26  H9  2SC d   1       4.817  24.752   6.690  0.00  0.00     0.084 H 
ENDBRANCH  14  17
ENDBRANCH  12  14
ENDBRANCH   9  12
BRANCH   7  27
ATOM     27  C11 2SC d   1       0.804  25.588   9.279  0.00  0.00    -0.007 A 
ATOM     28  C19 2SC d   1      -0.529  25.259   9.536  0.00  0.00    -0.071 A 
ATOM     29  C20 2SC d   1      -0.838  24.087  10.248  0.00  0.00    -0.082 A 
ATOM     30  H10 2SC d   1      -1.325  25.907   9.187  0.00  0.00     0.084 H 
ATOM     31  C21 2SC d   1       0.186  23.252  10.707  0.00  0.00    -0.083 A 
ATOM     32  H11 2SC d   1      -1.873  23.830  10.442  0.00  0.00     0.083 H 
ATOM     33  C22 2SC d   1       1.525  23.576  10.451  0.00  0.00    -0.082 A 
ATOM     34  H12 2SC d   1      -0.057  22.353  11.262  0.00  0.00     0.083 H 
ATOM     35  C23 2SC d   1       1.835  24.747   9.738  0.00  0.00    -0.071 A 
ATOM     36  H13 2SC d   1       2.319  22.926  10.801  0.00  0.00     0.083 H 
ATOM     37  H14 2SC d   1       2.870  25.003   9.541  0.00  0.00     0.084 H 
ENDBRANCH   7  27
BRANCH   1  38
ATOM     38  C24 2SC d   1      -1.383  30.608   8.292  0.00  0.00     0.045 C 
ATOM     39  H15 2SC d   1      -2.087  29.779   8.130  0.00  0.00     0.081 H 
ATOM     40  H16 2SC d   1      -1.735  31.499   7.751  0.00  0.00     0.081 H 
BRANCH  38  41
ATOM     41  O25 2SC d   1      -1.346  30.908   9.687  0.00  0.00    -0.396 OA
ATOM     42  H17 2SC d   1      -2.216  31.151   9.981  0.00  0.00     0.209 HD
ENDBRANCH  38  41
ENDBRANCH   1  38
TORSDOF 6
