REMARK  5 active torsions:
REMARK  status: ('A' for Active; 'I' for Inactive)
REMARK    1  A    between atoms: C01_1  and  S24_24 
REMARK    2  A    between atoms: C07_7  and  C11_11 
REMARK    3  A    between atoms: C09_9  and  N10_10 
REMARK    4  A    between atoms: N10_10  and  C12_12 
REMARK    5  A    between atoms: C12_12  and  C13_13 
ROOT
ATOM      1  S24 3SC d   1      -2.160  31.724   8.502  0.00  0.00    -0.020 SA
ATOM      2  C25 3SC d   1      -2.843  30.317   9.215  0.00  0.00     0.059 C 
ATOM      3  N26 3SC d   1      -3.278  29.317   9.717  0.00  0.00    -0.088 N 
ENDROOT
BRANCH   1   4
ATOM      4  C01 3SC d   1      -0.581  31.127   8.039  0.00  0.00     0.081 A 
ATOM      5  C02 3SC d   1      -0.002  29.929   8.368  0.00  0.00     0.172 A 
ATOM      6  N03 3SC d   1       1.254  29.924   7.752  0.00  0.00    -0.198 N 
ATOM      7  N06 3SC d   1      -0.457  28.883   9.112  0.00  0.00    -0.227 NA
ATOM      8  N04 3SC d   1       1.492  31.093   7.048  0.00  0.00    -0.175 NA
ATOM      9  C09 3SC d   1       2.118  28.834   7.912  0.00  0.00     0.129 A 
ATOM     10  C05 3SC d   1       0.372  31.813   7.231  0.00  0.00     0.043 A 
ATOM     11  H1  3SC d   1       0.211  32.805   6.811  0.00  0.00     0.119 H 
ATOM     12  C08 3SC d   1       1.689  27.774   8.656  0.00  0.00    -0.010 A 
ATOM     13  C07 3SC d   1       0.326  27.881   9.243  0.00  0.00     0.074 A 
ATOM     14  H2  3SC d   1       2.312  26.895   8.812  0.00  0.00     0.093 H 
BRANCH   9  15
ATOM     15  N10 3SC d   1       3.352  28.923   7.290  0.00  0.00    -0.370 N 
ATOM     16  H3  3SC d   1       3.450  29.651   6.569  0.00  0.00     0.161 HD
BRANCH  15  17
ATOM     17  C12 3SC d   1       4.513  28.109   7.541  0.00  0.00     0.018 C 
ATOM     18  H4  3SC d   1       4.466  27.701   8.562  0.00  0.00     0.071 H 
ATOM     19  H5  3SC d   1       5.423  28.717   7.431  0.00  0.00     0.071 H 
BRANCH  17  20
ATOM     20  C13 3SC d   1       4.534  26.987   6.551  0.00  0.00    -0.038 A 
ATOM     21  C14 3SC d   1       4.621  27.242   5.186  0.00  0.00    -0.058 A 
ATOM     22  C15 3SC d   1       4.635  26.167   4.325  0.00  0.00     0.002 A 
ATOM     23  H6  3SC d   1       4.676  28.258   4.811  0.00  0.00     0.086 H 
ATOM     24  N16 3SC d   1       4.574  24.862   4.716  0.00  0.00    -0.273 NA
ATOM     25  H7  3SC d   1       4.699  26.373   3.263  0.00  0.00     0.114 H 
ATOM     26  C17 3SC d   1       4.489  24.638   6.030  0.00  0.00     0.002 A 
ATOM     27  C18 3SC d   1       4.470  25.654   6.983  0.00  0.00    -0.058 A 
ATOM     28  H8  3SC d   1       4.432  23.611   6.373  0.00  0.00     0.114 H 
ATOM     29  H9  3SC d   1       4.407  25.419   8.039  0.00  0.00     0.086 H 
ENDBRANCH  17  20
ENDBRANCH  15  17
ENDBRANCH   9  15
BRANCH  13  30
ATOM     30  C11 3SC d   1      -0.092  26.731  10.077  0.00  0.00     0.016 A 
ATOM     31  C19 3SC d   1      -0.366  26.889  11.449  0.00  0.00     0.068 A 
ATOM     32  C20 3SC d   1      -0.742  25.777  12.210  0.00  0.00     0.056 A 
ATOM     33 CL27 3SC d   1      -0.249  28.422  12.169  0.00  0.00    -0.082 Cl
ATOM     34  C21 3SC d   1      -0.836  24.529  11.607  0.00  0.00    -0.060 A 
ATOM     35 CL28 3SC d   1      -1.086  25.857  13.901  0.00  0.00    -0.083 Cl
ATOM     36  C22 3SC d   1      -0.569  24.379  10.252  0.00  0.00    -0.080 A 
ATOM     37  H10 3SC d   1      -1.120  23.666  12.198  0.00  0.00     0.086 H 
ATOM     38  C23 3SC d   1      -0.186  25.475   9.478  0.00  0.00    -0.069 A 
ATOM     39  H11 3SC d   1      -0.659  23.402   9.792  0.00  0.00     0.083 H 
ATOM     40  H12 3SC d   1       0.036  25.352   8.424  0.00  0.00     0.085 H 
ENDBRANCH  13  30
ENDBRANCH   1   4
TORSDOF 5
