REMARK  6 active torsions:
REMARK  status: ('A' for Active; 'I' for Inactive)
REMARK    1  A    between atoms: C5_6  and  C6_7 
REMARK    2  A    between atoms: C6_7  and  O1_8 
REMARK    3  A    between atoms: O1_8  and  C7_9 
REMARK    4  A    between atoms: C10_12  and  N1_13 
REMARK    5  A    between atoms: N1_13  and  C11_14 
REMARK    6  A    between atoms: C15_20  and  C16_21 
ROOT
ATOM      1  C7  GW7 d   1     -16.339  18.563   0.372  0.00  0.00     0.091 A 
ATOM      2  C8  GW7 d   1     -15.939  19.240  -0.765  0.00  0.00    -0.047 A 
ATOM      3  C9  GW7 d   1     -15.058  18.633  -1.640  0.00  0.00    -0.054 A 
ATOM      4  C10 GW7 d   1     -14.565  17.360  -1.411  0.00  0.00     0.035 A 
ATOM      5  C19 GW7 d   1     -14.970  16.700  -0.270  0.00  0.00    -0.034 A 
ATOM      6  C20 GW7 d   1     -15.848  17.294   0.609  0.00  0.00     0.069 A 
ATOM      7 CL1  GW7 d   1     -16.320  16.412   2.013  0.00  0.00    -0.081 Cl
ATOM      8  H6  GW7 d   1     -16.313  20.237  -0.968  0.00  0.00     0.087 H 
ATOM      9  H7  GW7 d   1     -14.745  19.168  -2.529  0.00  0.00     0.087 H 
ATOM     10  H14 GW7 d   1     -14.594  15.705  -0.063  0.00  0.00     0.089 H 
ENDROOT
BRANCH   4  11
ATOM     11  N1  GW7 d   1     -13.659  16.762  -2.313  0.00  0.00    -0.340 N 
ATOM     12  H8  GW7 d   1     -12.833  17.311  -2.589  0.00  0.00     0.167 HD
BRANCH  11  13
ATOM     13  C11 GW7 d   1     -13.795  15.476  -2.864  0.00  0.00     0.149 A 
ATOM     14  N2  GW7 d   1     -14.845  14.668  -2.662  0.00  0.00    -0.223 NA
ATOM     15  C12 GW7 d   1     -14.847  13.468  -3.252  0.00  0.00     0.089 A 
ATOM     16  N3  GW7 d   1     -13.932  12.916  -4.053  0.00  0.00    -0.241 NA
ATOM     17  H9  GW7 d   1     -15.718  12.854  -3.051  0.00  0.00     0.146 H 
ATOM     18  C13 GW7 d   1     -12.882  13.724  -4.256  0.00  0.00     0.080 A 
ATOM     19  C14 GW7 d   1     -11.756  13.419  -5.057  0.00  0.00    -0.037 A 
ATOM     20  C18 GW7 d   1     -12.799  14.982  -3.679  0.00  0.00     0.080 A 
ATOM     21  C15 GW7 d   1     -10.821  14.424  -5.096  0.00  0.00     0.007 A 
ATOM     22  H10 GW7 d   1     -11.642  12.477  -5.591  0.00  0.00     0.089 H 
ATOM     23  S1  GW7 d   1     -11.337  15.755  -4.141  0.00  0.00    -0.084 SA
BRANCH  21  24
ATOM     24  C16 GW7 d   1      -9.531  14.468  -5.810  0.00  0.00    -0.075 C 
ATOM     25  C17 GW7 d   1      -9.053  15.703  -6.179  0.00  0.00    -0.120 C 
ATOM     26  H12 GW7 d   1      -8.105  15.784  -6.708  0.00  0.00     0.066 H 
ATOM     27  H13 GW7 d   1      -9.623  16.600  -5.942  0.00  0.00     0.066 H 
ATOM     28  H11 GW7 d   1      -8.979  13.557  -6.036  0.00  0.00     0.084 H 
ENDBRANCH  21  24
ENDBRANCH  11  13
ENDBRANCH   4  11
BRANCH   1  29
ATOM     29  O1  GW7 d   1     -17.218  19.091   1.320  0.00  0.00    -0.345 OA
BRANCH  29  30
ATOM     30  C6  GW7 d   1     -17.879  20.261   0.845  0.00  0.00     0.050 C 
ATOM     31  H4  GW7 d   1     -18.054  20.950   1.685  0.00  0.00     0.082 H 
ATOM     32  H5  GW7 d   1     -17.251  20.756   0.090  0.00  0.00     0.082 H 
BRANCH  30  33
ATOM     33  C5  GW7 d   1     -19.184  19.881   0.234  0.00  0.00    -0.031 A 
ATOM     34  C4  GW7 d   1     -19.955  20.830  -0.403  0.00  0.00    -0.075 A 
ATOM     35  C3  GW7 d   1     -21.163  20.486  -0.979  0.00  0.00    -0.080 A 
ATOM     36  H3  GW7 d   1     -19.610  21.857  -0.453  0.00  0.00     0.084 H 
ATOM     37  C2  GW7 d   1     -21.605  19.179  -0.925  0.00  0.00    -0.046 A 
ATOM     38  H2  GW7 d   1     -21.763  21.242  -1.473  0.00  0.00     0.083 H 
ATOM     39  C1  GW7 d   1     -20.829  18.233  -0.287  0.00  0.00     0.117 A 
ATOM     40  H1  GW7 d   1     -22.549  18.900  -1.378  0.00  0.00     0.088 H 
ATOM     41  F1  GW7 d   1     -21.229  16.955  -0.215  0.00  0.00    -0.206 F 
ATOM     42  C21 GW7 d   1     -19.630  18.578   0.291  0.00  0.00    -0.038 A 
ATOM     43  H15 GW7 d   1     -19.034  17.824   0.792  0.00  0.00     0.089 H 
ENDBRANCH  30  33
ENDBRANCH  29  30
ENDBRANCH   1  29
TORSDOF 6
