REMARK  18 active torsions:
REMARK  status: ('A' for Active; 'I' for Inactive)
REMARK    1  A    between atoms: N3_1  and  C27_26 
REMARK    2  A    between atoms: C4_2  and  C7_5 
REMARK    3  A    between atoms: C5_3  and  C6_4 
REMARK    4  A    between atoms: C6_4  and  C13_8 
REMARK    5  A    between atoms: C6_4  and  C12_25 
REMARK    6  A    between atoms: C7_5  and  C8_6 
REMARK    7  A    between atoms: C8_6  and  C9_31 
REMARK    8  A    between atoms: C9_31  and  C10_7 
REMARK    9  A    between atoms: C10_7  and  C11_33 
REMARK       I    between atoms: N2_17  and  C3_16 
REMARK   10  A    between atoms: C3_16  and  C2_24 
REMARK   11  A    between atoms: C1_18  and  N2_17 
REMARK   12  A    between atoms: N2_17  and  C14_23 
REMARK   13  A    between atoms: C1_18  and  C16_19 
REMARK   14  A    between atoms: C1_18  and  C32_20 
REMARK   15  A    between atoms: C9_31  and  O4_32 
REMARK   16  A    between atoms: C11_33  and  O3_34 
REMARK   17  A    between atoms: C11_33  and  C35_35 
REMARK   18  A    between atoms: C35_35  and  C36_36 
ROOT
ATOM      1  N3  RIE d   1      77.252   8.410  -5.431  0.00  0.00    -0.237 N 
ATOM      2  C4  RIE d   1      78.476   8.065  -5.014  0.00  0.00     0.046 A 
ATOM      3  C5  RIE d   1      79.299   9.290  -5.296  0.00  0.00     0.006 A 
ATOM      4  C2  RIE d   1      78.330  10.253  -5.908  0.00  0.00     0.153 A 
ATOM      5  N4  RIE d   1      77.107   9.690  -5.956  0.00  0.00    -0.161 NA
ENDROOT
BRANCH   4   6
ATOM      6  C3  RIE d   1      78.665  11.643  -6.333  0.00  0.00     0.275 C 
ATOM      7  O2  RIE d   1      79.149  12.374  -5.481  0.00  0.00    -0.266 OA
ATOM      8  N2  RIE d   1      78.391  12.068  -7.577  0.00  0.00    -0.343 N 
BRANCH   8   9
ATOM      9  C1  RIE d   1      78.695  13.472  -7.906  0.00  0.00     0.036 C 
ATOM     10  H17 RIE d   1      78.651  14.024  -6.955  0.00  0.00     0.080 H 
BRANCH   9  11
ATOM     11  C16 RIE d   1      77.618  14.059  -8.826  0.00  0.00    -0.053 C 
ATOM     12  H18 RIE d   1      77.865  15.105  -9.058  0.00  0.00     0.030 H 
ATOM     13  H19 RIE d   1      76.641  14.016  -8.322  0.00  0.00     0.030 H 
ATOM     14  H20 RIE d   1      77.575  13.477  -9.758  0.00  0.00     0.030 H 
ENDBRANCH   9  11
BRANCH   9  15
ATOM     15  C32 RIE d   1      80.043  13.738  -8.480  0.00  0.00    -0.036 A 
ATOM     16  C17 RIE d   1      80.823  12.731  -9.053  0.00  0.00    -0.075 A 
ATOM     17  C20 RIE d   1      82.078  13.037  -9.580  0.00  0.00    -0.082 A 
ATOM     18  H12 RIE d   1      80.454  11.713  -9.088  0.00  0.00     0.084 H 
ATOM     19  C29 RIE d   1      82.553  14.348  -9.537  0.00  0.00    -0.083 A 
ATOM     20  H13 RIE d   1      82.684  12.255 -10.023  0.00  0.00     0.083 H 
ATOM     21  C23 RIE d   1      81.779  15.359  -8.968  0.00  0.00    -0.082 A 
ATOM     22  H22 RIE d   1      83.528  14.582  -9.948  0.00  0.00     0.083 H 
ATOM     23  C26 RIE d   1      80.527  15.050  -8.440  0.00  0.00    -0.075 A 
ATOM     24  H21 RIE d   1      82.149  16.378  -8.937  0.00  0.00     0.083 H 
ATOM     25  H16 RIE d   1      79.923  15.832  -7.995  0.00  0.00     0.084 H 
ENDBRANCH   9  15
ENDBRANCH   8   9
BRANCH   8  26
ATOM     26  C14 RIE d   1      77.785  11.237  -8.620  0.00  0.00    -0.015 C 
ATOM     27  H23 RIE d   1      77.618  10.222  -8.229  0.00  0.00     0.056 H 
ATOM     28  H24 RIE d   1      78.459  11.189  -9.488  0.00  0.00     0.056 H 
ATOM     29  H25 RIE d   1      76.823  11.675  -8.925  0.00  0.00     0.056 H 
ENDBRANCH   8  26
ENDBRANCH   4   6
BRANCH   3  30
ATOM     30  C6  RIE d   1      80.747   9.542  -5.053  0.00  0.00    -0.031 C 
ATOM     31  H1  RIE d   1      81.056  10.376  -5.700  0.00  0.00     0.046 H 
BRANCH  30  32
ATOM     32  C13 RIE d   1      80.961   9.966  -3.605  0.00  0.00    -0.069 C 
ATOM     33  H8  RIE d   1      82.031  10.151  -3.431  0.00  0.00     0.028 H 
ATOM     34  H9  RIE d   1      80.613   9.167  -2.934  0.00  0.00     0.028 H 
ATOM     35  H10 RIE d   1      80.393  10.886  -3.405  0.00  0.00     0.028 H 
ENDBRANCH  30  32
BRANCH  30  36
ATOM     36  C12 RIE d   1      81.615   8.337  -5.412  0.00  0.00    -0.069 C 
ATOM     37  H26 RIE d   1      81.438   8.057  -6.461  0.00  0.00     0.028 H 
ATOM     38  H27 RIE d   1      81.357   7.491  -4.758  0.00  0.00     0.028 H 
ATOM     39  H28 RIE d   1      82.675   8.595  -5.276  0.00  0.00     0.028 H 
ENDBRANCH  30  36
ENDBRANCH   3  30
BRANCH   2  40
ATOM     40  C7  RIE d   1      78.900   6.748  -4.396  0.00  0.00    -0.022 C 
ATOM     41  H2  RIE d   1      79.908   6.479  -4.744  0.00  0.00     0.042 H 
ATOM     42  H3  RIE d   1      78.191   5.956  -4.679  0.00  0.00     0.042 H 
BRANCH  40  43
ATOM     43  C8  RIE d   1      78.904   6.925  -2.879  0.00  0.00    -0.036 C 
ATOM     44  H4  RIE d   1      77.966   7.416  -2.580  0.00  0.00     0.037 H 
ATOM     45  H5  RIE d   1      79.757   7.562  -2.602  0.00  0.00     0.037 H 
BRANCH  43  46
ATOM     46  C9  RIE d   1      79.021   5.601  -2.129  0.00  0.00     0.038 C 
ATOM     47  H30 RIE d   1      78.391   4.845  -2.620  0.00  0.00     0.083 H 
BRANCH  46  48
ATOM     48  C10 RIE d   1      78.579   5.771  -0.675  0.00  0.00    -0.017 C 
ATOM     49  H6  RIE d   1      79.005   6.709  -0.289  0.00  0.00     0.040 H 
ATOM     50  H7  RIE d   1      78.969   4.924  -0.092  0.00  0.00     0.040 H 
BRANCH  48  51
ATOM     51  C11 RIE d   1      77.063   5.821  -0.498  0.00  0.00     0.047 C 
ATOM     52  H32 RIE d   1      76.644   6.591  -1.163  0.00  0.00     0.083 H 
BRANCH  51  53
ATOM     53  O3  RIE d   1      76.476   4.552  -0.820  0.00  0.00    -0.395 OA
ATOM     54  H33 RIE d   1      76.832   3.885  -0.245  0.00  0.00     0.210 HD
ENDBRANCH  51  53
BRANCH  51  55
ATOM     55  C35 RIE d   1      76.750   6.175   0.952  0.00  0.00     0.039 C 
ATOM     56  H34 RIE d   1      77.365   7.035   1.256  0.00  0.00     0.052 H 
ATOM     57  H35 RIE d   1      76.983   5.313   1.594  0.00  0.00     0.052 H 
BRANCH  55  58
ATOM     58  C36 RIE d   1      75.288   6.529   1.106  0.00  0.00     0.175 C 
ATOM     59  O6  RIE d   1      74.897   7.657   0.731  0.00  0.00    -0.648 OA
ATOM     60  O7  RIE d   1      74.522   5.680   1.613  0.00  0.00    -0.648 OA
ENDBRANCH  55  58
ENDBRANCH  51  55
ENDBRANCH  48  51
ENDBRANCH  46  48
BRANCH  46  61
ATOM     61  O4  RIE d   1      80.389   5.176  -2.137  0.00  0.00    -0.395 OA
ATOM     62  H31 RIE d   1      80.680   5.066  -3.035  0.00  0.00     0.210 HD
ENDBRANCH  46  61
ENDBRANCH  43  46
ENDBRANCH  40  43
ENDBRANCH   2  40
BRANCH   1  63
ATOM     63  C27 RIE d   1      76.165   7.635  -5.383  0.00  0.00     0.058 A 
ATOM     64  C21 RIE d   1      75.288   7.655  -4.293  0.00  0.00    -0.052 A 
ATOM     65  C24 RIE d   1      74.139   6.869  -4.232  0.00  0.00    -0.043 A 
ATOM     66  H14 RIE d   1      75.512   8.311  -3.459  0.00  0.00     0.087 H 
ATOM     67  C30 RIE d   1      73.827   6.030  -5.297  0.00  0.00     0.116 A 
ATOM     68  H15 RIE d   1      73.494   6.911  -3.362  0.00  0.00     0.088 H 
ATOM     69  C15 RIE d   1      74.667   5.985  -6.402  0.00  0.00    -0.043 A 
ATOM     70  F1  RIE d   1      72.724   5.266  -5.257  0.00  0.00    -0.206 F 
ATOM     71  C18 RIE d   1      75.810   6.782  -6.435  0.00  0.00    -0.052 A 
ATOM     72  H11 RIE d   1      74.435   5.332  -7.236  0.00  0.00     0.088 H 
ATOM     73  H29 RIE d   1      76.449   6.740  -7.309  0.00  0.00     0.087 H 
ENDBRANCH   1  63
TORSDOF 18
