REMARK WARNING: 32 MAX_TORS EXCEEDED!!!
REMARK  40 active torsions:
REMARK  status: ('A' for Active; 'I' for Inactive)
REMARK    1  A    between atoms: N_1  and  CA_2 
REMARK    2  A    between atoms: CA_2  and  C_3 
REMARK    3  A    between atoms: CA_2  and  CB_5 
REMARK       I    between atoms: C_3  and  N_10 
REMARK    4  A    between atoms: CB_5  and  CG_6 
REMARK    5  A    between atoms: CG_6  and  CD_7 
REMARK    6  A    between atoms: CD_7  and  CE_8 
REMARK    7  A    between atoms: CE_8  and  NZ_9 
REMARK    8  A    between atoms: N_10  and  CA_11 
REMARK    9  A    between atoms: CA_11  and  C_12 
REMARK       I    between atoms: C_12  and  N_14 
REMARK   10  A    between atoms: N_14  and  CA_15 
REMARK   11  A    between atoms: CA_15  and  CB_16 
REMARK   12  A    between atoms: CA_15  and  C_17 
REMARK       I    between atoms: C_17  and  N_19 
REMARK   13  A    between atoms: N_19  and  CA_20 
REMARK   14  A    between atoms: CA_26  and  CB_29 
REMARK   15  A    between atoms: CB_29  and  CG_30 
REMARK   16  A    between atoms: CA_34  and  CB_37 
REMARK   17  A    between atoms: CB_37  and  CG_38 
REMARK   18  A    between atoms: CZ_43  and  OH_44 
REMARK   19  A    between atoms: CA_53  and  CB_56 
REMARK   20  A    between atoms: CB_56  and  CG_57 
REMARK   21  A    between atoms: CG_57  and  CD_58 
REMARK   22  A    between atoms: CA_62  and  CB_63 
REMARK   23  A    between atoms: CB_63  and  CG_64 
REMARK   24  A    between atoms: CA_76  and  CB_79 
REMARK   25  A    between atoms: CB_79  and  CG_80 
REMARK   26  A    between atoms: CG_80  and  CD_81 
REMARK       I    between atoms: CD_81  and  NE2_83 
REMARK   27  A    between atoms: CA_85  and  CB_86 
REMARK   28  A    between atoms: CB_86  and  CG_87 
REMARK   29  A    between atoms: CA_99  and  CB_100 
REMARK   30  A    between atoms: CB_100  and  CG_101 
REMARK   31  A    between atoms: CG_101  and  CD1_102 
REMARK   32  A    between atoms: CG_101  and  CD2_103 
REMARK   33  A    between atoms: CA_107  and  C_108 
REMARK       I    between atoms: C_108  and  N_112 
REMARK   34  A    between atoms: N_112  and  CA_113 
REMARK   35  A    between atoms: CA_113  and  CB_114 
REMARK   36  A    between atoms: CA_113  and  C_115 
REMARK       I    between atoms: C_115  and  N_117 
REMARK   37  A    between atoms: N_117  and  CA_118 
REMARK   38  A    between atoms: CA_118  and  CB_119 
REMARK   39  A    between atoms: CA_118  and  C_120 
REMARK   40  A    between atoms: C_120  and  O_228 
ROOT
ATOM      1  CA  DCY d   1     -25.898 -14.424  11.371  0.00  0.00     0.098 C 
ATOM      2  C   DCY d   1     -26.573 -14.573  12.724  0.00  0.00     0.242 C 
ATOM      3  O   DCY d   1     -27.746 -14.922  12.793  0.00  0.00    -0.271 OA
ATOM      4  CB  DCY d   1     -26.232 -13.070  10.737  0.00  0.00     0.013 C 
ATOM      5  SG  DCY d   1     -25.829 -13.046   8.969  0.00  0.00    -0.095 SA
ATOM      6  N   DCY d   1     -23.989 -17.828   6.947  0.00  0.00    -0.345 N 
ATOM      7  CA  DCY d   1     -24.664 -16.557   6.788  0.00  0.00     0.098 C 
ATOM      8  CB  DCY d   1     -25.634 -16.379   7.970  0.00  0.00     0.013 C 
ATOM      9  SG  DCY d   1     -26.420 -14.792   8.037  0.00  0.00    -0.095 SA
ATOM     10  H25 DCY d   1     -26.285 -15.215  10.712  0.00  0.00     0.088 H 
ATOM     11  H26 DCY d   1     -25.654 -12.285  11.246  0.00  0.00     0.053 H 
ATOM     12  H27 DCY d   1     -27.307 -12.873  10.861  0.00  0.00     0.053 H 
ATOM     13  H93 DCY d   1     -24.176 -18.372   7.765  0.00  0.00     0.163 HD
ATOM     14  H94 DCY d   1     -23.925 -15.742   6.799  0.00  0.00     0.088 H 
ATOM     15  H95 DCY d   1     -25.070 -16.523   8.903  0.00  0.00     0.053 H 
ATOM     16  H96 DCY d   1     -26.417 -17.148   7.892  0.00  0.00     0.053 H 
ATOM     17  N   DAS d   1     -25.804 -14.351  13.790  0.00  0.00    -0.345 N 
ATOM     18  CA  DAS d   1     -26.301 -14.423  15.163  0.00  0.00     0.098 C 
ATOM     19  C   DAS d   1     -26.417 -15.841  15.714  0.00  0.00     0.241 C 
ATOM     20  O   DAS d   1     -27.059 -16.047  16.746  0.00  0.00    -0.271 OA
ATOM     21  H28 DAS d   1     -24.841 -14.124  13.643  0.00  0.00     0.163 HD
ATOM     22  H29 DAS d   1     -27.310 -13.985  15.166  0.00  0.00     0.088 H 
ATOM     23  N   DTY d   1     -25.800 -16.805  15.031  0.00  0.00    -0.346 N 
ATOM     24  CA  DTY d   1     -25.689 -18.166  15.550  0.00  0.00     0.093 C 
ATOM     25  C   DTY d   1     -26.524 -19.135  14.739  0.00  0.00     0.243 C 
ATOM     26  O   DTY d   1     -26.333 -19.252  13.528  0.00  0.00    -0.271 OA
ATOM     27  H32 DTY d   1     -25.402 -16.591  14.139  0.00  0.00     0.163 HD
ATOM     28  H33 DTY d   1     -26.051 -18.169  16.589  0.00  0.00     0.088 H 
ATOM     29  N   DPR d   1     -27.419 -19.874  15.405  0.00  0.00    -0.337 N 
ATOM     30  CA  DPR d   1     -28.169 -20.929  14.721  0.00  0.00     0.091 C 
ATOM     31  CB  DPR d   1     -28.979 -21.594  15.850  0.00  0.00    -0.036 C 
ATOM     32  CG  DPR d   1     -28.413 -21.088  17.106  0.00  0.00    -0.048 C 
ATOM     33  CD  DPR d   1     -27.801 -19.757  16.821  0.00  0.00    -0.001 C 
ATOM     34  C   DPR d   1     -27.258 -21.955  14.025  0.00  0.00     0.241 C 
ATOM     35  O   DPR d   1     -27.591 -22.413  12.941  0.00  0.00    -0.271 OA
ATOM     36  H41 DPR d   1     -28.842 -20.489  13.971  0.00  0.00     0.087 H 
ATOM     37  H42 DPR d   1     -28.879 -22.688  15.799  0.00  0.00     0.036 H 
ATOM     38  H43 DPR d   1     -30.041 -21.319  15.771  0.00  0.00     0.036 H 
ATOM     39  H44 DPR d   1     -27.645 -21.782  17.478  0.00  0.00     0.035 H 
ATOM     40  H45 DPR d   1     -29.207 -20.982  17.860  0.00  0.00     0.035 H 
ATOM     41  H46 DPR d   1     -28.529 -18.946  16.970  0.00  0.00     0.064 H 
ATOM     42  H47 DPR d   1     -26.920 -19.581  17.456  0.00  0.00     0.064 H 
ATOM     43  N   DGL d   1     -26.126 -22.304  14.643  0.00  0.00    -0.346 N 
ATOM     44  CA  DGL d   1     -25.192 -23.295  14.075  0.00  0.00     0.090 C 
ATOM     45  C   DGL d   1     -24.516 -22.830  12.775  0.00  0.00     0.241 C 
ATOM     46  O   DGL d   1     -23.941 -23.655  12.042  0.00  0.00    -0.271 OA
ATOM     47  H48 DGL d   1     -25.904 -21.879  15.521  0.00  0.00     0.163 HD
ATOM     48  H49 DGL d   1     -25.774 -24.200  13.845  0.00  0.00     0.087 H 
ATOM     49  N   DTR d   1     -24.539 -21.521  12.512  0.00  0.00    -0.346 N 
ATOM     50  CA  DTR d   1     -23.783 -20.946  11.388  0.00  0.00     0.093 C 
ATOM     51  C   DTR d   1     -24.722 -20.369  10.319  0.00  0.00     0.241 C 
ATOM     52  O   DTR d   1     -24.298 -19.596   9.471  0.00  0.00    -0.271 OA
ATOM     53  N   DTR d   1     -26.027 -21.666   7.747  0.00  0.00    -0.346 N 
ATOM     54  CA  DTR d   1     -25.665 -22.070   6.391  0.00  0.00     0.093 C 
ATOM     55  C   DTR d   1     -24.606 -21.099   5.813  0.00  0.00     0.241 C 
ATOM     56  O   DTR d   1     -24.580 -20.844   4.603  0.00  0.00    -0.271 OA
ATOM     57  H54 DTR d   1     -25.084 -20.916  13.093  0.00  0.00     0.163 HD
ATOM     58  H55 DTR d   1     -23.182 -21.747  10.932  0.00  0.00     0.088 H 
ATOM     59  H72 DTR d   1     -25.823 -22.277   8.512  0.00  0.00     0.163 HD
ATOM     60  H73 DTR d   1     -26.564 -22.009   5.760  0.00  0.00     0.088 H 
ATOM     61  N   DGN d   1     -25.994 -20.735  10.382  0.00  0.00    -0.346 N 
ATOM     62  CA  DGN d   1     -26.983 -20.187   9.434  0.00  0.00     0.090 C 
ATOM     63  C   DGN d   1     -26.622 -20.501   7.984  0.00  0.00     0.241 C 
ATOM     64  O   DGN d   1     -26.850 -19.687   7.102  0.00  0.00    -0.271 OA
ATOM     65  H64 DGN d   1     -26.287 -21.389  11.079  0.00  0.00     0.163 HD
ATOM     66  H65 DGN d   1     -26.973 -19.093   9.544  0.00  0.00     0.087 H 
ATOM     67  N   DLE d   1     -23.755 -20.563   6.688  0.00  0.00    -0.346 N 
ATOM     68  CA  DLE d   1     -22.641 -19.711   6.284  0.00  0.00     0.089 C 
ATOM     69  C   DLE d   1     -23.133 -18.298   6.052  0.00  0.00     0.241 C 
ATOM     70  O   DLE d   1     -22.782 -17.664   5.079  0.00  0.00    -0.271 OA
ATOM     71  H82 DLE d   1     -23.885 -20.753   7.661  0.00  0.00     0.163 HD
ATOM     72  H83 DLE d   1     -22.230 -20.097   5.339  0.00  0.00     0.087 H 
ENDROOT
BRANCH   1  73
ATOM     73  N   DCY d   1     -24.449 -14.591  11.475  0.00  0.00    -0.345 N 
ATOM     74  C   DAL d   1     -23.891 -15.754  11.796  0.00  0.00     0.240 C 
ATOM     75  O   DAL d   1     -24.526 -16.732  12.180  0.00  0.00    -0.271 OA
ATOM     76  H24 DCY d   1     -23.858 -13.804  11.299  0.00  0.00     0.163 HD
BRANCH  74  77
ATOM     77  CA  DAL d   1     -22.381 -15.824  11.653  0.00  0.00     0.086 C 
ATOM     78  H20 DAL d   1     -22.014 -16.607  12.334  0.00  0.00     0.086 H 
BRANCH  77  79
ATOM     79  N   DAL d   1     -21.718 -14.567  12.024  0.00  0.00    -0.347 N 
ATOM     80  C   GLY d   1     -21.945 -13.942  13.177  0.00  0.00     0.236 C 
ATOM     81  O   GLY d   1     -22.822 -14.277  13.976  0.00  0.00    -0.272 OA
ATOM     82  H19 DAL d   1     -21.067 -14.163  11.382  0.00  0.00     0.163 HD
BRANCH  80  83
ATOM     83  CA  GLY d   1     -21.070 -12.739  13.470  0.00  0.00     0.069 C 
ATOM     84  H17 GLY d   1     -20.019 -13.019  13.308  0.00  0.00     0.078 H 
ATOM     85  H18 GLY d   1     -21.344 -11.927  12.781  0.00  0.00     0.078 H 
BRANCH  83  86
ATOM     86  N   GLY d   1     -21.223 -12.261  14.845  0.00  0.00    -0.351 N 
ATOM     87  C   DLY d   1     -20.187 -11.932  15.618  0.00  0.00     0.248 C 
ATOM     88  O   DLY d   1     -19.012 -12.029  15.255  0.00  0.00    -0.271 OA
ATOM     89  H16 GLY d   1     -22.146 -12.177  15.222  0.00  0.00     0.163 HD
BRANCH  87  90
ATOM     90  CA  DLY d   1     -20.516 -11.426  17.022  0.00  0.00     0.176 C 
ATOM     91  H4  DLY d   1     -20.001 -10.466  17.177  0.00  0.00     0.099 H 
BRANCH  90  92
ATOM     92  N   DLY d   1     -20.033 -12.394  18.043  0.00  0.00    -0.067 N 
ATOM     93  H1  DLY d   1     -20.255 -12.050  18.964  0.00  0.00     0.275 HD
ATOM     94  H2  DLY d   1     -19.035 -12.503  17.957  0.00  0.00     0.275 HD
ATOM     95  H3  DLY d   1     -20.482 -13.285  17.900  0.00  0.00     0.275 HD
ENDBRANCH  90  92
BRANCH  90  96
ATOM     96  CB  DLY d   1     -22.017 -11.201  17.176  0.00  0.00    -0.030 C 
ATOM     97  H5  DLY d   1     -22.298 -11.455  18.209  0.00  0.00     0.036 H 
ATOM     98  H6  DLY d   1     -22.538 -11.873  16.478  0.00  0.00     0.036 H 
BRANCH  96  99
ATOM     99  CG  DLY d   1     -22.478  -9.771  16.895  0.00  0.00    -0.061 C 
ATOM    100  H7  DLY d   1     -22.456  -9.591  15.810  0.00  0.00     0.033 H 
ATOM    101  H8  DLY d   1     -21.798  -9.067  17.398  0.00  0.00     0.033 H 
BRANCH  99 102
ATOM    102  CD  DLY d   1     -23.896  -9.552  17.410  0.00  0.00    -0.043 C 
ATOM    103  H9  DLY d   1     -23.977  -9.980  18.420  0.00  0.00     0.035 H 
ATOM    104  H10 DLY d   1     -24.600 -10.063  16.738  0.00  0.00     0.035 H 
BRANCH 102 105
ATOM    105  CE  DLY d   1     -24.263  -8.070  17.473  0.00  0.00     0.080 C 
ATOM    106  H11 DLY d   1     -23.982  -7.598  16.520  0.00  0.00     0.075 H 
ATOM    107  H12 DLY d   1     -23.700  -7.603  18.294  0.00  0.00     0.075 H 
BRANCH 105 108
ATOM    108  NZ  DLY d   1     -25.726  -7.843  17.706  0.00  0.00    -0.079 N 
ATOM    109  H13 DLY d   1     -25.911  -6.853  17.739  0.00  0.00     0.274 HD
ATOM    110  H14 DLY d   1     -25.996  -8.264  18.581  0.00  0.00     0.274 HD
ATOM    111  H15 DLY d   1     -26.254  -8.259  16.955  0.00  0.00     0.274 HD
ENDBRANCH 105 108
ENDBRANCH 102 105
ENDBRANCH  99 102
ENDBRANCH  96  99
ENDBRANCH  90  96
ENDBRANCH  87  90
ENDBRANCH  83  86
ENDBRANCH  80  83
ENDBRANCH  77  79
BRANCH  77 112
ATOM    112  CB  DAL d   1     -22.019 -16.229  10.218  0.00  0.00    -0.049 C 
ATOM    113  H21 DAL d   1     -22.526 -17.171   9.964  0.00  0.00     0.030 H 
ATOM    114  H22 DAL d   1     -20.930 -16.366  10.139  0.00  0.00     0.030 H 
ATOM    115  H23 DAL d   1     -22.341 -15.440   9.522  0.00  0.00     0.030 H 
ENDBRANCH  77 112
ENDBRANCH  74  77
ENDBRANCH   1  73
BRANCH  18 116
ATOM    116  CB  DAS d   1     -25.415 -13.589  16.098  0.00  0.00     0.043 C 
ATOM    117  H30 DAS d   1     -24.400 -14.012  16.092  0.00  0.00     0.052 H 
ATOM    118  H31 DAS d   1     -25.829 -13.642  17.116  0.00  0.00     0.052 H 
BRANCH 116 119
ATOM    119  CG  DAS d   1     -25.338 -12.151  15.685  0.00  0.00     0.175 C 
ATOM    120  OD1 DAS d   1     -24.285 -11.736  15.161  0.00  0.00    -0.648 OA
ATOM    121  OD2 DAS d   1     -26.328 -11.422  15.870  0.00  0.00    -0.648 OA
ENDBRANCH 116 119
ENDBRANCH  18 116
BRANCH   7 122
ATOM    122  C   DCY d   1     -25.410 -16.539   5.444  0.00  0.00     0.241 C 
ATOM    123  O   DCY d   1     -25.386 -15.544   4.707  0.00  0.00    -0.271 OA
ATOM    124  N   DAL d   1     -26.067 -17.647   5.127  0.00  0.00    -0.346 N 
ATOM    125  H97 DAL d   1     -26.026 -18.426   5.753  0.00  0.00     0.163 HD
BRANCH 124 126
ATOM    126  CA  DAL d   1     -26.854 -17.775   3.888  0.00  0.00     0.086 C 
ATOM    127  H98 DAL d   1     -27.528 -16.907   3.832  0.00  0.00     0.086 H 
BRANCH 126 128
ATOM    128  CB  DAL d   1     -27.716 -19.038   3.929  0.00  0.00    -0.049 C 
ATOM    129  H99 DAL d   1     -28.296 -19.117   2.997  0.00  0.00     0.030 H 
ATOM    130 0H10 DAL d   1     -28.404 -18.985   4.785  0.00  0.00     0.030 H 
ATOM    131 1H10 DAL d   1     -27.068 -19.921   4.034  0.00  0.00     0.030 H 
ENDBRANCH 126 128
BRANCH 126 132
ATOM    132  C   DAL d   1     -25.975 -17.758   2.634  0.00  0.00     0.240 C 
ATOM    133  O   DAL d   1     -26.352 -17.157   1.626  0.00  0.00    -0.271 OA
ATOM    134  N   DAL d   1     -24.804 -18.394   2.719  0.00  0.00    -0.345 N 
ATOM    135 2H10 DAL d   1     -24.591 -18.879   3.567  0.00  0.00     0.163 HD
BRANCH 134 136
ATOM    136  CA  DAL d   1     -23.813 -18.422   1.640  0.00  0.00     0.090 C 
ATOM    137 3H10 DAL d   1     -24.303 -18.845   0.751  0.00  0.00     0.088 H 
BRANCH 136 138
ATOM    138  CB  DAL d   1     -22.614 -19.355   2.025  0.00  0.00    -0.048 C 
ATOM    139 4H10 DAL d   1     -21.880 -19.365   1.206  0.00  0.00     0.030 H 
ATOM    140 5H10 DAL d   1     -22.985 -20.376   2.198  0.00  0.00     0.030 H 
ATOM    141 6H10 DAL d   1     -22.136 -18.978   2.941  0.00  0.00     0.030 H 
ENDBRANCH 136 138
BRANCH 136 142
ATOM    142  C   DAL d   1     -23.297 -17.027   1.265  0.00  0.00     0.163 C 
ATOM    143  O   DAL d   1     -22.894 -16.793   0.125  0.00  0.00    -0.648 OA
BRANCH 142 144
ATOM    144  O   NH2 d   1     -23.285 -16.061   2.179  0.00  0.00    -0.775 OA
ATOM    145 7H10 NH2 d   1     -23.624 -16.399   3.000  0.00  0.00     0.167 HD
ENDBRANCH 142 144
ENDBRANCH 136 142
ENDBRANCH 134 136
ENDBRANCH 126 132
ENDBRANCH 124 126
ENDBRANCH   7 122
BRANCH  24 146
ATOM    146  CB  DTY d   1     -24.220 -18.654  15.532  0.00  0.00    -0.014 C 
ATOM    147  H34 DTY d   1     -23.873 -18.651  14.488  0.00  0.00     0.043 H 
ATOM    148  H35 DTY d   1     -24.198 -19.682  15.923  0.00  0.00     0.043 H 
BRANCH 146 149
ATOM    149  CG  DTY d   1     -23.258 -17.825  16.346  0.00  0.00    -0.056 A 
ATOM    150  CD1 DTY d   1     -22.683 -18.328  17.521  0.00  0.00    -0.074 A 
ATOM    151  CE1 DTY d   1     -21.787 -17.555  18.273  0.00  0.00    -0.051 A 
ATOM    152  H36 DTY d   1     -22.934 -19.329  17.853  0.00  0.00     0.084 H 
ATOM    153  CZ  DTY d   1     -21.475 -16.266  17.840  0.00  0.00     0.065 A 
ATOM    154  H38 DTY d   1     -21.343 -17.953  19.178  0.00  0.00     0.087 H 
ATOM    155  CE2 DTY d   1     -22.040 -15.764  16.666  0.00  0.00    -0.051 A 
ATOM    156  CD2 DTY d   1     -22.920 -16.540  15.945  0.00  0.00    -0.074 A 
ATOM    157  H39 DTY d   1     -21.787 -14.767  16.323  0.00  0.00     0.087 H 
ATOM    158  H37 DTY d   1     -23.360 -16.137  15.040  0.00  0.00     0.084 H 
BRANCH 153 159
ATOM    159  OH  DTY d   1     -20.605 -15.464  18.547  0.00  0.00    -0.361 OA
ATOM    160  H40 DTY d   1     -20.300 -15.930  19.317  0.00  0.00     0.217 HD
ENDBRANCH 153 159
ENDBRANCH 146 149
ENDBRANCH  24 146
BRANCH  68 161
ATOM    161  CB  DLE d   1     -21.526 -19.738   7.342  0.00  0.00    -0.035 C 
ATOM    162  H84 DLE d   1     -21.153 -20.772   7.394  0.00  0.00     0.037 H 
ATOM    163  H85 DLE d   1     -21.985 -19.465   8.304  0.00  0.00     0.037 H 
BRANCH 161 164
ATOM    164  CG  DLE d   1     -20.302 -18.823   7.147  0.00  0.00    -0.059 C 
ATOM    165  H86 DLE d   1     -20.651 -17.780   7.173  0.00  0.00     0.038 H 
BRANCH 164 166
ATOM    166  CD1 DLE d   1     -19.586 -19.042   5.774  0.00  0.00    -0.073 C 
ATOM    167  H87 DLE d   1     -18.725 -18.362   5.697  0.00  0.00     0.028 H 
ATOM    168  H88 DLE d   1     -20.291 -18.835   4.956  0.00  0.00     0.028 H 
ATOM    169  H89 DLE d   1     -19.238 -20.083   5.704  0.00  0.00     0.028 H 
ENDBRANCH 164 166
BRANCH 164 170
ATOM    170  CD2 DLE d   1     -19.343 -19.038   8.324  0.00  0.00    -0.073 C 
ATOM    171  H90 DLE d   1     -19.881 -18.876   9.270  0.00  0.00     0.028 H 
ATOM    172  H91 DLE d   1     -18.507 -18.326   8.251  0.00  0.00     0.028 H 
ATOM    173  H92 DLE d   1     -18.953 -20.066   8.296  0.00  0.00     0.028 H 
ENDBRANCH 164 170
ENDBRANCH 161 164
ENDBRANCH  68 161
BRANCH  54 174
ATOM    174  CB  DTR d   1     -25.171 -23.531   6.375  0.00  0.00    -0.012 C 
ATOM    175  H74 DTR d   1     -24.920 -23.813   5.342  0.00  0.00     0.044 H 
ATOM    176  H75 DTR d   1     -25.973 -24.184   6.749  0.00  0.00     0.044 H 
BRANCH 174 177
ATOM    177  CG  DTR d   1     -23.945 -23.707   7.246  0.00  0.00    -0.028 A 
ATOM    178  CD1 DTR d   1     -23.925 -24.032   8.567  0.00  0.00    -0.015 A 
ATOM    179  NE1 DTR d   1     -22.614 -24.061   9.028  0.00  0.00    -0.365 N 
ATOM    180  H76 DTR d   1     -24.806 -24.239   9.173  0.00  0.00     0.112 H 
ATOM    181  CE2 DTR d   1     -21.772 -23.760   7.994  0.00  0.00     0.042 A 
ATOM    182  H77 DTR d   1     -22.324 -24.275   9.993  0.00  0.00     0.165 HD
ATOM    183  CZ2 DTR d   1     -20.377 -23.652   7.974  0.00  0.00    -0.056 A 
ATOM    184  CD2 DTR d   1     -22.571 -23.507   6.856  0.00  0.00    -0.002 A 
ATOM    185  CH2 DTR d   1     -19.779 -23.308   6.774  0.00  0.00    -0.081 A 
ATOM    186  H78 DTR d   1     -19.787 -23.831   8.865  0.00  0.00     0.086 H 
ATOM    187  CZ3 DTR d   1     -20.542 -23.074   5.622  0.00  0.00    -0.082 A 
ATOM    188  H79 DTR d   1     -18.700 -23.218   6.724  0.00  0.00     0.083 H 
ATOM    189  CE3 DTR d   1     -21.940 -23.180   5.645  0.00  0.00    -0.070 A 
ATOM    190  H80 DTR d   1     -20.043 -22.807   4.698  0.00  0.00     0.083 H 
ATOM    191  H81 DTR d   1     -22.522 -23.013   4.746  0.00  0.00     0.084 H 
ENDBRANCH 174 177
ENDBRANCH  54 174
BRANCH  44 192
ATOM    192  CB  DGL d   1     -24.101 -23.670  15.099  0.00  0.00    -0.029 C 
ATOM    193  H50 DGL d   1     -23.228 -23.025  14.920  0.00  0.00     0.037 H 
ATOM    194  H51 DGL d   1     -23.821 -24.721  14.932  0.00  0.00     0.037 H 
BRANCH 192 195
ATOM    195  CG  DGL d   1     -24.516 -23.515  16.567  0.00  0.00     0.018 C 
ATOM    196  H52 DGL d   1     -24.080 -24.343  17.145  0.00  0.00     0.049 H 
ATOM    197  H53 DGL d   1     -25.613 -23.562  16.629  0.00  0.00     0.049 H 
BRANCH 195 198
ATOM    198  CD  DGL d   1     -24.052 -22.203  17.172  0.00  0.00     0.172 C 
ATOM    199  OE1 DGL d   1     -24.919 -21.340  17.425  0.00  0.00    -0.648 OA
ATOM    200  OE2 DGL d   1     -22.822 -22.040  17.393  0.00  0.00    -0.648 OA
ENDBRANCH 195 198
ENDBRANCH 192 195
ENDBRANCH  44 192
BRANCH  62 201
ATOM    201  CB  DGN d   1     -28.398 -20.673   9.777  0.00  0.00    -0.030 C 
ATOM    202  H66 DGN d   1     -28.368 -21.762   9.929  0.00  0.00     0.037 H 
ATOM    203  H67 DGN d   1     -29.064 -20.439   8.933  0.00  0.00     0.037 H 
BRANCH 201 204
ATOM    204  CG  DGN d   1     -28.965 -20.018  11.043  0.00  0.00     0.011 C 
ATOM    205  H68 DGN d   1     -28.451 -20.435  11.922  0.00  0.00     0.047 H 
ATOM    206  H69 DGN d   1     -30.041 -20.239  11.108  0.00  0.00     0.047 H 
BRANCH 204 207
ATOM    207  CD  DGN d   1     -28.772 -18.515  11.027  0.00  0.00     0.215 C 
ATOM    208  OE1 DGN d   1     -29.219 -17.827  10.111  0.00  0.00    -0.274 OA
ATOM    209  NE2 DGN d   1     -28.074 -18.002  12.021  0.00  0.00    -0.370 N 
ATOM    210  H70 DGN d   1     -27.914 -17.016  12.063  0.00  0.00     0.159 HD
ATOM    211  H71 DGN d   1     -27.704 -18.599  12.733  0.00  0.00     0.159 HD
ENDBRANCH 204 207
ENDBRANCH 201 204
ENDBRANCH  62 201
BRANCH  50 212
ATOM    212  CB  DTR d   1     -22.844 -19.842  11.868  0.00  0.00    -0.012 C 
ATOM    213  H56 DTR d   1     -23.423 -19.130  12.474  0.00  0.00     0.044 H 
ATOM    214  H57 DTR d   1     -22.433 -19.325  10.988  0.00  0.00     0.044 H 
BRANCH 212 215
ATOM    215  CG  DTR d   1     -21.714 -20.352  12.688  0.00  0.00    -0.028 A 
ATOM    216  CD1 DTR d   1     -21.616 -20.351  14.045  0.00  0.00    -0.015 A 
ATOM    217  NE1 DTR d   1     -20.412 -20.930  14.431  0.00  0.00    -0.365 N 
ATOM    218  H58 DTR d   1     -22.368 -19.956  14.727  0.00  0.00     0.112 H 
ATOM    219  CE2 DTR d   1     -19.715 -21.296  13.307  0.00  0.00     0.042 A 
ATOM    220  H59 DTR d   1     -20.095 -21.062  15.402  0.00  0.00     0.165 HD
ATOM    221  CZ2 DTR d   1     -18.455 -21.899  13.176  0.00  0.00    -0.056 A 
ATOM    222  CD2 DTR d   1     -20.511 -20.966  12.191  0.00  0.00    -0.002 A 
ATOM    223  CH2 DTR d   1     -18.006 -22.169  11.899  0.00  0.00    -0.081 A 
ATOM    224  H60 DTR d   1     -17.856 -22.144  14.046  0.00  0.00     0.086 H 
ATOM    225  CZ3 DTR d   1     -18.769 -21.852  10.773  0.00  0.00    -0.082 A 
ATOM    226  H61 DTR d   1     -17.038 -22.638  11.767  0.00  0.00     0.083 H 
ATOM    227  CE3 DTR d   1     -20.027 -21.256  10.900  0.00  0.00    -0.070 A 
ATOM    228  H62 DTR d   1     -18.380 -22.072   9.785  0.00  0.00     0.083 H 
ATOM    229  H63 DTR d   1     -20.619 -21.021  10.022  0.00  0.00     0.084 H 
ENDBRANCH 212 215
ENDBRANCH  50 212
TORSDOF 40
