REMARK WARNING: 32 MAX_TORS EXCEEDED!!!
REMARK  40 active torsions:
REMARK  status: ('A' for Active; 'I' for Inactive)
REMARK    1  A    between atoms: N_1  and  CA_2 
REMARK    2  A    between atoms: CA_2  and  C_3 
REMARK    3  A    between atoms: CA_2  and  CB_5 
REMARK       I    between atoms: C_3  and  N_10 
REMARK    4  A    between atoms: CB_5  and  CG_6 
REMARK    5  A    between atoms: CG_6  and  CD_7 
REMARK    6  A    between atoms: CD_7  and  CE_8 
REMARK    7  A    between atoms: CE_8  and  NZ_9 
REMARK    8  A    between atoms: N_10  and  CA_11 
REMARK    9  A    between atoms: CA_11  and  C_12 
REMARK       I    between atoms: C_12  and  N_14 
REMARK   10  A    between atoms: N_14  and  CA_15 
REMARK   11  A    between atoms: CA_15  and  CB_16 
REMARK   12  A    between atoms: CA_15  and  C_17 
REMARK       I    between atoms: C_17  and  N_19 
REMARK   13  A    between atoms: N_19  and  CA_20 
REMARK   14  A    between atoms: CA_26  and  CB_29 
REMARK   15  A    between atoms: CB_29  and  CG_30 
REMARK   16  A    between atoms: CA_34  and  CB_37 
REMARK   17  A    between atoms: CB_37  and  CG_38 
REMARK   18  A    between atoms: CZ_43  and  OH_44 
REMARK   19  A    between atoms: CA_53  and  CB_56 
REMARK   20  A    between atoms: CB_56  and  CG_57 
REMARK   21  A    between atoms: CG_57  and  CD_58 
REMARK   22  A    between atoms: CA_62  and  CB_63 
REMARK   23  A    between atoms: CB_63  and  CG_64 
REMARK   24  A    between atoms: CA_76  and  CB_79 
REMARK   25  A    between atoms: CB_79  and  CG_80 
REMARK   26  A    between atoms: CG_80  and  CD_81 
REMARK       I    between atoms: CD_81  and  NE2_83 
REMARK   27  A    between atoms: CA_85  and  CB_86 
REMARK   28  A    between atoms: CB_86  and  CG_87 
REMARK   29  A    between atoms: CA_99  and  CB_100 
REMARK   30  A    between atoms: CB_100  and  CG_101 
REMARK   31  A    between atoms: CG_101  and  CD1_102 
REMARK   32  A    between atoms: CG_101  and  CD2_103 
REMARK   33  A    between atoms: CA_107  and  C_108 
REMARK       I    between atoms: C_108  and  N_112 
REMARK   34  A    between atoms: N_112  and  CA_113 
REMARK   35  A    between atoms: CA_113  and  CB_114 
REMARK   36  A    between atoms: CA_113  and  C_115 
REMARK       I    between atoms: C_115  and  N_117 
REMARK   37  A    between atoms: N_117  and  CA_118 
REMARK   38  A    between atoms: CA_118  and  CB_119 
REMARK   39  A    between atoms: CA_118  and  C_120 
REMARK   40  A    between atoms: C_120  and  O_228 
ROOT
ATOM      1  CA  DCY d   1      -1.266 -17.295  18.508  0.00  0.00     0.098 C 
ATOM      2  C   DCY d   1      -2.179 -18.240  19.269  0.00  0.00     0.242 C 
ATOM      3  O   DCY d   1      -1.698 -19.141  19.942  0.00  0.00    -0.271 OA
ATOM      4  CB  DCY d   1      -0.697 -17.976  17.267  0.00  0.00     0.013 C 
ATOM      5  SG  DCY d   1       0.822 -17.147  16.770  0.00  0.00    -0.095 SA
ATOM      6  N   DCY d   1       2.360 -13.070  19.315  0.00  0.00    -0.345 N 
ATOM      7  CA  DCY d   1       2.622 -14.231  18.459  0.00  0.00     0.098 C 
ATOM      8  CB  DCY d   1       2.026 -15.462  19.143  0.00  0.00     0.013 C 
ATOM      9  SG  DCY d   1       2.225 -16.973  18.223  0.00  0.00    -0.095 SA
ATOM     10  H25 DCY d   1      -0.425 -17.049  19.173  0.00  0.00     0.088 H 
ATOM     11  H26 DCY d   1      -1.430 -17.919  16.449  0.00  0.00     0.053 H 
ATOM     12  H27 DCY d   1      -0.482 -19.031  17.494  0.00  0.00     0.053 H 
ATOM     13  H93 DCY d   1       1.682 -13.155  20.045  0.00  0.00     0.163 HD
ATOM     14  H94 DCY d   1       2.140 -14.083  17.481  0.00  0.00     0.088 H 
ATOM     15  H95 DCY d   1       0.950 -15.287  19.292  0.00  0.00     0.053 H 
ATOM     16  H96 DCY d   1       2.516 -15.585  20.120  0.00  0.00     0.053 H 
ATOM     17  N   DAS d   1      -3.490 -18.013  19.178  0.00  0.00    -0.345 N 
ATOM     18  CA  DAS d   1      -4.467 -18.893  19.818  0.00  0.00     0.098 C 
ATOM     19  C   DAS d   1      -4.677 -18.519  21.279  0.00  0.00     0.241 C 
ATOM     20  O   DAS d   1      -5.286 -19.288  22.040  0.00  0.00    -0.271 OA
ATOM     21  H28 DAS d   1      -3.813 -17.221  18.659  0.00  0.00     0.163 HD
ATOM     22  H29 DAS d   1      -4.087 -19.924  19.774  0.00  0.00     0.088 H 
ATOM     23  N   DTY d   1      -4.209 -17.340  21.681  0.00  0.00    -0.346 N 
ATOM     24  CA  DTY d   1      -4.534 -16.803  23.036  0.00  0.00     0.093 C 
ATOM     25  C   DTY d   1      -3.347 -16.817  23.990  0.00  0.00     0.243 C 
ATOM     26  O   DTY d   1      -2.276 -16.315  23.651  0.00  0.00    -0.271 OA
ATOM     27  H32 DTY d   1      -3.630 -16.805  21.066  0.00  0.00     0.163 HD
ATOM     28  H33 DTY d   1      -5.327 -17.432  23.466  0.00  0.00     0.088 H 
ATOM     29  N   DPR d   1      -3.538 -17.371  25.205  0.00  0.00    -0.337 N 
ATOM     30  CA  DPR d   1      -2.453 -17.345  26.198  0.00  0.00     0.091 C 
ATOM     31  CB  DPR d   1      -3.101 -17.926  27.448  0.00  0.00    -0.036 C 
ATOM     32  CG  DPR d   1      -4.583 -17.891  27.177  0.00  0.00    -0.048 C 
ATOM     33  CD  DPR d   1      -4.747 -18.038  25.725  0.00  0.00    -0.001 C 
ATOM     34  C   DPR d   1      -1.916 -15.927  26.468  0.00  0.00     0.241 C 
ATOM     35  O   DPR d   1      -0.690 -15.730  26.509  0.00  0.00    -0.271 OA
ATOM     36  H41 DPR d   1      -1.619 -17.980  25.864  0.00  0.00     0.087 H 
ATOM     37  H42 DPR d   1      -2.856 -17.315  28.329  0.00  0.00     0.036 H 
ATOM     38  H43 DPR d   1      -2.763 -18.960  27.613  0.00  0.00     0.036 H 
ATOM     39  H44 DPR d   1      -5.008 -16.933  27.512  0.00  0.00     0.035 H 
ATOM     40  H45 DPR d   1      -5.085 -18.718  27.701  0.00  0.00     0.035 H 
ATOM     41  H46 DPR d   1      -4.775 -19.098  25.432  0.00  0.00     0.064 H 
ATOM     42  H47 DPR d   1      -5.661 -17.537  25.374  0.00  0.00     0.064 H 
ATOM     43  N   DGL d   1      -2.811 -14.948  26.581  0.00  0.00    -0.346 N 
ATOM     44  CA  DGL d   1      -2.423 -13.569  26.927  0.00  0.00     0.090 C 
ATOM     45  C   DGL d   1      -1.765 -12.805  25.777  0.00  0.00     0.241 C 
ATOM     46  O   DGL d   1      -1.343 -11.648  25.963  0.00  0.00    -0.271 OA
ATOM     47  H48 DGL d   1      -3.777 -15.155  26.426  0.00  0.00     0.163 HD
ATOM     48  H49 DGL d   1      -1.680 -13.638  27.735  0.00  0.00     0.087 H 
ATOM     49  N   DTR d   1      -1.691 -13.438  24.603  0.00  0.00    -0.346 N 
ATOM     50  CA  DTR d   1      -1.157 -12.775  23.383  0.00  0.00     0.093 C 
ATOM     51  C   DTR d   1       0.049 -13.525  22.811  0.00  0.00     0.241 C 
ATOM     52  O   DTR d   1       0.548 -13.191  21.697  0.00  0.00    -0.271 OA
ATOM     53  N   DTR d   1       3.165 -13.353  23.717  0.00  0.00    -0.346 N 
ATOM     54  CA  DTR d   1       4.271 -12.400  23.445  0.00  0.00     0.093 C 
ATOM     55  C   DTR d   1       4.190 -11.779  22.042  0.00  0.00     0.241 C 
ATOM     56  O   DTR d   1       5.212 -11.602  21.374  0.00  0.00    -0.271 OA
ATOM     57  H54 DTR d   1      -2.004 -14.386  24.542  0.00  0.00     0.163 HD
ATOM     58  H55 DTR d   1      -0.829 -11.763  23.664  0.00  0.00     0.088 H 
ATOM     59  H72 DTR d   1       2.582 -13.224  24.520  0.00  0.00     0.163 HD
ATOM     60  H73 DTR d   1       5.211 -12.967  23.508  0.00  0.00     0.088 H 
ATOM     61  N   DGN d   1       0.525 -14.515  23.572  0.00  0.00    -0.346 N 
ATOM     62  CA  DGN d   1       1.738 -15.282  23.177  0.00  0.00     0.090 C 
ATOM     63  C   DGN d   1       2.945 -14.384  22.892  0.00  0.00     0.241 C 
ATOM     64  O   DGN d   1       3.662 -14.616  21.899  0.00  0.00    -0.271 OA
ATOM     65  H64 DGN d   1       0.056 -14.745  24.425  0.00  0.00     0.163 HD
ATOM     66  H65 DGN d   1       1.492 -15.784  22.230  0.00  0.00     0.087 H 
ATOM     67  N   DLE d   1       2.979 -11.468  21.586  0.00  0.00    -0.346 N 
ATOM     68  CA  DLE d   1       2.783 -10.871  20.262  0.00  0.00     0.089 C 
ATOM     69  C   DLE d   1       2.988 -11.908  19.160  0.00  0.00     0.241 C 
ATOM     70  O   DLE d   1       3.693 -11.649  18.180  0.00  0.00    -0.271 OA
ATOM     71  H82 DLE d   1       2.181 -11.646  22.162  0.00  0.00     0.163 HD
ATOM     72  H83 DLE d   1       3.522 -10.068  20.128  0.00  0.00     0.087 H 
ENDROOT
BRANCH   1  73
ATOM     73  N   DCY d   1      -1.913 -16.038  18.143  0.00  0.00    -0.345 N 
ATOM     74  C   DAL d   1      -2.314 -15.163  19.059  0.00  0.00     0.240 C 
ATOM     75  O   DAL d   1      -2.256 -15.374  20.289  0.00  0.00    -0.271 OA
ATOM     76  H24 DCY d   1      -2.058 -15.830  17.176  0.00  0.00     0.163 HD
BRANCH  74  77
ATOM     77  CA  DAL d   1      -2.895 -13.875  18.514  0.00  0.00     0.086 C 
ATOM     78  H20 DAL d   1      -3.527 -13.444  19.304  0.00  0.00     0.086 H 
BRANCH  77  79
ATOM     79  N   DAL d   1      -3.746 -14.050  17.325  0.00  0.00    -0.347 N 
ATOM     80  C   GLY d   1      -4.688 -14.980  17.205  0.00  0.00     0.236 C 
ATOM     81  O   GLY d   1      -4.955 -15.790  18.094  0.00  0.00    -0.272 OA
ATOM     82  H19 DAL d   1      -3.606 -13.427  16.556  0.00  0.00     0.163 HD
BRANCH  80  83
ATOM     83  CA  GLY d   1      -5.436 -14.994  15.882  0.00  0.00     0.069 C 
ATOM     84  H17 GLY d   1      -5.758 -13.967  15.655  0.00  0.00     0.078 H 
ATOM     85  H18 GLY d   1      -4.747 -15.343  15.098  0.00  0.00     0.078 H 
BRANCH  83  86
ATOM     86  N   GLY d   1      -6.620 -15.862  15.878  0.00  0.00    -0.351 N 
ATOM     87  C   DLY d   1      -7.654 -15.648  15.062  0.00  0.00     0.248 C 
ATOM     88  O   DLY d   1      -7.676 -14.717  14.248  0.00  0.00    -0.271 OA
ATOM     89  H16 GLY d   1      -6.653 -16.639  16.507  0.00  0.00     0.163 HD
BRANCH  87  90
ATOM     90  CA  DLY d   1      -8.862 -16.606  15.187  0.00  0.00     0.176 C 
ATOM     91  H4  DLY d   1      -9.745 -15.958  15.292  0.00  0.00     0.099 H 
BRANCH  90  92
ATOM     92  N   DLY d   1      -8.852 -17.479  16.379  0.00  0.00    -0.067 N 
ATOM     93  H1  DLY d   1      -9.673 -18.064  16.374  0.00  0.00     0.275 HD
ATOM     94  H2  DLY d   1      -8.849 -16.911  17.212  0.00  0.00     0.275 HD
ATOM     95  H3  DLY d   1      -8.027 -18.058  16.364  0.00  0.00     0.275 HD
ENDBRANCH  90  92
BRANCH  90  96
ATOM     96  CB  DLY d   1      -9.082 -17.447  13.915  0.00  0.00    -0.030 C 
ATOM     97  H5  DLY d   1     -10.056 -17.160  13.493  0.00  0.00     0.036 H 
ATOM     98  H6  DLY d   1      -9.111 -18.504  14.218  0.00  0.00     0.036 H 
BRANCH  96  99
ATOM     99  CG  DLY d   1      -8.040 -17.316  12.800  0.00  0.00    -0.061 C 
ATOM    100  H7  DLY d   1      -7.185 -16.737  13.178  0.00  0.00     0.033 H 
ATOM    101  H8  DLY d   1      -8.494 -16.787  11.949  0.00  0.00     0.033 H 
BRANCH  99 102
ATOM    102  CD  DLY d   1      -7.540 -18.682  12.323  0.00  0.00    -0.043 C 
ATOM    103  H9  DLY d   1      -7.494 -19.364  13.185  0.00  0.00     0.035 H 
ATOM    104  H10 DLY d   1      -6.534 -18.563  11.896  0.00  0.00     0.035 H 
BRANCH 102 105
ATOM    105  CE  DLY d   1      -8.462 -19.290  11.258  0.00  0.00     0.080 C 
ATOM    106  H11 DLY d   1      -7.960 -20.162  10.813  0.00  0.00     0.075 H 
ATOM    107  H12 DLY d   1      -8.646 -18.536  10.479  0.00  0.00     0.075 H 
BRANCH 105 108
ATOM    108  NZ  DLY d   1      -9.781 -19.730  11.823  0.00  0.00    -0.079 N 
ATOM    109  H13 DLY d   1     -10.348 -20.121  11.087  0.00  0.00     0.274 HD
ATOM    110  H14 DLY d   1     -10.255 -18.937  12.227  0.00  0.00     0.274 HD
ATOM    111  H15 DLY d   1      -9.626 -20.427  12.534  0.00  0.00     0.274 HD
ENDBRANCH 105 108
ENDBRANCH 102 105
ENDBRANCH  99 102
ENDBRANCH  96  99
ENDBRANCH  90  96
ENDBRANCH  87  90
ENDBRANCH  83  86
ENDBRANCH  80  83
ENDBRANCH  77  79
BRANCH  77 112
ATOM    112  CB  DAL d   1      -1.771 -12.884  18.214  0.00  0.00    -0.049 C 
ATOM    113  H21 DAL d   1      -1.142 -12.761  19.108  0.00  0.00     0.030 H 
ATOM    114  H22 DAL d   1      -2.204 -11.912  17.934  0.00  0.00     0.030 H 
ATOM    115  H23 DAL d   1      -1.158 -13.265  17.384  0.00  0.00     0.030 H 
ENDBRANCH  77 112
ENDBRANCH  74  77
ENDBRANCH   1  73
BRANCH  18 116
ATOM    116  CB  DAS d   1      -5.803 -18.829  19.067  0.00  0.00     0.043 C 
ATOM    117  H30 DAS d   1      -6.158 -17.788  19.068  0.00  0.00     0.052 H 
ATOM    118  H31 DAS d   1      -6.532 -19.465  19.590  0.00  0.00     0.052 H 
BRANCH 116 119
ATOM    119  CG  DAS d   1      -5.689 -19.305  17.621  0.00  0.00     0.175 C 
ATOM    120  OD1 DAS d   1      -5.949 -18.515  16.690  0.00  0.00    -0.648 OA
ATOM    121  OD2 DAS d   1      -5.332 -20.474  17.417  0.00  0.00    -0.648 OA
ENDBRANCH 116 119
ENDBRANCH  18 116
BRANCH   7 122
ATOM    122  C   DCY d   1       4.140 -14.416  18.249  0.00  0.00     0.241 C 
ATOM    123  O   DCY d   1       4.632 -14.524  17.100  0.00  0.00    -0.271 OA
ATOM    124  N   DAL d   1       4.878 -14.425  19.363  0.00  0.00    -0.346 N 
ATOM    125  H97 DAL d   1       4.421 -14.315  20.245  0.00  0.00     0.163 HD
BRANCH 124 126
ATOM    126  CA  DAL d   1       6.342 -14.591  19.337  0.00  0.00     0.086 C 
ATOM    127  H98 DAL d   1       6.549 -15.533  18.807  0.00  0.00     0.086 H 
BRANCH 126 128
ATOM    128  CB  DAL d   1       6.875 -14.730  20.763  0.00  0.00    -0.049 C 
ATOM    129  H99 DAL d   1       7.968 -14.854  20.736  0.00  0.00     0.030 H 
ATOM    130 0H10 DAL d   1       6.419 -15.609  21.241  0.00  0.00     0.030 H 
ATOM    131 1H10 DAL d   1       6.622 -13.827  21.338  0.00  0.00     0.030 H 
ENDBRANCH 126 128
BRANCH 126 132
ATOM    132  C   DAL d   1       7.098 -13.484  18.590  0.00  0.00     0.240 C 
ATOM    133  O   DAL d   1       8.109 -13.769  17.936  0.00  0.00    -0.271 OA
ATOM    134  N   DAL d   1       6.629 -12.240  18.715  0.00  0.00    -0.345 N 
ATOM    135 2H10 DAL d   1       5.819 -12.098  19.283  0.00  0.00     0.163 HD
BRANCH 134 136
ATOM    136  CA  DAL d   1       7.235 -11.064  18.065  0.00  0.00     0.090 C 
ATOM    137 3H10 DAL d   1       8.310 -11.059  18.298  0.00  0.00     0.088 H 
BRANCH 136 138
ATOM    138  CB  DAL d   1       6.615  -9.800  18.620  0.00  0.00    -0.048 C 
ATOM    139 4H10 DAL d   1       7.069  -8.925  18.133  0.00  0.00     0.030 H 
ATOM    140 5H10 DAL d   1       6.793  -9.750  19.704  0.00  0.00     0.030 H 
ATOM    141 6H10 DAL d   1       5.532  -9.807  18.426  0.00  0.00     0.030 H 
ENDBRANCH 136 138
BRANCH 136 142
ATOM    142  C   DAL d   1       7.078 -11.104  16.546  0.00  0.00     0.163 C 
ATOM    143  O   DAL d   1       7.895 -10.527  15.792  0.00  0.00    -0.648 OA
BRANCH 142 144
ATOM    144  O   NH2 d   1       6.054 -11.764  16.014  0.00  0.00    -0.775 OA
ATOM    145 7H10 NH2 d   1       5.528 -12.145  16.708  0.00  0.00     0.167 HD
ENDBRANCH 142 144
ENDBRANCH 136 142
ENDBRANCH 134 136
ENDBRANCH 126 132
ENDBRANCH 124 126
ENDBRANCH   7 122
BRANCH  24 146
ATOM    146  CB  DTY d   1      -5.048 -15.367  22.927  0.00  0.00    -0.014 C 
ATOM    147  H34 DTY d   1      -4.314 -14.775  22.361  0.00  0.00     0.043 H 
ATOM    148  H35 DTY d   1      -5.148 -14.954  23.942  0.00  0.00     0.043 H 
BRANCH 146 149
ATOM    149  CG  DTY d   1      -6.371 -15.265  22.240  0.00  0.00    -0.056 A 
ATOM    150  CD1 DTY d   1      -7.548 -15.182  22.985  0.00  0.00    -0.074 A 
ATOM    151  CE1 DTY d   1      -8.781 -15.110  22.360  0.00  0.00    -0.051 A 
ATOM    152  H36 DTY d   1      -7.496 -15.174  24.068  0.00  0.00     0.084 H 
ATOM    153  CZ  DTY d   1      -8.846 -15.119  20.977  0.00  0.00     0.065 A 
ATOM    154  H38 DTY d   1      -9.689 -15.047  22.949  0.00  0.00     0.087 H 
ATOM    155  CE2 DTY d   1      -7.690 -15.218  20.212  0.00  0.00    -0.051 A 
ATOM    156  CD2 DTY d   1      -6.461 -15.294  20.847  0.00  0.00    -0.074 A 
ATOM    157  H39 DTY d   1      -7.749 -15.236  19.130  0.00  0.00     0.087 H 
ATOM    158  H37 DTY d   1      -5.557 -15.377  20.254  0.00  0.00     0.084 H 
BRANCH 153 159
ATOM    159  OH  DTY d   1     -10.069 -15.057  20.354  0.00  0.00    -0.361 OA
ATOM    160  H40 DTY d   1     -10.754 -14.992  21.009  0.00  0.00     0.217 HD
ENDBRANCH 153 159
ENDBRANCH 146 149
ENDBRANCH  24 146
BRANCH  68 161
ATOM    161  CB  DLE d   1       1.383 -10.270  20.159  0.00  0.00    -0.035 C 
ATOM    162  H84 DLE d   1       1.247  -9.572  20.999  0.00  0.00     0.037 H 
ATOM    163  H85 DLE d   1       0.652 -11.088  20.240  0.00  0.00     0.037 H 
BRANCH 161 164
ATOM    164  CG  DLE d   1       1.104  -9.508  18.855  0.00  0.00    -0.059 C 
ATOM    165  H86 DLE d   1       1.163 -10.227  18.024  0.00  0.00     0.038 H 
BRANCH 164 166
ATOM    166  CD1 DLE d   1       2.128  -8.371  18.567  0.00  0.00    -0.073 C 
ATOM    167  H87 DLE d   1       1.866  -7.872  17.622  0.00  0.00     0.028 H 
ATOM    168  H88 DLE d   1       3.138  -8.799  18.488  0.00  0.00     0.028 H 
ATOM    169  H89 DLE d   1       2.103  -7.639  19.387  0.00  0.00     0.028 H 
ENDBRANCH 164 166
BRANCH 164 170
ATOM    170  CD2 DLE d   1      -0.322  -8.942  18.910  0.00  0.00    -0.073 C 
ATOM    171  H90 DLE d   1      -1.032  -9.757  19.114  0.00  0.00     0.028 H 
ATOM    172  H91 DLE d   1      -0.568  -8.474  17.945  0.00  0.00     0.028 H 
ATOM    173  H92 DLE d   1      -0.387  -8.190  19.710  0.00  0.00     0.028 H 
ENDBRANCH 164 170
ENDBRANCH 161 164
ENDBRANCH  68 161
BRANCH  54 174
ATOM    174  CB  DTR d   1       4.329 -11.280  24.477  0.00  0.00    -0.012 C 
ATOM    175  H74 DTR d   1       5.192 -10.637  24.250  0.00  0.00     0.044 H 
ATOM    176  H75 DTR d   1       4.456 -11.727  25.474  0.00  0.00     0.044 H 
BRANCH 174 177
ATOM    177  CG  DTR d   1       3.085 -10.431  24.485  0.00  0.00    -0.028 A 
ATOM    178  CD1 DTR d   1       1.941 -10.635  25.218  0.00  0.00    -0.015 A 
ATOM    179  NE1 DTR d   1       1.023  -9.646  24.939  0.00  0.00    -0.365 N 
ATOM    180  H76 DTR d   1       1.783 -11.456  25.916  0.00  0.00     0.112 H 
ATOM    181  CE2 DTR d   1       1.555  -8.784  24.015  0.00  0.00     0.042 A 
ATOM    182  H77 DTR d   1       0.086  -9.567  25.358  0.00  0.00     0.165 HD
ATOM    183  CZ2 DTR d   1       1.008  -7.646  23.428  0.00  0.00    -0.056 A 
ATOM    184  CD2 DTR d   1       2.860  -9.252  23.699  0.00  0.00    -0.002 A 
ATOM    185  CH2 DTR d   1       1.787  -6.955  22.525  0.00  0.00    -0.081 A 
ATOM    186  H78 DTR d   1       0.005  -7.315  23.672  0.00  0.00     0.086 H 
ATOM    187  CZ3 DTR d   1       3.103  -7.401  22.179  0.00  0.00    -0.082 A 
ATOM    188  H79 DTR d   1       1.395  -6.054  22.067  0.00  0.00     0.083 H 
ATOM    189  CE3 DTR d   1       3.642  -8.536  22.759  0.00  0.00    -0.070 A 
ATOM    190  H80 DTR d   1       3.684  -6.843  21.454  0.00  0.00     0.083 H 
ATOM    191  H81 DTR d   1       4.640  -8.870  22.500  0.00  0.00     0.084 H 
ENDBRANCH 174 177
ENDBRANCH  54 174
BRANCH  44 192
ATOM    192  CB  DGL d   1      -3.632 -12.779  27.468  0.00  0.00    -0.029 C 
ATOM    193  H50 DGL d   1      -3.269 -11.819  27.864  0.00  0.00     0.037 H 
ATOM    194  H51 DGL d   1      -4.090 -13.362  28.281  0.00  0.00     0.037 H 
BRANCH 192 195
ATOM    195  CG  DGL d   1      -4.714 -12.488  26.412  0.00  0.00     0.018 C 
ATOM    196  H52 DGL d   1      -4.219 -12.387  25.435  0.00  0.00     0.049 H 
ATOM    197  H53 DGL d   1      -5.202 -11.538  26.676  0.00  0.00     0.049 H 
BRANCH 195 198
ATOM    198  CD  DGL d   1      -5.802 -13.565  26.287  0.00  0.00     0.172 C 
ATOM    199  OE1 DGL d   1      -5.550 -14.772  26.556  0.00  0.00    -0.648 OA
ATOM    200  OE2 DGL d   1      -6.944 -13.174  25.931  0.00  0.00    -0.648 OA
ENDBRANCH 195 198
ENDBRANCH 192 195
ENDBRANCH  44 192
BRANCH  62 201
ATOM    201  CB  DGN d   1       2.081 -16.393  24.189  0.00  0.00    -0.030 C 
ATOM    202  H66 DGN d   1       2.189 -15.934  25.183  0.00  0.00     0.037 H 
ATOM    203  H67 DGN d   1       3.036 -16.850  23.890  0.00  0.00     0.037 H 
BRANCH 201 204
ATOM    204  CG  DGN d   1       1.022 -17.502  24.281  0.00  0.00     0.011 C 
ATOM    205  H68 DGN d   1       0.076 -17.057  24.624  0.00  0.00     0.047 H 
ATOM    206  H69 DGN d   1       1.361 -18.252  25.011  0.00  0.00     0.047 H 
BRANCH 204 207
ATOM    207  CD  DGN d   1       0.776 -18.200  22.941  0.00  0.00     0.215 C 
ATOM    208  OE1 DGN d   1       1.588 -19.003  22.485  0.00  0.00    -0.274 OA
ATOM    209  NE2 DGN d   1      -0.345 -17.881  22.306  0.00  0.00    -0.370 N 
ATOM    210  H70 DGN d   1      -0.559 -18.305  21.426  0.00  0.00     0.159 HD
ATOM    211  H71 DGN d   1      -0.975 -17.216  22.707  0.00  0.00     0.159 HD
ENDBRANCH 204 207
ENDBRANCH 201 204
ENDBRANCH  62 201
BRANCH  50 212
ATOM    212  CB  DTR d   1      -2.243 -12.649  22.309  0.00  0.00    -0.012 C 
ATOM    213  H56 DTR d   1      -2.743 -13.624  22.210  0.00  0.00     0.044 H 
ATOM    214  H57 DTR d   1      -1.756 -12.388  21.358  0.00  0.00     0.044 H 
BRANCH 212 215
ATOM    215  CG  DTR d   1      -3.298 -11.604  22.602  0.00  0.00    -0.028 A 
ATOM    216  CD1 DTR d   1      -4.576 -11.830  23.021  0.00  0.00    -0.015 A 
ATOM    217  NE1 DTR d   1      -5.249 -10.640  23.192  0.00  0.00    -0.365 N 
ATOM    218  H58 DTR d   1      -5.005 -12.815  23.196  0.00  0.00     0.112 H 
ATOM    219  CE2 DTR d   1      -4.412  -9.610  22.845  0.00  0.00     0.042 A 
ATOM    220  H59 DTR d   1      -6.219 -10.540  23.525  0.00  0.00     0.165 HD
ATOM    221  CZ2 DTR d   1      -4.632  -8.235  22.848  0.00  0.00    -0.056 A 
ATOM    222  CD2 DTR d   1      -3.166 -10.181  22.478  0.00  0.00    -0.002 A 
ATOM    223  CH2 DTR d   1      -3.595  -7.412  22.438  0.00  0.00    -0.081 A 
ATOM    224  H60 DTR d   1      -5.584  -7.822  23.161  0.00  0.00     0.086 H 
ATOM    225  CZ3 DTR d   1      -2.354  -7.948  22.057  0.00  0.00    -0.082 A 
ATOM    226  H61 DTR d   1      -3.744  -6.339  22.411  0.00  0.00     0.083 H 
ATOM    227  CE3 DTR d   1      -2.134  -9.333  22.075  0.00  0.00    -0.070 A 
ATOM    228  H62 DTR d   1      -1.557  -7.283  21.745  0.00  0.00     0.083 H 
ATOM    229  H63 DTR d   1      -1.174  -9.740  21.779  0.00  0.00     0.084 H 
ENDBRANCH 212 215
ENDBRANCH  50 212
TORSDOF 40
