REMARK  16 active torsions:
REMARK  status: ('A' for Active; 'I' for Inactive)
REMARK    1  A    between atoms: N7_7  and  C18_18 
REMARK    2  A    between atoms: C8_8  and  C11_11 
REMARK       I    between atoms: C11_11  and  N12_12 
REMARK    3  A    between atoms: N12_12  and  C13_13 
REMARK    4  A    between atoms: C13_13  and  C14_14 
REMARK    5  A    between atoms: C13_13  and  C15_15 
REMARK    6  A    between atoms: C13_13  and  C16_16 
REMARK    7  A    between atoms: C18_18  and  C19_19 
REMARK    8  A    between atoms: C19_19  and  C20_20 
REMARK    9  A    between atoms: C19_19  and  O21_21 
REMARK   10  A    between atoms: C20_20  and  N22_22 
REMARK   11  A    between atoms: C20_20  and  C23_23 
REMARK       I    between atoms: N22_22  and  C24_24 
REMARK   12  A    between atoms: C23_23  and  S74_34 
REMARK   13  A    between atoms: C24_24  and  C29_26 
REMARK   14  A    between atoms: C33_30  and  O38_32 
REMARK   15  A    between atoms: C34_31  and  C39_33 
REMARK   16  A    between atoms: S74_34  and  C77_35 
ROOT
ATOM      1  C1  1UN d   1      25.367  -9.485  -1.757  0.00  0.00    -0.027 C 
ATOM      2  C2  1UN d   1      26.047  -8.159  -2.302  0.00  0.00    -0.047 C 
ATOM      3  C3  1UN d   1      25.438  -6.921  -1.636  0.00  0.00    -0.061 C 
ATOM      4  C4  1UN d   1      25.509  -7.044  -0.103  0.00  0.00    -0.065 C 
ATOM      5  C5  1UN d   1      24.782  -8.318   0.389  0.00  0.00    -0.065 C 
ATOM      6  C6  1UN d   1      25.463  -9.610  -0.202  0.00  0.00    -0.060 C 
ATOM      7  N7  1UN d   1      27.514 -10.754  -2.207  0.00  0.00    -0.055 N 
ATOM      8  C8  1UN d   1      28.167  -9.515  -2.777  0.00  0.00     0.180 C 
ATOM      9  C9  1UN d   1      27.593  -8.254  -2.082  0.00  0.00    -0.026 C 
ATOM     10  C10 1UN d   1      26.026 -10.730  -2.452  0.00  0.00     0.088 C 
ATOM     11  H1  1UN d   1      24.301  -9.458  -2.028  0.00  0.00     0.043 H 
ATOM     12  H2  1UN d   1      25.857  -8.088  -3.383  0.00  0.00     0.040 H 
ATOM     13  H3  1UN d   1      24.386  -6.825  -1.943  0.00  0.00     0.033 H 
ATOM     14  H4  1UN d   1      25.996  -6.028  -1.954  0.00  0.00     0.033 H 
ATOM     15  H5  1UN d   1      25.034  -6.162   0.350  0.00  0.00     0.033 H 
ATOM     16  H6  1UN d   1      26.564  -7.091   0.205  0.00  0.00     0.033 H 
ATOM     17  H7  1UN d   1      23.732  -8.283   0.064  0.00  0.00     0.033 H 
ATOM     18  H8  1UN d   1      24.825  -8.357   1.487  0.00  0.00     0.033 H 
ATOM     19  H9  1UN d   1      26.516  -9.663   0.112  0.00  0.00     0.033 H 
ATOM     20  H10 1UN d   1      24.933 -10.511   0.141  0.00  0.00     0.033 H 
ATOM     21  H11 1UN d   1      27.701 -10.790  -1.217  0.00  0.00     0.281 HD
ATOM     22  H12 1UN d   1      27.983  -9.470  -3.861  0.00  0.00     0.100 H 
ATOM     23  H13 1UN d   1      27.802  -8.309  -1.003  0.00  0.00     0.037 H 
ATOM     24  H14 1UN d   1      28.074  -7.359  -2.503  0.00  0.00     0.037 H 
ATOM     25  H15 1UN d   1      25.840 -10.679  -3.535  0.00  0.00     0.076 H 
ATOM     26  H16 1UN d   1      25.579 -11.649  -2.045  0.00  0.00     0.076 H 
ENDROOT
BRANCH   7  27
ATOM     27  C18 1UN d   1      27.994 -12.001  -2.851  0.00  0.00     0.110 C 
ATOM     28  H27 1UN d   1      29.036 -11.877  -3.180  0.00  0.00     0.080 H 
ATOM     29  H28 1UN d   1      27.362 -12.243  -3.718  0.00  0.00     0.080 H 
BRANCH  27  30
ATOM     30  C19 1UN d   1      27.904 -13.128  -1.802  0.00  0.00     0.079 C 
ATOM     31  H29 1UN d   1      26.974 -13.003  -1.229  0.00  0.00     0.088 H 
BRANCH  30  32
ATOM     32  C20 1UN d   1      29.060 -13.211  -0.786  0.00  0.00     0.047 C 
ATOM     33  H30 1UN d   1      29.158 -12.255  -0.250  0.00  0.00     0.077 H 
BRANCH  32  34
ATOM     34  N22 1UN d   1      28.674 -14.314   0.115  0.00  0.00    -0.349 N 
ATOM     35  C24 1UN d   1      28.324 -14.003   1.417  0.00  0.00     0.252 C 
ATOM     36  O25 1UN d   1      28.331 -12.829   1.846  0.00  0.00    -0.268 OA
ATOM     37  H32 1UN d   1      28.666 -15.261  -0.207  0.00  0.00     0.163 HD
BRANCH  35  38
ATOM     38  C29 1UN d   1      27.932 -15.116   2.276  0.00  0.00     0.040 A 
ATOM     39  C30 1UN d   1      28.854 -16.159   2.510  0.00  0.00    -0.067 A 
ATOM     40  C31 1UN d   1      28.543 -17.269   3.329  0.00  0.00    -0.079 A 
ATOM     41  H35 1UN d   1      29.833 -16.107   2.047  0.00  0.00     0.085 H 
ATOM     42  C32 1UN d   1      27.274 -17.332   3.924  0.00  0.00    -0.050 A 
ATOM     43  H36 1UN d   1      29.270 -18.055   3.494  0.00  0.00     0.083 H 
ATOM     44  C33 1UN d   1      26.332 -16.301   3.707  0.00  0.00     0.072 A 
ATOM     45  H37 1UN d   1      27.015 -18.176   4.553  0.00  0.00     0.087 H 
ATOM     46  C34 1UN d   1      26.626 -15.170   2.883  0.00  0.00    -0.013 A 
BRANCH  44  47
ATOM     47  O38 1UN d   1      25.079 -16.388   4.308  0.00  0.00    -0.360 OA
ATOM     48  H38 1UN d   1      25.030 -17.186   4.821  0.00  0.00     0.217 HD
ENDBRANCH  44  47
BRANCH  46  49
ATOM     49  C39 1UN d   1      25.557 -14.108   2.704  0.00  0.00    -0.048 C 
ATOM     50  H39 1UN d   1      25.938 -13.312   2.047  0.00  0.00     0.033 H 
ATOM     51  H40 1UN d   1      25.296 -13.682   3.684  0.00  0.00     0.033 H 
ATOM     52  H41 1UN d   1      24.663 -14.561   2.251  0.00  0.00     0.033 H 
ENDBRANCH  46  49
ENDBRANCH  35  38
ENDBRANCH  32  34
BRANCH  32  53
ATOM     53  C23 1UN d   1      30.405 -13.615  -1.363  0.00  0.00     0.003 C 
ATOM     54  H33 1UN d   1      30.587 -13.047  -2.288  0.00  0.00     0.052 H 
ATOM     55  H34 1UN d   1      30.393 -14.691  -1.590  0.00  0.00     0.052 H 
BRANCH  53  56
ATOM     56  S74 1UN d   1      31.725 -13.273  -0.189  0.00  0.00    -0.128 SA
BRANCH  56  57
ATOM     57  C77 1UN d   1      32.004 -14.743   0.691  0.00  0.00     0.000 A 
ATOM     58  C78 1UN d   1      32.397 -14.605   2.046  0.00  0.00    -0.067 A 
ATOM     59  C79 1UN d   1      32.639 -15.787   2.791  0.00  0.00    -0.082 A 
ATOM     60  H42 1UN d   1      32.509 -13.626   2.498  0.00  0.00     0.085 H 
ATOM     61  C80 1UN d   1      32.489 -17.057   2.180  0.00  0.00    -0.083 A 
ATOM     62  H43 1UN d   1      32.939 -15.719   3.830  0.00  0.00     0.083 H 
ATOM     63  C81 1UN d   1      32.095 -17.182   0.821  0.00  0.00    -0.082 A 
ATOM     64  H44 1UN d   1      32.679 -17.952   2.762  0.00  0.00     0.083 H 
ATOM     65  C82 1UN d   1      31.851 -16.004   0.072  0.00  0.00    -0.067 A 
ATOM     66  H45 1UN d   1      31.983 -18.159   0.366  0.00  0.00     0.083 H 
ATOM     67  H46 1UN d   1      31.549 -16.070  -0.967  0.00  0.00     0.085 H 
ENDBRANCH  56  57
ENDBRANCH  53  56
ENDBRANCH  32  53
ENDBRANCH  30  32
BRANCH  30  68
ATOM     68  O21 1UN d   1      27.830 -14.324  -2.595  0.00  0.00    -0.392 OA
ATOM     69  H31 1UN d   1      27.112 -14.249  -3.212  0.00  0.00     0.210 HD
ENDBRANCH  30  68
ENDBRANCH  27  30
ENDBRANCH   7  27
BRANCH   8  70
ATOM     70  C11 1UN d   1      29.641  -9.520  -2.507  0.00  0.00     0.249 C 
ATOM     71  N12 1UN d   1      30.351  -9.088  -3.582  0.00  0.00    -0.351 N 
ATOM     72  H17 1UN d   1      29.834  -8.824  -4.396  0.00  0.00     0.163 HD
ATOM     73  O17 1UN d   1      30.058  -9.891  -1.397  0.00  0.00    -0.271 OA
BRANCH  71  74
ATOM     74  C13 1UN d   1      31.856  -8.972  -3.652  0.00  0.00     0.022 C 
BRANCH  74  75
ATOM     75  C14 1UN d   1      32.408  -7.971  -2.587  0.00  0.00    -0.054 C 
ATOM     76  H18 1UN d   1      33.503  -7.915  -2.670  0.00  0.00     0.030 H 
ATOM     77  H19 1UN d   1      32.134  -8.319  -1.580  0.00  0.00     0.030 H 
ATOM     78  H20 1UN d   1      31.975  -6.975  -2.761  0.00  0.00     0.030 H 
ENDBRANCH  74  75
BRANCH  74  79
ATOM     79  C15 1UN d   1      32.498 -10.371  -3.386  0.00  0.00    -0.054 C 
ATOM     80  H21 1UN d   1      33.594 -10.287  -3.437  0.00  0.00     0.030 H 
ATOM     81  H22 1UN d   1      32.149 -11.085  -4.146  0.00  0.00     0.030 H 
ATOM     82  H23 1UN d   1      32.203 -10.726  -2.387  0.00  0.00     0.030 H 
ENDBRANCH  74  79
BRANCH  74  83
ATOM     83  C16 1UN d   1      32.185  -8.430  -5.072  0.00  0.00    -0.054 C 
ATOM     84  H24 1UN d   1      33.275  -8.325  -5.181  0.00  0.00     0.030 H 
ATOM     85  H25 1UN d   1      31.706  -7.449  -5.210  0.00  0.00     0.030 H 
ATOM     86  H26 1UN d   1      31.807  -9.133  -5.829  0.00  0.00     0.030 H 
ENDBRANCH  74  83
ENDBRANCH  71  74
ENDBRANCH   8  70
TORSDOF 16
