REMARK  5 active torsions:
REMARK  status: ('A' for Active; 'I' for Inactive)
REMARK    1  A    between atoms: C1_1  and  N1_28 
REMARK    2  A    between atoms: C4_4  and  C7_7 
REMARK    3  A    between atoms: C7_7  and  C8_8 
REMARK       I    between atoms: C8_8  and  N9_9 
REMARK    4  A    between atoms: N9_9  and  C10_10 
REMARK    5  A    between atoms: C16_16  and  N19_19 
ROOT
ATOM      1  C8  740 d   1      23.215  28.510  28.630  0.00  0.00     0.227 C 
ATOM      2  N9  740 d   1      23.581  29.776  29.000  0.00  0.00    -0.311 N 
ATOM      3  O24 740 d   1      23.867  27.714  27.969  0.00  0.00    -0.273 OA
ATOM      4  H7  740 d   1      22.883  30.235  29.549  0.00  0.00     0.170 HD
ENDROOT
BRANCH   1   5
ATOM      5  C7  740 d   1      21.786  28.137  29.109  0.00  0.00     0.033 C 
ATOM      6  H5  740 d   1      21.373  28.980  29.683  0.00  0.00     0.054 H 
ATOM      7  H6  740 d   1      21.155  27.949  28.228  0.00  0.00     0.054 H 
BRANCH   5   8
ATOM      8  C4  740 d   1      21.783  26.910  29.979  0.00  0.00    -0.049 A 
ATOM      9  C3  740 d   1      22.041  25.607  29.442  0.00  0.00    -0.074 A 
ATOM     10  C2  740 d   1      22.034  24.464  30.328  0.00  0.00    -0.057 A 
ATOM     11  H2  740 d   1      22.239  25.479  28.384  0.00  0.00     0.084 H 
ATOM     12  C1  740 d   1      21.767  24.666  31.732  0.00  0.00     0.030 A 
ATOM     13  H1  740 d   1      22.227  23.469  29.943  0.00  0.00     0.086 H 
ATOM     14  C6  740 d   1      21.520  25.966  32.208  0.00  0.00    -0.057 A 
ATOM     15  C5  740 d   1      21.527  27.067  31.350  0.00  0.00    -0.074 A 
ATOM     16  H4  740 d   1      21.320  26.116  33.263  0.00  0.00     0.086 H 
ATOM     17  H3  740 d   1      21.332  28.056  31.748  0.00  0.00     0.084 H 
BRANCH  12  18
ATOM     18  N1  740 d   1      21.736  23.588  32.652  0.00  0.00    -0.381 N 
ATOM     19  C11 740 d   1      22.664  23.619  33.846  0.00  0.00    -0.005 C 
ATOM     20  C23 740 d   1      22.728  22.302  34.682  0.00  0.00    -0.050 C 
ATOM     21  H18 740 d   1      22.331  24.428  34.513  0.00  0.00     0.064 H 
ATOM     22  H19 740 d   1      23.678  23.838  33.481  0.00  0.00     0.064 H 
ATOM     23  C21 740 d   1      21.362  21.588  34.704  0.00  0.00    -0.062 C 
ATOM     24  H26 740 d   1      23.022  22.546  35.714  0.00  0.00     0.035 H 
ATOM     25  H27 740 d   1      23.477  21.630  34.236  0.00  0.00     0.035 H 
ATOM     26  C20 740 d   1      20.993  21.216  33.260  0.00  0.00    -0.050 C 
ATOM     27  H24 740 d   1      21.427  20.678  35.318  0.00  0.00     0.033 H 
ATOM     28  H25 740 d   1      20.598  22.259  35.123  0.00  0.00     0.033 H 
ATOM     29  C19 740 d   1      20.745  22.498  32.432  0.00  0.00    -0.005 C 
ATOM     30  H22 740 d   1      21.817  20.645  32.809  0.00  0.00     0.035 H 
ATOM     31  H23 740 d   1      20.080  20.602  33.264  0.00  0.00     0.035 H 
ATOM     32  H20 740 d   1      20.767  22.226  31.366  0.00  0.00     0.064 H 
ATOM     33  H21 740 d   1      19.748  22.885  32.691  0.00  0.00     0.064 H 
ENDBRANCH  12  18
ENDBRANCH   5   8
ENDBRANCH   1   5
BRANCH   2  34
ATOM     34  C10 740 d   1      24.784  30.626  28.770  0.00  0.00     0.137 A 
ATOM     35  N11 740 d   1      24.974  31.861  29.232  0.00  0.00    -0.261 N 
ATOM     36  N12 740 d   1      26.168  32.358  28.829  0.00  0.00    -0.172 NA
ATOM     37  H8  740 d   1      24.300  32.372  29.820  0.00  0.00     0.191 HD
ATOM     38  C13 740 d   1      26.864  31.472  28.057  0.00  0.00     0.091 A 
ATOM     39  C14 740 d   1      28.102  31.509  27.420  0.00  0.00    -0.050 A 
ATOM     40  C18 740 d   1      25.983  30.286  27.977  0.00  0.00     0.042 A 
ATOM     41  C15 740 d   1      28.529  30.388  26.672  0.00  0.00    -0.054 A 
ATOM     42  H9  740 d   1      28.732  32.388  27.497  0.00  0.00     0.087 H 
ATOM     43  C16 740 d   1      27.695  29.218  26.567  0.00  0.00     0.045 A 
ATOM     44  H10 740 d   1      29.491  30.409  26.174  0.00  0.00     0.087 H 
ATOM     45  C17 740 d   1      26.431  29.186  27.227  0.00  0.00    -0.041 A 
ATOM     46  H11 740 d   1      25.808  28.302  27.149  0.00  0.00     0.088 H 
BRANCH  43  47
ATOM     47  N19 740 d   1      28.137  28.146  25.821  0.00  0.00    -0.276 N 
ATOM     48  C22 740 d   1      28.094  26.742  26.235  0.00  0.00     0.011 C 
ATOM     49  C9  740 d   1      28.703  25.878  25.078  0.00  0.00    -0.035 C 
ATOM     50  H12 740 d   1      27.053  26.439  26.419  0.00  0.00     0.066 H 
ATOM     51  H13 740 d   1      28.684  26.605  27.153  0.00  0.00     0.066 H 
ATOM     52  C12 740 d   1      28.648  26.654  23.761  0.00  0.00     0.048 C 
ATOM     53  H14 740 d   1      28.126  24.947  24.976  0.00  0.00     0.036 H 
ATOM     54  H15 740 d   1      29.750  25.637  25.315  0.00  0.00     0.036 H 
ATOM     55  S1  740 d   1      28.782  28.325  24.364  0.00  0.00     0.233 S 
ATOM     56  H16 740 d   1      27.698  26.488  23.231  0.00  0.00     0.059 H 
ATOM     57  H17 740 d   1      29.487  26.392  23.100  0.00  0.00     0.059 H 
ATOM     58  O2  740 d   1      27.914  29.255  23.553  0.00  0.00    -0.205 OA
ATOM     59  O3  740 d   1      30.192  28.715  24.696  0.00  0.00    -0.205 OA
ENDBRANCH  43  47
ENDBRANCH   2  34
TORSDOF 5
