REMARK  8 active torsions:
REMARK  status: ('A' for Active; 'I' for Inactive)
REMARK    1  A    between atoms: O3A_8  and  PB_1 
REMARK    2  A    between atoms: PA_5  and  O3A_8 
REMARK    3  A    between atoms: PA_5  and  O5'_9 
REMARK    4  A    between atoms: O5'_9  and  C5'_10 
REMARK    5  A    between atoms: C5'_10  and  C4'_11 
REMARK    6  A    between atoms: C3'_13  and  O3'_14 
REMARK    7  A    between atoms: C2'_15  and  O2'_16 
REMARK    8  A    between atoms: C1'_17  and  N9_18 
ROOT
ATOM      1  C4' ADP d   1      56.670  30.451  21.767  0.00  0.00     0.089 C 
ATOM      2  O4' ADP d   1      55.738  31.047  22.677  0.00  0.00    -0.353 OA
ATOM      3  C3' ADP d   1      57.519  29.517  22.616  0.00  0.00     0.091 C 
ATOM      4  C2' ADP d   1      56.680  29.238  23.836  0.00  0.00     0.105 C 
ATOM      5  C1' ADP d   1      55.981  30.566  24.010  0.00  0.00     0.139 C 
ATOM      6  H3  ADP d   1      57.309  31.236  21.336  0.00  0.00     0.090 H 
ATOM      7  H4  ADP d   1      57.754  28.590  22.072  0.00  0.00     0.091 H 
ATOM      8  H6  ADP d   1      55.959  28.429  23.644  0.00  0.00     0.093 H 
ATOM      9  H8  ADP d   1      56.647  31.269  24.531  0.00  0.00     0.122 H 
ENDROOT
BRANCH   5  10
ATOM     10  N9  ADP d   1      54.747  30.415  24.820  0.00  0.00    -0.294 N 
ATOM     11  C8  ADP d   1      53.603  29.810  24.444  0.00  0.00     0.071 A 
ATOM     12  N7  ADP d   1      52.683  29.859  25.442  0.00  0.00    -0.236 NA
ATOM     13  H9  ADP d   1      53.439  29.345  23.473  0.00  0.00     0.144 H 
ATOM     14  C5  ADP d   1      53.245  30.509  26.474  0.00  0.00     0.149 A 
ATOM     15  C6  ADP d   1      52.834  30.911  27.829  0.00  0.00     0.155 A 
ATOM     16  C4  ADP d   1      54.602  30.870  26.061  0.00  0.00     0.167 A 
ATOM     17  N6  ADP d   1      51.601  30.617  28.288  0.00  0.00    -0.382 N 
ATOM     18  N1  ADP d   1      53.725  31.572  28.596  0.00  0.00    -0.222 NA
ATOM     19  H10 ADP d   1      51.323  30.903  29.238  0.00  0.00     0.157 HD
ATOM     20  H11 ADP d   1      50.937  30.107  27.689  0.00  0.00     0.157 HD
ATOM     21  C2  ADP d   1      54.960  31.876  28.158  0.00  0.00     0.091 A 
ATOM     22  N3  ADP d   1      55.394  31.541  26.930  0.00  0.00    -0.222 NA
ATOM     23  H12 ADP d   1      55.631  32.411  28.820  0.00  0.00     0.146 H 
ENDBRANCH   5  10
BRANCH   4  24
ATOM     24  O2' ADP d   1      57.463  28.899  24.978  0.00  0.00    -0.388 OA
ATOM     25  H7  ADP d   1      58.047  29.619  25.185  0.00  0.00     0.210 HD
ENDBRANCH   4  24
BRANCH   1  26
ATOM     26  C5' ADP d   1      55.983  29.710  20.609  0.00  0.00     0.058 C 
ATOM     27  H1  ADP d   1      56.045  30.340  19.709  0.00  0.00     0.079 H 
ATOM     28  H2  ADP d   1      56.521  28.767  20.434  0.00  0.00     0.079 H 
BRANCH  26  29
ATOM     29  O5' ADP d   1      54.612  29.407  20.852  0.00  0.00    -0.287 OA
BRANCH  29  30
ATOM     30  PA  ADP d   1      54.004  27.922  20.698  0.00  0.00     0.418 P 
ATOM     31  O1A ADP d   1      54.552  27.024  21.776  0.00  0.00    -0.624 OA
ATOM     32  O2A ADP d   1      52.519  28.136  20.612  0.00  0.00    -0.624 OA
BRANCH  30  33
ATOM     33  O3A ADP d   1      54.524  27.331  19.293  0.00  0.00    -0.173 OA
BRANCH  33  34
ATOM     34  PB  ADP d   1      54.019  25.898  18.728  0.00  0.00     0.431 P 
ATOM     35  O1B ADP d   1      54.401  25.955  17.275  0.00  0.00    -0.616 OA
ATOM     36  O2B ADP d   1      54.788  24.871  19.516  0.00  0.00    -0.616 OA
ATOM     37  O3B ADP d   1      52.528  25.831  18.946  0.00  0.00    -0.616 OA
ENDBRANCH  33  34
ENDBRANCH  30  33
ENDBRANCH  29  30
ENDBRANCH  26  29
ENDBRANCH   1  26
BRANCH   3  38
ATOM     38  O3' ADP d   1      58.721  30.174  23.016  0.00  0.00    -0.390 OA
ATOM     39  H5  ADP d   1      59.243  29.582  23.545  0.00  0.00     0.210 HD
ENDBRANCH   3  38
TORSDOF 8
