REMARK  6 active torsions:
REMARK  status: ('A' for Active; 'I' for Inactive)
REMARK    1  A    between atoms: C11_1  and  C12_2 
REMARK    2  A    between atoms: C12_2  and  C13_3 
REMARK    3  A    between atoms: C16_6  and  N19_24 
REMARK    4  A    between atoms: N22_25  and  C31_12 
REMARK    5  A    between atoms: C06_18  and  C09_31 
REMARK    6  A    between atoms: N08_20  and  C25_27 
ROOT
ATOM      1  C11 CKE d   1      33.909   6.145   4.344  0.00  0.00     0.019 A 
ATOM      2  N01 CKE d   1      36.660   8.415   7.238  0.00  0.00    -0.239 NA
ATOM      3  C02 CKE d   1      35.906   7.249   7.147  0.00  0.00     0.018 A 
ATOM      4  C03 CKE d   1      35.201   6.970   6.005  0.00  0.00     0.030 A 
ATOM      5  C04 CKE d   1      35.268   7.849   4.992  0.00  0.00     0.144 A 
ATOM      6  N05 CKE d   1      35.993   8.995   5.040  0.00  0.00    -0.209 NA
ATOM      7  C06 CKE d   1      36.681   9.272   6.167  0.00  0.00     0.168 A 
ATOM      8  C07 CKE d   1      34.344   5.855   5.646  0.00  0.00    -0.046 A 
ATOM      9  N08 CKE d   1      34.481   7.371   3.932  0.00  0.00    -0.330 N 
ATOM     10  H18 CKE d   1      35.876   6.559   7.982  0.00  0.00     0.116 H 
ATOM     11  H19 CKE d   1      34.094   4.986   6.253  0.00  0.00     0.088 H 
ENDROOT
BRANCH   1  12
ATOM     12  C12 CKE d   1      32.967   5.260   3.547  0.00  0.00    -0.003 C 
ATOM     13  H1  CKE d   1      33.028   4.230   3.927  0.00  0.00     0.049 H 
ATOM     14  H2  CKE d   1      33.261   5.278   2.487  0.00  0.00     0.049 H 
BRANCH  12  15
ATOM     15  C13 CKE d   1      31.530   5.763   3.680  0.00  0.00    -0.052 A 
ATOM     16  C14 CKE d   1      30.908   6.513   2.631  0.00  0.00    -0.075 A 
ATOM     17  C15 CKE d   1      29.567   6.987   2.773  0.00  0.00    -0.062 A 
ATOM     18  H3  CKE d   1      31.459   6.723   1.721  0.00  0.00     0.084 H 
ATOM     19  C16 CKE d   1      28.788   6.729   3.974  0.00  0.00     0.010 A 
ATOM     20  H4  CKE d   1      29.119   7.553   1.965  0.00  0.00     0.086 H 
ATOM     21  C17 CKE d   1      29.438   5.972   5.016  0.00  0.00    -0.062 A 
ATOM     22  C18 CKE d   1      30.777   5.502   4.870  0.00  0.00    -0.075 A 
ATOM     23  H21 CKE d   1      28.897   5.756   5.930  0.00  0.00     0.086 H 
ATOM     24  H22 CKE d   1      31.233   4.937   5.675  0.00  0.00     0.084 H 
BRANCH  19  25
ATOM     25  N19 CKE d   1      27.405   7.239   4.102  0.00  0.00    -0.280 NA
ATOM     26  C20 CKE d   1      26.437   6.462   4.932  0.00  0.00     0.006 C 
ATOM     27  C21 CKE d   1      25.760   5.274   4.201  0.00  0.00     0.094 C 
ATOM     28  H5  CKE d   1      26.977   6.064   5.804  0.00  0.00     0.058 H 
ATOM     29  H6  CKE d   1      25.648   7.150   5.271  0.00  0.00     0.058 H 
ATOM     30  N22 CKE d   1      25.103   5.729   2.948  0.00  0.00    -0.073 N 
ATOM     31  H7  CKE d   1      25.003   4.827   4.863  0.00  0.00     0.077 H 
ATOM     32  H8  CKE d   1      26.523   4.521   3.955  0.00  0.00     0.077 H 
ATOM     33  C23 CKE d   1      26.115   6.352   2.060  0.00  0.00     0.094 C 
ATOM     34  H23 CKE d   1      24.395   6.410   3.173  0.00  0.00     0.279 HD
ATOM     35  C24 CKE d   1      26.780   7.560   2.765  0.00  0.00     0.006 C 
ATOM     36  H24 CKE d   1      26.886   5.608   1.811  0.00  0.00     0.077 H 
ATOM     37  H25 CKE d   1      25.625   6.696   1.137  0.00  0.00     0.077 H 
ATOM     38  H9  CKE d   1      27.566   7.953   2.104  0.00  0.00     0.058 H 
ATOM     39  H10 CKE d   1      26.012   8.332   2.921  0.00  0.00     0.058 H 
BRANCH  30  40
ATOM     40  C31 CKE d   1      24.470   4.580   2.263  0.00  0.00     0.066 C 
ATOM     41  H15 CKE d   1      23.987   4.926   1.337  0.00  0.00     0.068 H 
ATOM     42  H16 CKE d   1      23.715   4.129   2.924  0.00  0.00     0.068 H 
ATOM     43  H17 CKE d   1      25.237   3.831   2.018  0.00  0.00     0.068 H 
ENDBRANCH  30  40
ENDBRANCH  19  25
ENDBRANCH  12  15
ENDBRANCH   1  12
BRANCH   9  44
ATOM     44  C25 CKE d   1      34.262   8.006   2.606  0.00  0.00     0.018 C 
ATOM     45  C27 CKE d   1      34.110   9.559   2.696  0.00  0.00    -0.046 C 
ATOM     46  C29 CKE d   1      33.880  10.149   1.287  0.00  0.00    -0.063 C 
ATOM     47  H11 CKE d   1      35.026   9.991   3.127  0.00  0.00     0.036 H 
ATOM     48  H12 CKE d   1      33.252   9.805   3.338  0.00  0.00     0.036 H 
ATOM     49  C30 CKE d   1      35.044   9.791   0.338  0.00  0.00    -0.065 C 
ATOM     50  H31 CKE d   1      33.803  11.244   1.364  0.00  0.00     0.033 H 
ATOM     51  H32 CKE d   1      32.944   9.743   0.876  0.00  0.00     0.033 H 
ATOM     52  C28 CKE d   1      35.245   8.262   0.250  0.00  0.00    -0.063 C 
ATOM     53  H13 CKE d   1      34.821  10.182  -0.666  0.00  0.00     0.033 H 
ATOM     54  H14 CKE d   1      35.968  10.253   0.715  0.00  0.00     0.033 H 
ATOM     55  C26 CKE d   1      35.437   7.638   1.655  0.00  0.00    -0.046 C 
ATOM     56  H29 CKE d   1      36.136   8.052  -0.360  0.00  0.00     0.033 H 
ATOM     57  H30 CKE d   1      34.361   7.811  -0.225  0.00  0.00     0.033 H 
ATOM     58  H27 CKE d   1      35.488   6.544   1.556  0.00  0.00     0.036 H 
ATOM     59  H28 CKE d   1      36.377   8.012   2.087  0.00  0.00     0.036 H 
ATOM     60  H26 CKE d   1      33.331   7.600   2.184  0.00  0.00     0.073 H 
ENDBRANCH   9  44
BRANCH   7  61
ATOM     61  C09 CKE d   1      37.458  10.512   6.239  0.00  0.00     0.040 C 
ATOM     62  N10 CKE d   1      38.118  10.805   7.300  0.00  0.00    -0.308 NA
ATOM     63  H20 CKE d   1      38.650  11.660   7.342  0.00  0.00     0.186 HD
ATOM     64  H33 CKE d   1      37.476  11.190   5.387  0.00  0.00     0.119 H 
ENDBRANCH   7  61
TORSDOF 6
