REMARK  10 active torsions:
REMARK  status: ('A' for Active; 'I' for Inactive)
REMARK    1  A    between atoms: C64_33  and  C7_4 
REMARK    2  A    between atoms: C15_5  and  C12_11 
REMARK    3  A    between atoms: C16_25  and  C15_5 
REMARK    4  A    between atoms: O27_28  and  C20_6 
REMARK    5  A    between atoms: C28_9  and  O27_28 
REMARK    6  A    between atoms: C29_29  and  C28_9 
REMARK    7  A    between atoms: C11_12  and  C14_13 
REMARK    8  A    between atoms: C52_16  and  O59_17 
REMARK    9  A    between atoms: C1_23  and  O13_24 
REMARK   10  A    between atoms: N61_30  and  C29_29 
ROOT
ATOM      1  C20 LLB d   1      14.197  55.095  63.794  0.00  0.00     0.068 A 
ATOM      2  C21 LLB d   1      14.814  55.776  62.711  0.00  0.00    -0.050 A 
ATOM      3  C22 LLB d   1      14.495  55.392  61.370  0.00  0.00    -0.067 A 
ATOM      4  C16 LLB d   1      13.562  54.328  61.160  0.00  0.00     0.015 A 
ATOM      5  C19 LLB d   1      13.277  54.073  63.596  0.00  0.00    -0.050 A 
ATOM      6  C18 LLB d   1      12.950  53.682  62.285  0.00  0.00    -0.067 A 
ATOM      7  H6  LLB d   1      15.519  56.578  62.898  0.00  0.00     0.087 H 
ATOM      8  H7  LLB d   1      14.952  55.898  60.528  0.00  0.00     0.085 H 
ATOM      9  H17 LLB d   1      12.815  53.581  64.445  0.00  0.00     0.087 H 
ATOM     10  H18 LLB d   1      12.231  52.887  62.124  0.00  0.00     0.085 H 
ENDROOT
BRANCH   4  11
ATOM     11  C15 LLB d   1      13.235  53.952  59.751  0.00  0.00     0.194 C 
ATOM     12  O17 LLB d   1      13.888  54.429  58.839  0.00  0.00    -0.287 OA
BRANCH  11  13
ATOM     13  C12 LLB d   1      12.124  53.006  59.443  0.00  0.00     0.044 A 
ATOM     14  C4  LLB d   1      10.708  53.348  59.636  0.00  0.00    -0.003 A 
ATOM     15  C5  LLB d   1      10.201  54.609  60.134  0.00  0.00    -0.068 A 
ATOM     16  C3  LLB d   1       9.847  52.301  59.291  0.00  0.00     0.019 A 
ATOM     17  C6  LLB d   1       8.792  54.813  60.291  0.00  0.00    -0.050 A 
ATOM     18  H1  LLB d   1      10.892  55.404  60.390  0.00  0.00     0.085 H 
ATOM     19  C1  LLB d   1       7.942  53.747  59.939  0.00  0.00     0.067 A 
ATOM     20  H2  LLB d   1       8.396  55.750  60.666  0.00  0.00     0.087 H 
ATOM     21  C2  LLB d   1       8.454  52.484  59.442  0.00  0.00    -0.034 A 
ATOM     22  H15 LLB d   1       7.770  51.683  59.187  0.00  0.00     0.089 H 
ATOM     23  S10 LLB d   1      10.774  50.935  58.757  0.00  0.00    -0.088 SA
ATOM     24  C11 LLB d   1      12.299  51.684  58.965  0.00  0.00     0.031 A 
BRANCH  19  25
ATOM     25  O13 LLB d   1       6.593  53.899  60.035  0.00  0.00    -0.361 OA
ATOM     26  H16 LLB d   1       6.396  54.765  60.372  0.00  0.00     0.217 HD
ENDBRANCH  19  25
BRANCH  24  27
ATOM     27  C14 LLB d   1      13.605  51.045  58.654  0.00  0.00    -0.018 A 
ATOM     28  C54 LLB d   1      14.614  50.977  59.610  0.00  0.00    -0.069 A 
ATOM     29  C53 LLB d   1      15.855  50.378  59.278  0.00  0.00    -0.050 A 
ATOM     30  H10 LLB d   1      14.452  51.380  60.603  0.00  0.00     0.085 H 
ATOM     31  C52 LLB d   1      16.065  49.866  57.988  0.00  0.00     0.065 A 
ATOM     32  H11 LLB d   1      16.642  50.315  60.021  0.00  0.00     0.087 H 
ATOM     33  C51 LLB d   1      15.045  49.923  57.010  0.00  0.00    -0.050 A 
ATOM     34  C50 LLB d   1      13.806  50.526  57.360  0.00  0.00    -0.069 A 
ATOM     35  H13 LLB d   1      15.204  49.517  56.018  0.00  0.00     0.087 H 
ATOM     36  H14 LLB d   1      13.011  50.587  56.626  0.00  0.00     0.085 H 
BRANCH  31  37
ATOM     37  O59 LLB d   1      17.263  49.276  57.619  0.00  0.00    -0.361 OA
ATOM     38  H12 LLB d   1      17.968  49.906  57.716  0.00  0.00     0.217 HD
ENDBRANCH  31  37
ENDBRANCH  24  27
ENDBRANCH  11  13
ENDBRANCH   4  11
BRANCH   1  39
ATOM     39  O27 LLB d   1      14.415  55.346  65.119  0.00  0.00    -0.350 OA
BRANCH  39  40
ATOM     40  C28 LLB d   1      15.248  56.412  65.463  0.00  0.00     0.049 C 
ATOM     41  H8  LLB d   1      14.778  57.369  65.193  0.00  0.00     0.077 H 
ATOM     42  H9  LLB d   1      16.218  56.322  64.951  0.00  0.00     0.077 H 
BRANCH  40  43
ATOM     43  C29 LLB d   1      15.433  56.318  66.975  0.00  0.00     0.103 C 
ATOM     44  H19 LLB d   1      16.251  57.009  67.227  0.00  0.00     0.079 H 
ATOM     45  H20 LLB d   1      15.749  55.285  67.181  0.00  0.00     0.079 H 
BRANCH  43  46
ATOM     46  N61 LLB d   1      14.351  56.608  67.917  0.00  0.00    -0.069 N 
ATOM     47  C66 LLB d   1      13.542  55.366  68.168  0.00  0.00     0.084 C 
ATOM     48  C65 LLB d   1      12.469  55.496  69.268  0.00  0.00    -0.039 C 
ATOM     49  H22 LLB d   1      14.234  54.562  68.460  0.00  0.00     0.076 H 
ATOM     50  H23 LLB d   1      13.037  55.093  67.230  0.00  0.00     0.076 H 
ATOM     51  C64 LLB d   1      12.963  56.240  70.552  0.00  0.00    -0.055 C 
ATOM     52  H24 LLB d   1      12.145  54.485  69.557  0.00  0.00     0.035 H 
ATOM     53  H25 LLB d   1      11.614  56.051  68.854  0.00  0.00     0.035 H 
ATOM     54  C63 LLB d   1      13.775  57.496  70.260  0.00  0.00    -0.039 C 
ATOM     55  H26 LLB d   1      13.589  55.547  71.133  0.00  0.00     0.039 H 
ATOM     56  C62 LLB d   1      14.843  57.206  69.197  0.00  0.00     0.084 C 
ATOM     57  H27 LLB d   1      14.266  57.834  71.185  0.00  0.00     0.035 H 
ATOM     58  H28 LLB d   1      13.103  58.285  69.893  0.00  0.00     0.035 H 
ATOM     59  H29 LLB d   1      15.342  58.156  68.954  0.00  0.00     0.076 H 
ATOM     60  H30 LLB d   1      15.573  56.509  69.635  0.00  0.00     0.076 H 
ATOM     61  H21 LLB d   1      13.745  57.287  67.484  0.00  0.00     0.280 HD
BRANCH  51  62
ATOM     62  C7  LLB d   1      11.739  56.655  71.394  0.00  0.00    -0.073 C 
ATOM     63  H3  LLB d   1      11.132  55.766  71.621  0.00  0.00     0.028 H 
ATOM     64  H4  LLB d   1      11.133  57.378  70.829  0.00  0.00     0.028 H 
ATOM     65  H5  LLB d   1      12.079  57.116  72.333  0.00  0.00     0.028 H 
ENDBRANCH  51  62
ENDBRANCH  43  46
ENDBRANCH  40  43
ENDBRANCH  39  40
ENDBRANCH   1  39
TORSDOF 10
