REMARK  9 active torsions:
REMARK  status: ('A' for Active; 'I' for Inactive)
REMARK    1  A    between atoms: C6_3  and  O7_33 
REMARK    2  A    between atoms: C15_6  and  O17_26 
REMARK    3  A    between atoms: C18_13  and  C20_7 
REMARK    4  A    between atoms: C25_18  and  C26_10 
REMARK    5  A    between atoms: C26_10  and  N27_19 
REMARK    6  A    between atoms: C1_23  and  C18_13 
REMARK    7  A    between atoms: C23_16  and  O24_17 
REMARK    8  A    between atoms: O24_17  and  C25_18 
REMARK    9  A    between atoms: C2_30  and  C3_31 
ROOT
ATOM      1  C20 LLC d   1      11.527  -4.133  24.822  0.00  0.00     0.015 A 
ATOM      2  C21 LLC d   1      10.913  -3.348  23.852  0.00  0.00    -0.067 A 
ATOM      3  C22 LLC d   1      11.073  -3.586  22.504  0.00  0.00    -0.050 A 
ATOM      4  C33 LLC d   1      12.354  -5.215  24.422  0.00  0.00    -0.067 A 
ATOM      5  C32 LLC d   1      12.496  -5.450  23.067  0.00  0.00    -0.050 A 
ATOM      6  C23 LLC d   1      11.871  -4.664  22.107  0.00  0.00     0.068 A 
ATOM      7  H5  LLC d   1      10.287  -2.521  24.167  0.00  0.00     0.085 H 
ATOM      8  H6  LLC d   1      10.591  -2.952  21.768  0.00  0.00     0.087 H 
ATOM      9  H11 LLC d   1      12.857  -5.836  25.154  0.00  0.00     0.085 H 
ATOM     10  H12 LLC d   1      13.117  -6.277  22.742  0.00  0.00     0.087 H 
ENDROOT
BRANCH   1  11
ATOM     11  C18 LLC d   1      11.307  -3.780  26.246  0.00  0.00     0.194 C 
ATOM     12  O19 LLC d   1      12.027  -4.252  27.114  0.00  0.00    -0.287 OA
BRANCH  11  13
ATOM     13  C1  LLC d   1      10.256  -2.779  26.578  0.00  0.00     0.044 A 
ATOM     14  C12 LLC d   1       8.823  -3.059  26.427  0.00  0.00    -0.003 A 
ATOM     15  C13 LLC d   1       8.175  -4.256  25.962  0.00  0.00    -0.068 A 
ATOM     16  C11 LLC d   1       7.981  -1.954  26.776  0.00  0.00     0.019 A 
ATOM     17  C14 LLC d   1       6.784  -4.244  25.853  0.00  0.00    -0.050 A 
ATOM     18  H4  LLC d   1       8.749  -5.139  25.705  0.00  0.00     0.085 H 
ATOM     19  C15 LLC d   1       6.008  -3.160  26.243  0.00  0.00     0.067 A 
ATOM     20  H22 LLC d   1       6.288  -5.118  25.447  0.00  0.00     0.087 H 
ATOM     21  C16 LLC d   1       6.617  -1.987  26.701  0.00  0.00    -0.034 A 
ATOM     22  H24 LLC d   1       6.023  -1.127  26.989  0.00  0.00     0.089 H 
ATOM     23  S10 LLC d   1       9.104  -0.672  27.311  0.00  0.00    -0.088 SA
ATOM     24  C2  LLC d   1      10.625  -1.530  27.044  0.00  0.00     0.031 A 
BRANCH  19  25
ATOM     25  O17 LLC d   1       4.650  -3.175  26.164  0.00  0.00    -0.361 OA
ATOM     26  H23 LLC d   1       4.388  -3.308  25.261  0.00  0.00     0.217 HD
ENDBRANCH  19  25
BRANCH  24  27
ATOM     27  C3  LLC d   1      11.967  -0.991  27.343  0.00  0.00    -0.018 A 
ATOM     28  C4  LLC d   1      12.152  -0.510  28.656  0.00  0.00    -0.069 A 
ATOM     29  C5  LLC d   1      13.383  -0.004  29.019  0.00  0.00    -0.050 A 
ATOM     30  H1  LLC d   1      11.337  -0.538  29.371  0.00  0.00     0.085 H 
ATOM     31  C6  LLC d   1      14.435   0.028  28.080  0.00  0.00     0.065 A 
ATOM     32  H2  LLC d   1      13.542   0.368  30.025  0.00  0.00     0.087 H 
ATOM     33  C8  LLC d   1      14.268  -0.443  26.778  0.00  0.00    -0.050 A 
ATOM     34  C9  LLC d   1      13.029  -0.951  26.406  0.00  0.00    -0.069 A 
ATOM     35  H3  LLC d   1      15.088  -0.413  26.070  0.00  0.00     0.087 H 
ATOM     36  H25 LLC d   1      12.875  -1.317  25.397  0.00  0.00     0.085 H 
BRANCH  31  37
ATOM     37  O7  LLC d   1      15.634   0.520  28.500  0.00  0.00    -0.361 OA
ATOM     38  H26 LLC d   1      16.297  -0.156  28.422  0.00  0.00     0.217 HD
ENDBRANCH  31  37
ENDBRANCH  24  27
ENDBRANCH  11  13
ENDBRANCH   1  11
BRANCH   6  39
ATOM     39  O24 LLC d   1      11.972  -4.870  20.767  0.00  0.00    -0.350 OA
BRANCH  39  40
ATOM     40  C25 LLC d   1      12.774  -6.014  20.429  0.00  0.00     0.049 C 
ATOM     41  H13 LLC d   1      13.716  -6.002  20.998  0.00  0.00     0.077 H 
ATOM     42  H14 LLC d   1      12.226  -6.942  20.647  0.00  0.00     0.077 H 
BRANCH  40  43
ATOM     43  C26 LLC d   1      13.061  -5.904  18.913  0.00  0.00     0.103 C 
ATOM     44  H7  LLC d   1      13.780  -6.686  18.628  0.00  0.00     0.079 H 
ATOM     45  H8  LLC d   1      13.494  -4.915  18.703  0.00  0.00     0.079 H 
BRANCH  43  46
ATOM     46  N27 LLC d   1      11.824  -6.070  18.106  0.00  0.00    -0.069 N 
ATOM     47  C28 LLC d   1      12.209  -6.138  16.685  0.00  0.00     0.084 C 
ATOM     48  C29 LLC d   1      11.000  -5.561  15.895  0.00  0.00    -0.041 C 
ATOM     49  H9  LLC d   1      12.399  -7.180  16.388  0.00  0.00     0.076 H 
ATOM     50  H10 LLC d   1      13.110  -5.534  16.502  0.00  0.00     0.076 H 
ATOM     51  C30 LLC d   1      10.384  -4.512  16.864  0.00  0.00    -0.041 C 
ATOM     52  H20 LLC d   1      10.272  -6.352  15.661  0.00  0.00     0.035 H 
ATOM     53  H21 LLC d   1      11.334  -5.083  14.963  0.00  0.00     0.035 H 
ATOM     54  C31 LLC d   1      10.950  -4.899  18.265  0.00  0.00     0.084 C 
ATOM     55  H18 LLC d   1      10.696  -3.495  16.586  0.00  0.00     0.035 H 
ATOM     56  H19 LLC d   1       9.286  -4.574  16.857  0.00  0.00     0.035 H 
ATOM     57  H16 LLC d   1      11.527  -4.058  18.677  0.00  0.00     0.076 H 
ATOM     58  H17 LLC d   1      10.121  -5.144  18.945  0.00  0.00     0.076 H 
ATOM     59  H15 LLC d   1      11.339  -6.908  18.384  0.00  0.00     0.280 HD
ENDBRANCH  43  46
ENDBRANCH  40  43
ENDBRANCH  39  40
ENDBRANCH   6  39
TORSDOF 9
