REMARK  7 active torsions:
REMARK  status: ('A' for Active; 'I' for Inactive)
REMARK    1  A    between atoms: C1_1  and  O2_2 
REMARK    2  A    between atoms: O2_2  and  C3_3 
REMARK    3  A    between atoms: C23_4  and  O24_5 
REMARK    4  A    between atoms: O24_5  and  C25_6 
REMARK    5  A    between atoms: C17_13  and  C18_14 
REMARK    6  A    between atoms: C15_15  and  N16_16 
REMARK    7  A    between atoms: C9_20  and  N1_21 
ROOT
ATOM      1  C3  253 d   1      87.497  15.243  14.013  0.00  0.00     0.103 A 
ATOM      2  C23 253 d   1      86.876  16.521  14.049  0.00  0.00     0.102 A 
ATOM      3  C22 253 d   1      85.519  16.653  13.682  0.00  0.00    -0.035 A 
ATOM      4  C21 253 d   1      84.723  15.557  13.228  0.00  0.00     0.008 A 
ATOM      5  C11 253 d   1      83.320  15.555  12.769  0.00  0.00     0.004 A 
ATOM      6  C12 253 d   1      82.410  16.727  12.757  0.00  0.00     0.005 A 
ATOM      7  C19 253 d   1      81.095  16.492  12.144  0.00  0.00     0.078 A 
ATOM      8  N20 253 d   1      80.721  15.252  11.643  0.00  0.00    -0.230 NA
ATOM      9  C17 253 d   1      80.126  17.532  12.052  0.00  0.00    -0.006 A 
ATOM     10  C15 253 d   1      80.405  18.814  12.586  0.00  0.00     0.034 A 
ATOM     11  C14 253 d   1      81.650  19.059  13.198  0.00  0.00    -0.056 A 
ATOM     12  C13 253 d   1      82.617  18.050  13.271  0.00  0.00    -0.068 A 
ATOM     13  C8  253 d   1      82.798  14.281  12.265  0.00  0.00     0.039 A 
ATOM     14  C9  253 d   1      81.497  14.175  11.714  0.00  0.00     0.134 A 
ATOM     15  C7  253 d   1      83.556  13.082  12.283  0.00  0.00     0.017 A 
ATOM     16  N6  253 d   1      84.821  13.108  12.747  0.00  0.00    -0.259 NA
ATOM     17  C5  253 d   1      85.412  14.262  13.190  0.00  0.00     0.070 A 
ATOM     18  C4  253 d   1      86.743  14.126  13.584  0.00  0.00    -0.019 A 
ATOM     19  H7  253 d   1      85.059  17.633  13.748  0.00  0.00     0.089 H 
ATOM     20  H13 253 d   1      81.861  20.037  13.616  0.00  0.00     0.086 H 
ATOM     21  H14 253 d   1      83.568  18.279  13.738  0.00  0.00     0.085 H 
ATOM     22  H17 253 d   1      83.122  12.155  11.927  0.00  0.00     0.116 H 
ATOM     23  H18 253 d   1      87.208  13.147  13.561  0.00  0.00     0.091 H 
ENDROOT
BRANCH   1  24
ATOM     24  O2  253 d   1      88.850  15.185  14.400  0.00  0.00    -0.353 OA
BRANCH  24  25
ATOM     25  C1  253 d   1      89.263  14.015  15.091  0.00  0.00     0.010 C 
ATOM     26  H1  253 d   1      90.333  14.092  15.336  0.00  0.00     0.066 H 
ATOM     27  H2  253 d   1      89.095  13.134  14.454  0.00  0.00     0.066 H 
ATOM     28  H3  253 d   1      88.681  13.912  16.019  0.00  0.00     0.066 H 
ENDBRANCH  24  25
ENDBRANCH   1  24
BRANCH   2  29
ATOM     29  O24 253 d   1      87.690  17.597  14.446  0.00  0.00    -0.353 OA
BRANCH  29  30
ATOM     30  C25 253 d   1      87.505  18.826  13.730  0.00  0.00     0.010 C 
ATOM     31  H4  253 d   1      88.192  19.588  14.127  0.00  0.00     0.066 H 
ATOM     32  H5  253 d   1      86.467  19.169  13.852  0.00  0.00     0.066 H 
ATOM     33  H6  253 d   1      87.715  18.664  12.662  0.00  0.00     0.066 H 
ENDBRANCH  29  30
ENDBRANCH   2  29
BRANCH  14  34
ATOM     34  N1  253 d   1      80.958  13.053  11.221  0.00  0.00    -0.383 N 
ATOM     35  H15 253 d   1      81.494  12.174  11.238  0.00  0.00     0.157 HD
ATOM     36  H16 253 d   1      80.007  13.069  10.825  0.00  0.00     0.157 HD
ENDBRANCH  14  34
BRANCH   9  37
ATOM     37  C18 253 d   1      78.818  17.156  11.382  0.00  0.00    -0.047 C 
ATOM     38  H8  253 d   1      78.861  16.106  11.058  0.00  0.00     0.033 H 
ATOM     39  H9  253 d   1      78.655  17.803  10.508  0.00  0.00     0.033 H 
ATOM     40  H10 253 d   1      77.990  17.287  12.095  0.00  0.00     0.033 H 
ENDBRANCH   9  37
BRANCH  10  41
ATOM     41  N16 253 d   1      79.490  19.815  12.538  0.00  0.00    -0.399 N 
ATOM     42  H11 253 d   1      79.716  20.739  12.933  0.00  0.00     0.156 HD
ATOM     43  H12 253 d   1      78.569  19.651  12.106  0.00  0.00     0.156 HD
ENDBRANCH  10  41
TORSDOF 7
