REMARK WARNING: 32 MAX_TORS EXCEEDED!!!
REMARK  44 active torsions:
REMARK  status: ('A' for Active; 'I' for Inactive)
REMARK    1  A    between atoms: C_3  and  CA_2 
REMARK       I    between atoms: N_8  and  C_3 
REMARK    2  A    between atoms: C_10  and  CA_9 
REMARK       I    between atoms: N_15  and  C_10 
REMARK    3  A    between atoms: CA_16  and  N_15 
REMARK    4  A    between atoms: CA_16  and  CB_19 
REMARK    5  A    between atoms: C_17  and  CA_16 
REMARK       I    between atoms: N_22  and  C_17 
REMARK    6  A    between atoms: CB_19  and  CG2_21 
REMARK    7  A    between atoms: CB_19  and  OG1_20 
REMARK    8  A    between atoms: CA_23  and  N_22 
REMARK    9  A    between atoms: CA_23  and  CB_26 
REMARK   10  A    between atoms: C_24  and  CA_23 
REMARK       I    between atoms: N_30  and  C_24 
REMARK   11  A    between atoms: CB_26  and  CG_27 
REMARK   12  A    between atoms: CG_27  and  CD1_28 
REMARK   13  A    between atoms: CG_27  and  CD2_29 
REMARK   14  A    between atoms: CA_31  and  N_30 
REMARK   15  A    between atoms: CA_31  and  CB_34 
REMARK   16  A    between atoms: C_32  and  CA_31 
REMARK       I    between atoms: N_40  and  C_32 
REMARK   17  A    between atoms: CB_34  and  CG_35 
REMARK   18  A    between atoms: CA_41  and  N_40 
REMARK   19  A    between atoms: CA_41  and  CB_44 
REMARK   20  A    between atoms: C_42  and  CA_41 
REMARK       I    between atoms: N_49  and  C_42 
REMARK   21  A    between atoms: CB_44  and  CG_45 
REMARK   22  A    between atoms: CG_45  and  CD_46 
REMARK   23  A    between atoms: CA_50  and  N_49 
REMARK   24  A    between atoms: CA_50  and  CB_53 
REMARK   25  A    between atoms: C_51  and  CA_50 
REMARK       I    between atoms: N_57  and  C_51 
REMARK   26  A    between atoms: CB_53  and  CG_54 
REMARK   27  A    between atoms: CG_54  and  CD1_55 
REMARK   28  A    between atoms: CG_54  and  CD2_56 
REMARK   29  A    between atoms: CA_58  and  N_57 
REMARK   30  A    between atoms: CA_58  and  CB_61 
REMARK   31  A    between atoms: C_59  and  CA_58 
REMARK       I    between atoms: N_69  and  C_59 
REMARK   32  A    between atoms: CB_61  and  CG_62 
REMARK   33  A    between atoms: CZ_67  and  OH_68 
REMARK   34  A    between atoms: CA_70  and  N_69 
REMARK   35  A    between atoms: CA_70  and  CB_73 
REMARK   36  A    between atoms: C_71  and  CA_70 
REMARK       I    between atoms: C_71  and  N_77 
REMARK   37  A    between atoms: CB_73  and  CG_74 
REMARK   38  A    between atoms: N_77  and  CA_78 
REMARK   39  A    between atoms: CA_78  and  CB_81 
REMARK   40  A    between atoms: CA_78  and  C_79 
REMARK   41  A    between atoms: C_79  and  O1_85 
REMARK   42  A    between atoms: CB_81  and  CG_82 
REMARK   43  A    between atoms: CG_82  and  CD1_83 
REMARK   44  A    between atoms: CG_82  and  CD2_84 
ROOT
ATOM      1  CA  GLU d   1      -7.838  -7.517  13.281  0.00  0.00     0.090 C 
ATOM      2  H43 GLU d   1      -7.898  -8.603  13.445  0.00  0.00     0.087 H 
ENDROOT
BRANCH   1   3
ATOM      3  N   GLU d   1      -7.849  -6.853  14.597  0.00  0.00    -0.346 N 
ATOM      4  C   HIS d   1      -6.976  -7.192  15.535  0.00  0.00     0.241 C 
ATOM      5  O   HIS d   1      -6.126  -8.078  15.352  0.00  0.00    -0.271 OA
ATOM      6  H42 GLU d   1      -8.523  -6.138  14.784  0.00  0.00     0.163 HD
BRANCH   4   7
ATOM      7  CA  HIS d   1      -7.016  -6.395  16.864  0.00  0.00     0.094 C 
ATOM      8  H36 HIS d   1      -6.051  -6.549  17.369  0.00  0.00     0.088 H 
BRANCH   7   9
ATOM      9  N   HIS d   1      -7.166  -4.950  16.622  0.00  0.00    -0.346 N 
ATOM     10  C   LEU d   1      -6.310  -4.294  15.838  0.00  0.00     0.241 C 
ATOM     11  O   LEU d   1      -5.352  -4.833  15.325  0.00  0.00    -0.271 OA
ATOM     12  H35 HIS d   1      -7.920  -4.454  17.052  0.00  0.00     0.163 HD
BRANCH  10  13
ATOM     13  CA  LEU d   1      -6.591  -2.816  15.560  0.00  0.00     0.089 C 
ATOM     14  H25 LEU d   1      -6.111  -2.536  14.611  0.00  0.00     0.087 H 
BRANCH  13  15
ATOM     15  N   LEU d   1      -8.032  -2.638  15.439  0.00  0.00    -0.346 N 
ATOM     16  C   THR d   1      -8.711  -3.233  14.471  0.00  0.00     0.243 C 
ATOM     17  O   THR d   1      -8.173  -3.879  13.570  0.00  0.00    -0.271 OA
ATOM     18  H24 LEU d   1      -8.514  -2.059  16.096  0.00  0.00     0.163 HD
BRANCH  16  19
ATOM     19  CA  THR d   1     -10.232  -3.081  14.545  0.00  0.00     0.113 C 
ATOM     20  H18 THR d   1     -10.481  -2.062  14.876  0.00  0.00     0.091 H 
BRANCH  19  21
ATOM     21  N   THR d   1     -10.839  -3.296  13.227  0.00  0.00    -0.344 N 
ATOM     22  C   PRO d   1     -10.675  -2.389  12.270  0.00  0.00     0.241 C 
ATOM     23  O   PRO d   1     -10.106  -1.315  12.462  0.00  0.00    -0.271 OA
ATOM     24  H17 THR d   1     -11.374  -4.122  13.050  0.00  0.00     0.163 HD
BRANCH  22  25
ATOM     25  CA  PRO d   1     -11.205  -2.717  10.883  0.00  0.00     0.091 C 
ATOM     26  CB  PRO d   1     -10.152  -3.574  10.159  0.00  0.00    -0.036 C 
ATOM     27  CG  PRO d   1      -9.954  -2.962   8.843  0.00  0.00    -0.048 C 
ATOM     28  H11 PRO d   1     -10.513  -4.607  10.048  0.00  0.00     0.036 H 
ATOM     29  H12 PRO d   1      -9.208  -3.575  10.724  0.00  0.00     0.036 H 
ATOM     30  CD  PRO d   1     -10.307  -1.507   8.959  0.00  0.00    -0.001 C 
ATOM     31  H13 PRO d   1      -8.904  -3.069   8.534  0.00  0.00     0.035 H 
ATOM     32  H14 PRO d   1     -10.606  -3.448   8.102  0.00  0.00     0.035 H 
ATOM     33  N   PRO d   1     -11.253  -1.481  10.090  0.00  0.00    -0.337 N 
ATOM     34  H15 PRO d   1      -9.415  -0.901   9.176  0.00  0.00     0.064 H 
ATOM     35  H16 PRO d   1     -10.783  -1.142   8.037  0.00  0.00     0.064 H 
ATOM     36  C   PRO d   1     -12.073  -0.465  10.421  0.00  0.00     0.251 C 
ATOM     37  O   PRO d   1     -12.869  -0.524  11.351  0.00  0.00    -0.271 OA
ATOM     38  H10 PRO d   1     -12.184  -3.215  10.937  0.00  0.00     0.087 H 
BRANCH  36  39
ATOM     39  CA  PRO d   1     -11.981   0.815   9.602  0.00  0.00     0.178 C 
ATOM     40  CB  PRO d   1     -10.771   1.652  10.072  0.00  0.00    -0.028 C 
ATOM     41  CG  PRO d   1     -11.300   3.013  10.330  0.00  0.00    -0.040 C 
ATOM     42  H4  PRO d   1      -9.999   1.683   9.289  0.00  0.00     0.036 H 
ATOM     43  H5  PRO d   1     -10.344   1.226  10.992  0.00  0.00     0.036 H 
ATOM     44  CD  PRO d   1     -12.744   2.813  10.725  0.00  0.00     0.083 C 
ATOM     45  H6  PRO d   1     -10.741   3.495  11.146  0.00  0.00     0.035 H 
ATOM     46  H7  PRO d   1     -11.231   3.631   9.423  0.00  0.00     0.035 H 
ATOM     47  N   PRO d   1     -13.129   1.673   9.884  0.00  0.00    -0.062 N 
ATOM     48  H8  PRO d   1     -12.837   2.572  11.794  0.00  0.00     0.075 H 
ATOM     49  H9  PRO d   1     -13.349   3.703  10.496  0.00  0.00     0.075 H 
ATOM     50  H1  PRO d   1     -13.833   1.134  10.363  0.00  0.00     0.278 HD
ATOM     51  H2  PRO d   1     -13.504   2.018   9.014  0.00  0.00     0.278 HD
ATOM     52  H3  PRO d   1     -11.912   0.576   8.530  0.00  0.00     0.099 H 
ENDBRANCH  36  39
ENDBRANCH  22  25
ENDBRANCH  19  21
BRANCH  19  53
ATOM     53  CB  THR d   1     -10.729  -4.081  15.597  0.00  0.00     0.060 C 
ATOM     54  H19 THR d   1     -10.229  -3.875  16.555  0.00  0.00     0.086 H 
BRANCH  53  55
ATOM     55  CG2 THR d   1     -12.244  -3.955  15.788  0.00  0.00    -0.050 C 
ATOM     56  H21 THR d   1     -12.580  -4.679  16.545  0.00  0.00     0.031 H 
ATOM     57  H22 THR d   1     -12.752  -4.160  14.834  0.00  0.00     0.031 H 
ATOM     58  H23 THR d   1     -12.488  -2.936  16.122  0.00  0.00     0.031 H 
ENDBRANCH  53  55
BRANCH  53  59
ATOM     59  OG1 THR d   1     -10.407  -5.402  15.171  0.00  0.00    -0.393 OA
ATOM     60  H20 THR d   1     -10.845  -5.584  14.348  0.00  0.00     0.210 HD
ENDBRANCH  53  59
ENDBRANCH  19  53
ENDBRANCH  16  19
ENDBRANCH  13  15
BRANCH  13  61
ATOM     61  CB  LEU d   1      -6.043  -1.917  16.663  0.00  0.00    -0.035 C 
ATOM     62  H26 LEU d   1      -5.010  -2.239  16.861  0.00  0.00     0.037 H 
ATOM     63  H27 LEU d   1      -6.659  -2.089  17.558  0.00  0.00     0.037 H 
BRANCH  61  64
ATOM     64  CG  LEU d   1      -6.006  -0.401  16.423  0.00  0.00    -0.059 C 
ATOM     65  H28 LEU d   1      -5.274  -0.198  15.627  0.00  0.00     0.038 H 
BRANCH  64  66
ATOM     66  CD1 LEU d   1      -7.336   0.172  16.016  0.00  0.00    -0.073 C 
ATOM     67  H29 LEU d   1      -7.236   1.256  15.862  0.00  0.00     0.028 H 
ATOM     68  H30 LEU d   1      -8.075  -0.019  16.808  0.00  0.00     0.028 H 
ATOM     69  H31 LEU d   1      -7.669  -0.302  15.081  0.00  0.00     0.028 H 
ENDBRANCH  64  66
BRANCH  64  70
ATOM     70  CD2 LEU d   1      -5.587   0.316  17.687  0.00  0.00    -0.073 C 
ATOM     71  H32 LEU d   1      -4.614  -0.072  18.023  0.00  0.00     0.028 H 
ATOM     72  H33 LEU d   1      -6.340   0.148  18.471  0.00  0.00     0.028 H 
ATOM     73  H34 LEU d   1      -5.502   1.394  17.486  0.00  0.00     0.028 H 
ENDBRANCH  64  70
ENDBRANCH  61  64
ENDBRANCH  13  61
ENDBRANCH  10  13
ENDBRANCH   7   9
BRANCH   7  74
ATOM     74  CB  HIS d   1      -8.117  -6.910  17.803  0.00  0.00     0.002 C 
ATOM     75  H37 HIS d   1      -8.246  -7.988  17.625  0.00  0.00     0.046 H 
ATOM     76  H38 HIS d   1      -9.052  -6.384  17.561  0.00  0.00     0.046 H 
BRANCH  74  77
ATOM     77  CG  HIS d   1      -7.824  -6.704  19.260  0.00  0.00     0.030 A 
ATOM     78  ND1 HIS d   1      -7.916  -5.475  19.878  0.00  0.00    -0.353 N 
ATOM     79  CE1 HIS d   1      -7.591  -5.600  21.154  0.00  0.00     0.063 A 
ATOM     80  H39 HIS d   1      -8.194  -4.597  19.418  0.00  0.00     0.166 HD
ATOM     81  NE2 HIS d   1      -7.254  -6.859  21.378  0.00  0.00    -0.254 NA
ATOM     82  H41 HIS d   1      -7.599  -4.802  21.895  0.00  0.00     0.143 H 
ATOM     83  CD2 HIS d   1      -7.387  -7.569  20.208  0.00  0.00     0.025 A 
ATOM     84  H40 HIS d   1      -7.180  -8.629  20.069  0.00  0.00     0.117 H 
ENDBRANCH  74  77
ENDBRANCH   7  74
ENDBRANCH   4   7
ENDBRANCH   1   3
BRANCH   1  85
ATOM     85  CB  GLU d   1      -9.028  -7.075  12.435  0.00  0.00    -0.029 C 
ATOM     86  H44 GLU d   1      -8.827  -7.362  11.392  0.00  0.00     0.037 H 
ATOM     87  H45 GLU d   1      -9.105  -5.980  12.506  0.00  0.00     0.037 H 
BRANCH  85  88
ATOM     88  CG  GLU d   1     -10.349  -7.655  12.825  0.00  0.00     0.018 C 
ATOM     89  H46 GLU d   1     -10.504  -7.521  13.906  0.00  0.00     0.049 H 
ATOM     90  H47 GLU d   1     -10.365  -8.728  12.582  0.00  0.00     0.049 H 
BRANCH  88  91
ATOM     91  CD  GLU d   1     -11.447  -6.953  12.070  0.00  0.00     0.172 C 
ATOM     92  OE2 GLU d   1     -12.027  -5.996  12.632  0.00  0.00    -0.648 OA
ATOM     93  OE1 GLU d   1     -11.697  -7.332  10.906  0.00  0.00    -0.648 OA
ENDBRANCH  88  91
ENDBRANCH  85  88
ENDBRANCH   1  85
BRANCH   1  94
ATOM     94  C   GLU d   1      -6.578  -7.211  12.493  0.00  0.00     0.241 C 
ATOM     95  O   GLU d   1      -6.023  -8.091  11.846  0.00  0.00    -0.271 OA
ATOM     96  N   LEU d   1      -6.149  -5.948  12.529  0.00  0.00    -0.346 N 
ATOM     97  H48 LEU d   1      -6.609  -5.297  13.132  0.00  0.00     0.163 HD
BRANCH  96  98
ATOM     98  CA  LEU d   1      -5.030  -5.488  11.716  0.00  0.00     0.089 C 
ATOM     99  H49 LEU d   1      -5.202  -5.812  10.679  0.00  0.00     0.087 H 
BRANCH  98 100
ATOM    100  CB  LEU d   1      -4.943  -3.950  11.731  0.00  0.00    -0.035 C 
ATOM    101  H50 LEU d   1      -3.953  -3.665  11.347  0.00  0.00     0.037 H 
ATOM    102  H51 LEU d   1      -5.041  -3.617  12.775  0.00  0.00     0.037 H 
BRANCH 100 103
ATOM    103  CG  LEU d   1      -6.010  -3.202  10.893  0.00  0.00    -0.059 C 
ATOM    104  H52 LEU d   1      -6.968  -3.728  11.019  0.00  0.00     0.038 H 
BRANCH 103 105
ATOM    105  CD1 LEU d   1      -6.167  -1.782  11.406  0.00  0.00    -0.073 C 
ATOM    106  H53 LEU d   1      -6.926  -1.257  10.807  0.00  0.00     0.028 H 
ATOM    107  H54 LEU d   1      -5.205  -1.254  11.324  0.00  0.00     0.028 H 
ATOM    108  H55 LEU d   1      -6.484  -1.806  12.459  0.00  0.00     0.028 H 
ENDBRANCH 103 105
BRANCH 103 109
ATOM    109  CD2 LEU d   1      -5.682  -3.171   9.401  0.00  0.00    -0.073 C 
ATOM    110  H56 LEU d   1      -5.568  -4.200   9.029  0.00  0.00     0.028 H 
ATOM    111  H57 LEU d   1      -4.744  -2.618   9.243  0.00  0.00     0.028 H 
ATOM    112  H58 LEU d   1      -6.497  -2.672   8.857  0.00  0.00     0.028 H 
ENDBRANCH 103 109
ENDBRANCH 100 103
ENDBRANCH  98 100
BRANCH  98 113
ATOM    113  C   LEU d   1      -3.731  -6.109  12.197  0.00  0.00     0.241 C 
ATOM    114  O   LEU d   1      -2.793  -6.245  11.416  0.00  0.00    -0.271 OA
ATOM    115  N   TYR d   1      -3.694  -6.506  13.478  0.00  0.00    -0.346 N 
ATOM    116  H59 TYR d   1      -4.516  -6.425  14.042  0.00  0.00     0.163 HD
BRANCH 115 117
ATOM    117  CA  TYR d   1      -2.462  -7.059  14.068  0.00  0.00     0.093 C 
ATOM    118  H60 TYR d   1      -1.689  -7.009  13.287  0.00  0.00     0.088 H 
BRANCH 117 119
ATOM    119  CB  TYR d   1      -1.981  -6.178  15.226  0.00  0.00    -0.014 C 
ATOM    120  H61 TYR d   1      -1.187  -6.702  15.779  0.00  0.00     0.043 H 
ATOM    121  H62 TYR d   1      -2.824  -5.971  15.902  0.00  0.00     0.043 H 
BRANCH 119 122
ATOM    122  CG  TYR d   1      -1.446  -4.890  14.692  0.00  0.00    -0.056 A 
ATOM    123  CD1 TYR d   1      -2.280  -3.792  14.539  0.00  0.00    -0.074 A 
ATOM    124  CE1 TYR d   1      -1.809  -2.594  13.978  0.00  0.00    -0.051 A 
ATOM    125  H63 TYR d   1      -3.314  -3.860  14.858  0.00  0.00     0.084 H 
ATOM    126  CZ  TYR d   1      -0.480  -2.502  13.581  0.00  0.00     0.065 A 
ATOM    127  H65 TYR d   1      -2.476  -1.748  13.856  0.00  0.00     0.087 H 
ATOM    128  CE2 TYR d   1       0.371  -3.576  13.717  0.00  0.00    -0.051 A 
ATOM    129  CD2 TYR d   1      -0.119  -4.779  14.276  0.00  0.00    -0.074 A 
ATOM    130  H66 TYR d   1       1.405  -3.500  13.399  0.00  0.00     0.087 H 
ATOM    131  H64 TYR d   1       0.547  -5.628  14.383  0.00  0.00     0.084 H 
BRANCH 126 132
ATOM    132  OH  TYR d   1      -0.013  -1.334  13.059  0.00  0.00    -0.361 OA
ATOM    133  H67 TYR d   1       0.310  -1.488  12.179  0.00  0.00     0.217 HD
ENDBRANCH 126 132
ENDBRANCH 119 122
ENDBRANCH 117 119
BRANCH 117 134
ATOM    134  C   TYR d   1      -2.579  -8.530  14.459  0.00  0.00     0.241 C 
ATOM    135  O   TYR d   1      -1.749  -9.055  15.211  0.00  0.00    -0.271 OA
ATOM    136  N   ASP d   1      -3.600  -9.195  13.922  0.00  0.00    -0.345 N 
ATOM    137  H68 ASP d   1      -4.231  -8.707  13.319  0.00  0.00     0.163 HD
BRANCH 136 138
ATOM    138  CA  ASP d   1      -3.832 -10.626  14.186  0.00  0.00     0.098 C 
ATOM    139  H69 ASP d   1      -4.833 -10.873  13.801  0.00  0.00     0.088 H 
BRANCH 138 140
ATOM    140  CB  ASP d   1      -2.823 -11.501  13.421  0.00  0.00     0.043 C 
ATOM    141  H70 ASP d   1      -2.992 -12.553  13.696  0.00  0.00     0.052 H 
ATOM    142  H71 ASP d   1      -1.806 -11.203  13.717  0.00  0.00     0.052 H 
BRANCH 140 143
ATOM    143  CG  ASP d   1      -2.947 -11.369  11.897  0.00  0.00     0.175 C 
ATOM    144  OD1 ASP d   1      -3.889 -10.718  11.413  0.00  0.00    -0.648 OA
ATOM    145  OD2 ASP d   1      -2.115 -11.949  11.164  0.00  0.00    -0.648 OA
ENDBRANCH 140 143
ENDBRANCH 138 140
BRANCH 138 146
ATOM    146  C   ASP d   1      -3.841 -10.927  15.701  0.00  0.00     0.241 C 
ATOM    147  O   ASP d   1      -3.219 -11.887  16.173  0.00  0.00    -0.271 OA
ATOM    148  N   LEU d   1      -4.573 -10.101  16.445  0.00  0.00    -0.345 N 
ATOM    149  H72 LEU d   1      -5.076  -9.370  15.985  0.00  0.00     0.163 HD
BRANCH 148 150
ATOM    150  CA  LEU d   1      -4.682 -10.206  17.906  0.00  0.00     0.093 C 
ATOM    151  H73 LEU d   1      -3.903 -10.894  18.265  0.00  0.00     0.089 H 
BRANCH 150 152
ATOM    152  CB  LEU d   1      -4.453  -8.824  18.531  0.00  0.00    -0.034 C 
ATOM    153  H74 LEU d   1      -5.016  -8.811  19.476  0.00  0.00     0.037 H 
ATOM    154  H75 LEU d   1      -4.886  -8.090  17.835  0.00  0.00     0.037 H 
BRANCH 152 155
ATOM    155  CG  LEU d   1      -3.034  -8.329  18.861  0.00  0.00    -0.059 C 
ATOM    156  H76 LEU d   1      -2.924  -8.496  19.943  0.00  0.00     0.038 H 
BRANCH 155 157
ATOM    157  CD1 LEU d   1      -1.900  -9.118  18.228  0.00  0.00    -0.073 C 
ATOM    158  H77 LEU d   1      -0.936  -8.681  18.529  0.00  0.00     0.028 H 
ATOM    159  H78 LEU d   1      -1.994  -9.080  17.133  0.00  0.00     0.028 H 
ATOM    160  H79 LEU d   1      -1.949 -10.164  18.564  0.00  0.00     0.028 H 
ENDBRANCH 155 157
BRANCH 155 161
ATOM    161  CD2 LEU d   1      -2.871  -6.831  18.665  0.00  0.00    -0.073 C 
ATOM    162  H80 LEU d   1      -3.713  -6.305  19.139  0.00  0.00     0.028 H 
ATOM    163  H81 LEU d   1      -2.854  -6.602  17.589  0.00  0.00     0.028 H 
ATOM    164  H82 LEU d   1      -1.928  -6.502  19.125  0.00  0.00     0.028 H 
ENDBRANCH 155 161
ENDBRANCH 152 155
ENDBRANCH 150 152
BRANCH 150 165
ATOM    165  C   LEU d   1      -6.054 -10.753  18.346  0.00  0.00     0.163 C 
ATOM    166  O   LEU d   1      -7.049 -10.628  17.606  0.00  0.00    -0.648 OA
BRANCH 165 167
ATOM    167  O1  LEU d   1      -6.177 -11.362  19.522  0.00  0.00    -0.775 OA
ATOM    168  H83 LEU d   1      -5.334 -11.375  19.960  0.00  0.00     0.167 HD
ENDBRANCH 165 167
ENDBRANCH 150 165
ENDBRANCH 148 150
ENDBRANCH 138 146
ENDBRANCH 136 138
ENDBRANCH 117 134
ENDBRANCH 115 117
ENDBRANCH  98 113
ENDBRANCH  96  98
ENDBRANCH   1  94
TORSDOF 44
