REMARK  5 active torsions:
REMARK  status: ('A' for Active; 'I' for Inactive)
REMARK    1  A    between atoms: N3_6  and  C11_13 
REMARK    2  A    between atoms: N1_8  and  C10_12 
REMARK    3  A    between atoms: C11_13  and  C12_14 
REMARK    4  A    between atoms: C12_14  and  C13_15 
REMARK    5  A    between atoms: C12_14  and  C14_16 
ROOT
ATOM      1  N9  IBM d   1      32.490  -1.605  12.132  0.00  0.00    -0.224 NA
ATOM      2  C8  IBM d   1      33.801  -1.547  11.727  0.00  0.00     0.067 A 
ATOM      3  N7  IBM d   1      34.488  -0.590  12.299  0.00  0.00    -0.343 N 
ATOM      4  C5  IBM d   1      33.567   0.022  13.137  0.00  0.00     0.149 A 
ATOM      5  C4  IBM d   1      32.336  -0.589  13.046  0.00  0.00     0.167 A 
ATOM      6  N3  IBM d   1      31.207  -0.265  13.714  0.00  0.00    -0.281 N 
ATOM      7  C2  IBM d   1      31.334   0.796  14.565  0.00  0.00     0.333 A 
ATOM      8  N1  IBM d   1      32.546   1.477  14.722  0.00  0.00    -0.269 N 
ATOM      9  C6  IBM d   1      33.658   1.092  14.013  0.00  0.00     0.281 A 
ATOM     10  O6  IBM d   1      34.718   1.683  14.151  0.00  0.00    -0.265 OA
ATOM     11  O2  IBM d   1      30.357   1.163  15.209  0.00  0.00    -0.246 OA
ATOM     12  H1  IBM d   1      34.230  -2.233  10.998  0.00  0.00     0.143 H 
ATOM     13  H2  IBM d   1      35.480  -0.348  12.159  0.00  0.00     0.167 HD
ENDROOT
BRANCH   6  14
ATOM     14  C11 IBM d   1      29.961  -0.993  13.542  0.00  0.00     0.009 C 
ATOM     15  H6  IBM d   1      29.695  -1.019  12.475  0.00  0.00     0.065 H 
ATOM     16  H7  IBM d   1      29.161  -0.492  14.107  0.00  0.00     0.065 H 
BRANCH  14  17
ATOM     17  C12 IBM d   1      30.137  -2.423  14.061  0.00  0.00    -0.045 C 
ATOM     18  H8  IBM d   1      31.197  -2.696  13.956  0.00  0.00     0.041 H 
BRANCH  17  19
ATOM     19  C13 IBM d   1      29.771  -2.514  15.536  0.00  0.00    -0.072 C 
ATOM     20  H9  IBM d   1      29.906  -3.549  15.884  0.00  0.00     0.028 H 
ATOM     21  H10 IBM d   1      28.721  -2.215  15.672  0.00  0.00     0.028 H 
ATOM     22  H11 IBM d   1      30.422  -1.844  16.117  0.00  0.00     0.028 H 
ENDBRANCH  17  19
BRANCH  17  23
ATOM     23  C14 IBM d   1      29.314  -3.402  13.236  0.00  0.00    -0.072 C 
ATOM     24  H12 IBM d   1      29.597  -3.317  12.176  0.00  0.00     0.028 H 
ATOM     25  H13 IBM d   1      28.245  -3.169  13.350  0.00  0.00     0.028 H 
ATOM     26  H14 IBM d   1      29.506  -4.427  13.585  0.00  0.00     0.028 H 
ENDBRANCH  17  23
ENDBRANCH  14  17
ENDBRANCH   6  14
BRANCH   8  27
ATOM     27  C10 IBM d   1      32.630   2.601  15.643  0.00  0.00    -0.007 C 
ATOM     28  H3  IBM d   1      31.650   2.761  16.116  0.00  0.00     0.057 H 
ATOM     29  H4  IBM d   1      32.923   3.506  15.091  0.00  0.00     0.057 H 
ATOM     30  H5  IBM d   1      33.380   2.385  16.418  0.00  0.00     0.057 H 
ENDBRANCH   8  27
TORSDOF 5
