REMARK WARNING: 32 MAX_TORS EXCEEDED!!!
REMARK  38 active torsions:
REMARK  status: ('A' for Active; 'I' for Inactive)
REMARK    1  A    between atoms: N_1  and  CA_2 
REMARK    2  A    between atoms: CA_2  and  C_3 
REMARK    3  A    between atoms: CA_2  and  CB_5 
REMARK       I    between atoms: C_3  and  N_10 
REMARK    4  A    between atoms: CB_5  and  CG_6 
REMARK    5  A    between atoms: CG_6  and  CD_7 
REMARK    6  A    between atoms: CD_7  and  CE_8 
REMARK    7  A    between atoms: CE_8  and  NZ_9 
REMARK    8  A    between atoms: CA_11  and  C_12 
REMARK       I    between atoms: C_12  and  N_17 
REMARK    9  A    between atoms: N_17  and  CA_18 
REMARK   10  A    between atoms: CA_18  and  C_19 
REMARK   11  A    between atoms: CA_18  and  CB_21 
REMARK       I    between atoms: C_19  and  N_28 
REMARK   12  A    between atoms: CB_21  and  CG_22 
REMARK   13  A    between atoms: N_28  and  CA_29 
REMARK   14  A    between atoms: CA_29  and  C_30 
REMARK   15  A    between atoms: CA_29  and  CB_32 
REMARK       I    between atoms: C_30  and  N_34 
REMARK   16  A    between atoms: CB_32  and  OG_33 
REMARK   17  A    between atoms: N_34  and  CA_35 
REMARK   18  A    between atoms: CA_35  and  C_36 
REMARK   19  A    between atoms: CA_35  and  CB_37 
REMARK   20  A    between atoms: C_36  and  N_41 
REMARK   21  A    between atoms: CB_37  and  CG_38 
REMARK   22  A    between atoms: CG_38  and  CD1_39 
REMARK   23  A    between atoms: CG_38  and  CD2_40 
REMARK   24  A    between atoms: N_41  and  CA_42 
REMARK   25  A    between atoms: CA_42  and  C_43 
REMARK   26  A    between atoms: CA_42  and  CB_45 
REMARK       I    between atoms: C_43  and  N_49 
REMARK   27  A    between atoms: CB_45  and  CG_46 
REMARK   28  A    between atoms: CG_46  and  CD1_47 
REMARK   29  A    between atoms: CG_46  and  CD2_48 
REMARK   30  A    between atoms: N_49  and  CA_50 
REMARK   31  A    between atoms: CA_50  and  C_51 
REMARK   32  A    between atoms: CA_50  and  CB_53 
REMARK       I    between atoms: C_51  and  N_58 
REMARK   33  A    between atoms: CB_53  and  CG_54 
REMARK   34  A    between atoms: CG_54  and  CD_55 
REMARK       I    between atoms: CD_55  and  NE2_57 
REMARK   35  A    between atoms: N_58  and  CA_59 
REMARK   36  A    between atoms: CA_59  and  C_60 
REMARK   37  A    between atoms: CA_59  and  CB_62 
REMARK   38  A    between atoms: CB_62  and  CG_63 
ROOT
ATOM      1  CA  DCL d   1     -39.508  34.659  55.201  0.00  0.00     0.035 C 
ATOM      2  H   DCL d   1     -39.780  34.288  54.213  0.00  0.00     0.075 H 
ENDROOT
BRANCH   1   3
ATOM      3  N   DCL d   1     -40.742  34.974  55.910  0.00  0.00    -0.353 N 
ATOM      4  C   SER d   1     -41.892  34.445  55.479  0.00  0.00     0.242 C 
ATOM      5  O   SER d   1     -41.934  33.649  54.536  0.00  0.00    -0.271 OA
ATOM      6  H   DCL d   1     -40.728  35.589  56.723  0.00  0.00     0.163 HD
BRANCH   4   7
ATOM      7  CA  SER d   1     -43.171  34.853  56.204  0.00  0.00     0.109 C 
ATOM      8  H   SER d   1     -42.947  35.624  56.941  0.00  0.00     0.090 H 
BRANCH   7   9
ATOM      9  N   SER d   1     -44.119  35.375  55.242  0.00  0.00    -0.344 N 
ATOM     10  C   PHE d   1     -45.020  36.303  55.571  0.00  0.00     0.241 C 
ATOM     11  O   PHE d   1     -45.107  36.801  56.710  0.00  0.00    -0.271 OA
ATOM     12  H   SER d   1     -44.098  35.023  54.285  0.00  0.00     0.163 HD
BRANCH  10  13
ATOM     13  CA  PHE d   1     -45.965  36.749  54.436  0.00  0.00     0.093 C 
ATOM     14  H   PHE d   1     -45.500  36.478  53.488  0.00  0.00     0.088 H 
BRANCH  13  15
ATOM     15  N   PHE d   1     -47.265  36.054  54.440  0.00  0.00    -0.346 N 
ATOM     16  C   PRO d   1     -47.307  34.713  54.449  0.00  0.00     0.241 C 
ATOM     17  O   PRO d   1     -46.274  34.011  54.518  0.00  0.00    -0.271 OA
ATOM     18  H   PHE d   1     -48.132  36.592  54.436  0.00  0.00     0.163 HD
BRANCH  16  19
ATOM     19  CA  PRO d   1     -48.690  34.056  54.423  0.00  0.00     0.091 C 
ATOM     20  N   PRO d   1     -48.835  33.161  53.284  0.00  0.00    -0.337 N 
ATOM     21  C   LYS d   1     -48.999  33.707  52.082  0.00  0.00     0.251 C 
ATOM     22  CD  PRO d   1     -48.344  31.814  53.621  0.00  0.00    -0.001 C 
ATOM     23  O   LYS d   1     -49.002  34.940  51.915  0.00  0.00    -0.271 OA
ATOM     24  CG  PRO d   1     -48.351  31.838  55.167  0.00  0.00    -0.048 C 
ATOM     25  H   PRO d   1     -47.362  31.598  53.200  0.00  0.00     0.064 H 
ATOM     26  H   PRO d   1     -48.958  31.017  53.202  0.00  0.00     0.064 H 
ATOM     27  CB  PRO d   1     -48.919  33.126  55.596  0.00  0.00    -0.036 C 
ATOM     28  H   PRO d   1     -48.949  31.013  55.555  0.00  0.00     0.035 H 
ATOM     29  H   PRO d   1     -47.337  31.726  55.551  0.00  0.00     0.035 H 
ATOM     30  H   PRO d   1     -49.976  33.041  55.847  0.00  0.00     0.036 H 
ATOM     31  H   PRO d   1     -48.447  33.496  56.507  0.00  0.00     0.036 H 
ATOM     32  H   PRO d   1     -49.379  34.901  54.413  0.00  0.00     0.087 H 
BRANCH  21  33
ATOM     33  CA  LYS d   1     -49.158  32.749  50.891  0.00  0.00     0.176 C 
ATOM     34  H   LYS d   1     -49.557  31.799  51.247  0.00  0.00     0.099 H 
BRANCH  33  35
ATOM     35  N   LYS d   1     -50.100  33.375  49.889  0.00  0.00    -0.067 N 
ATOM     36  H   LYS d   1     -51.001  33.550  50.334  0.00  0.00     0.275 HD
ATOM     37  H   LYS d   1     -49.706  34.256  49.558  0.00  0.00     0.275 HD
ATOM     38  H   LYS d   1     -50.227  32.740  49.101  0.00  0.00     0.275 HD
ENDBRANCH  33  35
BRANCH  33  39
ATOM     39  CB  LYS d   1     -47.802  32.485  50.221  0.00  0.00    -0.030 C 
ATOM     40  H   LYS d   1     -47.261  31.749  50.816  0.00  0.00     0.036 H 
ATOM     41  H   LYS d   1     -47.258  33.428  50.160  0.00  0.00     0.036 H 
BRANCH  39  42
ATOM     42  CG  LYS d   1     -47.973  31.935  48.813  0.00  0.00    -0.061 C 
ATOM     43  H   LYS d   1     -48.484  32.683  48.207  0.00  0.00     0.033 H 
ATOM     44  H   LYS d   1     -48.549  31.011  48.868  0.00  0.00     0.033 H 
BRANCH  42  45
ATOM     45  CD  LYS d   1     -46.619  31.629  48.171  0.00  0.00    -0.043 C 
ATOM     46  H   LYS d   1     -46.231  30.704  48.598  0.00  0.00     0.035 H 
ATOM     47  H   LYS d   1     -45.944  32.463  48.364  0.00  0.00     0.035 H 
BRANCH  45  48
ATOM     48  CE  LYS d   1     -46.757  31.449  46.650  0.00  0.00     0.080 C 
ATOM     49  H   LYS d   1     -47.066  32.398  46.212  0.00  0.00     0.075 H 
ATOM     50  H   LYS d   1     -47.495  30.671  46.455  0.00  0.00     0.075 H 
BRANCH  48  51
ATOM     51  NZ  LYS d   1     -45.445  31.036  46.035  0.00  0.00    -0.079 N 
ATOM     52  H   LYS d   1     -45.563  30.924  45.028  0.00  0.00     0.274 HD
ATOM     53  H   LYS d   1     -44.744  31.754  46.218  0.00  0.00     0.274 HD
ATOM     54  H   LYS d   1     -45.143  30.152  46.444  0.00  0.00     0.274 HD
ENDBRANCH  48  51
ENDBRANCH  45  48
ENDBRANCH  42  45
ENDBRANCH  39  42
ENDBRANCH  33  39
ENDBRANCH  21  33
ENDBRANCH  16  19
ENDBRANCH  13  15
BRANCH  13  55
ATOM     55  CB  PHE d   1     -46.154  38.255  54.533  0.00  0.00    -0.014 C 
ATOM     56  H   PHE d   1     -46.157  38.518  55.591  0.00  0.00     0.043 H 
ATOM     57  H   PHE d   1     -47.084  38.503  54.022  0.00  0.00     0.043 H 
BRANCH  55  58
ATOM     58  CG  PHE d   1     -45.059  39.034  53.878  0.00  0.00    -0.056 A 
ATOM     59  CD1 PHE d   1     -45.242  39.553  52.609  0.00  0.00    -0.077 A 
ATOM     60  CE1 PHE d   1     -44.212  40.255  51.971  0.00  0.00    -0.082 A 
ATOM     61  H   PHE d   1     -46.196  39.414  52.101  0.00  0.00     0.084 H 
ATOM     62  CZ  PHE d   1     -42.984  40.430  52.618  0.00  0.00    -0.083 A 
ATOM     63  H   PHE d   1     -44.367  40.664  50.973  0.00  0.00     0.083 H 
ATOM     64  CE2 PHE d   1     -42.806  39.909  53.890  0.00  0.00    -0.082 A 
ATOM     65  H   PHE d   1     -42.175  40.971  52.127  0.00  0.00     0.083 H 
ATOM     66  CD2 PHE d   1     -43.834  39.216  54.508  0.00  0.00    -0.077 A 
ATOM     67  H   PHE d   1     -41.855  40.045  54.405  0.00  0.00     0.083 H 
ATOM     68  H   PHE d   1     -43.679  38.806  55.506  0.00  0.00     0.084 H 
ENDBRANCH  55  58
ENDBRANCH  13  55
ENDBRANCH  10  13
ENDBRANCH   7   9
BRANCH   7  69
ATOM     69  CB  SER d   1     -43.761  33.645  56.919  0.00  0.00     0.044 C 
ATOM     70  H   SER d   1     -43.989  32.875  56.182  0.00  0.00     0.077 H 
ATOM     71  H   SER d   1     -44.666  33.952  57.444  0.00  0.00     0.077 H 
BRANCH  69  72
ATOM     72  OG  SER d   1     -42.840  33.124  57.858  0.00  0.00    -0.398 OA
ATOM     73  H   SER d   1     -42.631  33.799  58.508  0.00  0.00     0.209 HD
ENDBRANCH  69  72
ENDBRANCH   7  69
ENDBRANCH   4   7
ENDBRANCH   1   3
BRANCH   1  74
ATOM     74  C   DCL d   1     -38.717  33.576  55.918  0.00  0.00     0.101 C 
ATOM     75  H   DCL d   1     -38.012  34.054  56.598  0.00  0.00     0.078 H 
ATOM     76  H   DCL d   1     -38.201  32.972  55.172  0.00  0.00     0.078 H 
BRANCH  74  77
ATOM     77  N   LEU d   1     -39.589  32.709  56.692  0.00  0.00    -0.060 N 
ATOM     78  H   LEU d   1     -40.285  32.333  56.048  0.00  0.00     0.278 HD
ATOM     79  H   LEU d   1     -39.975  33.273  57.449  0.00  0.00     0.278 HD
BRANCH  77  80
ATOM     80  CA  LEU d   1     -38.914  31.564  57.311  0.00  0.00     0.178 C 
ATOM     81  H   LEU d   1     -38.062  31.909  57.897  0.00  0.00     0.099 H 
BRANCH  80  82
ATOM     82  C   LEU d   1     -38.404  30.610  56.226  0.00  0.00     0.249 C 
ATOM     83  O   LEU d   1     -39.138  30.352  55.271  0.00  0.00    -0.271 OA
ATOM     84  N   GLN d   1     -37.183  30.079  56.350  0.00  0.00    -0.346 N 
ATOM     85  H   GLN d   1     -36.582  30.337  57.133  0.00  0.00     0.163 HD
BRANCH  84  86
ATOM     86  CA  GLN d   1     -36.725  29.126  55.347  0.00  0.00     0.090 C 
ATOM     87  H   GLN d   1     -37.483  29.232  54.571  0.00  0.00     0.087 H 
BRANCH  86  88
ATOM     88  C   GLN d   1     -36.748  27.651  55.712  0.00  0.00     0.241 C 
ATOM     89  O   GLN d   1     -36.471  27.284  56.857  0.00  0.00    -0.271 OA
ATOM     90  N   PHE d   1     -37.073  26.817  54.716  0.00  0.00    -0.344 N 
ATOM     91  H   PHE d   1     -37.366  27.212  53.823  0.00  0.00     0.163 HD
BRANCH  90  92
ATOM     92  CA  PHE d   1     -37.025  25.365  54.857  0.00  0.00     0.100 C 
ATOM     93  H   PHE d   1     -36.509  25.109  55.783  0.00  0.00     0.090 H 
BRANCH  92  94
ATOM     94  C   PHE d   1     -36.294  24.813  53.630  0.00  0.00     0.197 C 
ATOM     95  O   PHE d   1     -36.826  23.895  52.970  0.00  0.00    -0.646 OA
ATOM     96  OXT PHE d   1     -35.178  25.316  53.342  0.00  0.00    -0.646 OA
ENDBRANCH  92  94
BRANCH  92  97
ATOM     97  CB  PHE d   1     -38.423  24.751  54.941  0.00  0.00    -0.013 C 
ATOM     98  H   PHE d   1     -38.307  23.669  54.871  0.00  0.00     0.043 H 
ATOM     99  H   PHE d   1     -39.017  25.185  54.136  0.00  0.00     0.043 H 
BRANCH  97 100
ATOM    100  CG  PHE d   1     -39.132  25.038  56.218  0.00  0.00    -0.056 A 
ATOM    101  CD1 PHE d   1     -39.825  26.232  56.373  0.00  0.00    -0.077 A 
ATOM    102  CE1 PHE d   1     -40.528  26.508  57.556  0.00  0.00    -0.082 A 
ATOM    103  H   PHE d   1     -39.823  26.964  55.565  0.00  0.00     0.084 H 
ATOM    104  CZ  PHE d   1     -40.534  25.571  58.591  0.00  0.00    -0.083 A 
ATOM    105  H   PHE d   1     -41.067  27.449  57.666  0.00  0.00     0.083 H 
ATOM    106  CE2 PHE d   1     -39.836  24.377  58.440  0.00  0.00    -0.082 A 
ATOM    107  H   PHE d   1     -41.082  25.774  59.511  0.00  0.00     0.083 H 
ATOM    108  CD2 PHE d   1     -39.141  24.112  57.257  0.00  0.00    -0.077 A 
ATOM    109  H   PHE d   1     -39.831  23.645  59.248  0.00  0.00     0.083 H 
ATOM    110  H   PHE d   1     -38.601  23.172  57.147  0.00  0.00     0.084 H 
ENDBRANCH  97 100
ENDBRANCH  92  97
ENDBRANCH  90  92
ENDBRANCH  86  88
BRANCH  86 111
ATOM    111  CB  GLN d   1     -35.328  29.485  54.843  0.00  0.00    -0.030 C 
ATOM    112  H   GLN d   1     -35.443  30.443  54.336  0.00  0.00     0.037 H 
ATOM    113  H   GLN d   1     -35.005  28.626  54.255  0.00  0.00     0.037 H 
BRANCH 111 114
ATOM    114  CG  GLN d   1     -34.234  29.703  55.863  0.00  0.00     0.011 C 
ATOM    115  H   GLN d   1     -34.248  28.854  56.546  0.00  0.00     0.047 H 
ATOM    116  H   GLN d   1     -34.428  30.657  56.353  0.00  0.00     0.047 H 
BRANCH 114 117
ATOM    117  CD  GLN d   1     -32.842  29.776  55.253  0.00  0.00     0.215 C 
ATOM    118  OE1 GLN d   1     -31.880  30.062  55.970  0.00  0.00    -0.274 OA
ATOM    119  NE2 GLN d   1     -32.724  29.507  53.943  0.00  0.00    -0.370 N 
ATOM    120  H   GLN d   1     -31.807  29.534  53.497  0.00  0.00     0.159 HD
ATOM    121  H   GLN d   1     -33.551  29.276  53.393  0.00  0.00     0.159 HD
ENDBRANCH 114 117
ENDBRANCH 111 114
ENDBRANCH  86 111
ENDBRANCH  84  86
ENDBRANCH  80  82
BRANCH  80 122
ATOM    122  CB  LEU d   1     -39.907  30.840  58.224  0.00  0.00    -0.027 C 
ATOM    123  H   LEU d   1     -40.552  30.231  57.590  0.00  0.00     0.037 H 
ATOM    124  H   LEU d   1     -40.447  31.600  58.789  0.00  0.00     0.037 H 
BRANCH 122 125
ATOM    125  CG  LEU d   1     -39.242  29.912  59.225  0.00  0.00    -0.059 C 
ATOM    126  H   LEU d   1     -38.677  29.149  58.690  0.00  0.00     0.038 H 
BRANCH 125 127
ATOM    127  CD1 LEU d   1     -38.282  30.704  60.108  0.00  0.00    -0.073 C 
ATOM    128  H   LEU d   1     -37.518  31.170  59.485  0.00  0.00     0.028 H 
ATOM    129  H   LEU d   1     -38.836  31.475  60.644  0.00  0.00     0.028 H 
ATOM    130  H   LEU d   1     -37.809  30.031  60.823  0.00  0.00     0.028 H 
ENDBRANCH 125 127
BRANCH 125 131
ATOM    131  CD2 LEU d   1     -40.287  29.242  60.064  0.00  0.00    -0.073 C 
ATOM    132  H   LEU d   1     -40.862  29.998  60.598  0.00  0.00     0.028 H 
ATOM    133  H   LEU d   1     -40.952  28.665  59.422  0.00  0.00     0.028 H 
ATOM    134  H   LEU d   1     -39.805  28.577  60.781  0.00  0.00     0.028 H 
ENDBRANCH 125 131
ENDBRANCH 122 125
ENDBRANCH  80 122
ENDBRANCH  77  80
ENDBRANCH  74  77
ENDBRANCH   1  74
BRANCH   1 135
ATOM    135  CB  DCL d   1     -38.647  35.911  55.055  0.00  0.00    -0.042 C 
ATOM    136  H   DCL d   1     -37.682  35.588  54.664  0.00  0.00     0.036 H 
ATOM    137  H   DCL d   1     -38.606  36.384  56.036  0.00  0.00     0.036 H 
BRANCH 135 138
ATOM    138  CG  DCL d   1     -39.196  36.956  54.080  0.00  0.00    -0.059 C 
ATOM    139  H   DCL d   1     -40.167  37.283  54.451  0.00  0.00     0.038 H 
BRANCH 138 140
ATOM    140  CD1 DCL d   1     -38.230  38.131  54.003  0.00  0.00    -0.073 C 
ATOM    141  H   DCL d   1     -38.122  38.576  54.992  0.00  0.00     0.028 H 
ATOM    142  H   DCL d   1     -37.259  37.779  53.653  0.00  0.00     0.028 H 
ATOM    143  H   DCL d   1     -38.620  38.876  53.309  0.00  0.00     0.028 H 
ENDBRANCH 138 140
BRANCH 138 144
ATOM    144  CD2 DCL d   1     -39.394  36.372  52.670  0.00  0.00    -0.073 C 
ATOM    145  H   DCL d   1     -38.437  36.015  52.288  0.00  0.00     0.028 H 
ATOM    146  H   DCL d   1     -40.100  35.543  52.717  0.00  0.00     0.028 H 
ATOM    147  H   DCL d   1     -39.785  37.146  52.009  0.00  0.00     0.028 H 
ENDBRANCH 138 144
ENDBRANCH 135 138
ENDBRANCH   1 135
TORSDOF 38
