REMARK  7 active torsions:
REMARK  status: ('A' for Active; 'I' for Inactive)
REMARK       I    between atoms: C01_1  and  N08_8 
REMARK       I    between atoms: N09_9  and  C01_1 
REMARK    1  A    between atoms: C10_10  and  N09_9 
REMARK    2  A    between atoms: C10_10  and  C11_11 
REMARK    3  A    between atoms: C18_18  and  C10_10 
REMARK    4  A    between atoms: C11_11  and  C12_12 
REMARK       I    between atoms: N20_20  and  C18_18 
REMARK    5  A    between atoms: C29_29  and  N20_20 
REMARK    6  A    between atoms: N25_25  and  C26_26 
REMARK    7  A    between atoms: C27_27  and  C29_29 
ROOT
ATOM      1  C10 Y11 d   1      63.459  35.031  63.286  0.00  0.00     0.091 C 
ATOM      2  H10 Y11 d   1      63.039  34.539  64.176  0.00  0.00     0.087 H 
ENDROOT
BRANCH   1   3
ATOM      3  N09 Y11 d   1      62.357  35.379  62.369  0.00  0.00    -0.330 N 
ATOM      4  C01 Y11 d   1      61.331  36.102  62.823  0.00  0.00     0.319 C 
ATOM      5  O06 Y11 d   1      61.285  36.436  64.011  0.00  0.00    -0.247 OA
ATOM      6  N08 Y11 d   1      60.344  36.430  61.928  0.00  0.00    -0.330 N 
ATOM      7  C02 Y11 d   1      59.269  37.343  62.339  0.00  0.00     0.019 C 
ATOM      8  C05 Y11 d   1      60.255  35.881  60.572  0.00  0.00     0.019 C 
ATOM      9  C03 Y11 d   1      58.843  38.293  61.228  0.00  0.00     0.034 C 
ATOM     10  H1  Y11 d   1      58.397  36.745  62.643  0.00  0.00     0.067 H 
ATOM     11  H2  Y11 d   1      59.622  37.938  63.194  0.00  0.00     0.067 H 
ATOM     12  O07 Y11 d   1      58.568  37.564  60.042  0.00  0.00    -0.388 OA
ATOM     13  H3  Y11 d   1      59.653  39.012  61.034  0.00  0.00     0.076 H 
ATOM     14  H4  Y11 d   1      57.938  38.835  61.540  0.00  0.00     0.076 H 
ATOM     15  C04 Y11 d   1      59.736  36.908  59.553  0.00  0.00     0.034 C 
ATOM     16  H5  Y11 d   1      59.492  36.391  58.613  0.00  0.00     0.076 H 
ATOM     17  H6  Y11 d   1      60.519  37.658  59.367  0.00  0.00     0.076 H 
ATOM     18  H7  Y11 d   1      61.256  35.549  60.260  0.00  0.00     0.067 H 
ATOM     19  H8  Y11 d   1      59.571  35.020  60.584  0.00  0.00     0.067 H 
ATOM     20  H9  Y11 d   1      62.379  35.076  61.416  0.00  0.00     0.165 HD
ENDBRANCH   1   3
BRANCH   1  21
ATOM     21  C11 Y11 d   1      64.450  34.074  62.620  0.00  0.00    -0.035 C 
ATOM     22  H11 Y11 d   1      65.183  33.751  63.374  0.00  0.00     0.037 H 
ATOM     23  H12 Y11 d   1      64.967  34.614  61.813  0.00  0.00     0.037 H 
BRANCH  21  24
ATOM     24  C12 Y11 d   1      63.786  32.828  62.024  0.00  0.00    -0.052 C 
ATOM     25  C13 Y11 d   1      64.837  31.888  61.431  0.00  0.00    -0.062 C 
ATOM     26  C14 Y11 d   1      64.226  30.644  60.798  0.00  0.00    -0.065 C 
ATOM     27  H14 Y11 d   1      65.521  31.574  62.233  0.00  0.00     0.033 H 
ATOM     28  H15 Y11 d   1      65.402  32.433  60.660  0.00  0.00     0.033 H 
ATOM     29  C15 Y11 d   1      63.372  29.858  61.819  0.00  0.00    -0.065 C 
ATOM     30  H16 Y11 d   1      65.034  29.994  60.431  0.00  0.00     0.033 H 
ATOM     31  H17 Y11 d   1      63.588  30.947  59.955  0.00  0.00     0.033 H 
ATOM     32  C16 Y11 d   1      62.349  30.769  62.558  0.00  0.00    -0.065 C 
ATOM     33  H18 Y11 d   1      64.041  29.401  62.563  0.00  0.00     0.033 H 
ATOM     34  H19 Y11 d   1      62.822  29.068  61.287  0.00  0.00     0.033 H 
ATOM     35  C17 Y11 d   1      63.028  32.052  63.103  0.00  0.00    -0.062 C 
ATOM     36  H20 Y11 d   1      61.913  30.210  63.399  0.00  0.00     0.033 H 
ATOM     37  H21 Y11 d   1      61.552  31.056  61.856  0.00  0.00     0.033 H 
ATOM     38  H22 Y11 d   1      62.252  32.707  63.527  0.00  0.00     0.033 H 
ATOM     39  H23 Y11 d   1      63.738  31.765  63.893  0.00  0.00     0.033 H 
ATOM     40  H13 Y11 d   1      63.086  33.140  61.236  0.00  0.00     0.040 H 
ENDBRANCH  21  24
ENDBRANCH   1  21
BRANCH   1  41
ATOM     41  C18 Y11 d   1      64.176  36.317  63.716  0.00  0.00     0.241 C 
ATOM     42  O19 Y11 d   1      64.453  37.170  62.884  0.00  0.00    -0.271 OA
ATOM     43  N20 Y11 d   1      64.470  36.433  65.014  0.00  0.00    -0.345 N 
ATOM     44  H24 Y11 d   1      64.244  35.664  65.612  0.00  0.00     0.163 HD
BRANCH  43  45
ATOM     45  C29 Y11 d   1      65.106  37.619  65.631  0.00  0.00     0.069 C 
ATOM     46  C21 Y11 d   1      64.393  38.891  65.169  0.00  0.00    -0.014 C 
ATOM     47  C22 Y11 d   1      62.904  38.906  65.472  0.00  0.00     0.086 C 
ATOM     48  H25 Y11 d   1      64.858  39.751  65.673  0.00  0.00     0.039 H 
ATOM     49  H26 Y11 d   1      64.526  38.987  64.081  0.00  0.00     0.039 H 
ATOM     50  N25 Y11 d   1      62.573  38.526  66.880  0.00  0.00    -0.075 N 
ATOM     51  H27 Y11 d   1      62.405  38.198  64.795  0.00  0.00     0.076 H 
ATOM     52  H28 Y11 d   1      62.522  39.921  65.287  0.00  0.00     0.076 H 
ATOM     53  C23 Y11 d   1      63.384  37.403  67.471  0.00  0.00     0.086 C 
ATOM     54  H33 Y11 d   1      62.737  39.339  67.453  0.00  0.00     0.279 HD
ATOM     55  C24 Y11 d   1      64.882  37.539  67.137  0.00  0.00    -0.014 C 
ATOM     56  H29 Y11 d   1      63.261  37.413  68.564  0.00  0.00     0.076 H 
ATOM     57  H30 Y11 d   1      63.015  36.448  67.069  0.00  0.00     0.076 H 
ATOM     58  H31 Y11 d   1      65.419  36.665  67.534  0.00  0.00     0.039 H 
ATOM     59  H32 Y11 d   1      65.273  38.453  67.607  0.00  0.00     0.039 H 
BRANCH  50  60
ATOM     60  C26 Y11 d   1      61.117  38.181  66.953  0.00  0.00     0.066 C 
ATOM     61  H34 Y11 d   1      60.524  39.001  66.522  0.00  0.00     0.068 H 
ATOM     62  H35 Y11 d   1      60.828  38.033  68.004  0.00  0.00     0.068 H 
ATOM     63  H36 Y11 d   1      60.930  37.256  66.387  0.00  0.00     0.068 H 
ENDBRANCH  50  60
BRANCH  45  64
ATOM     64  C27 Y11 d   1      66.600  37.747  65.329  0.00  0.00     0.001 C 
ATOM     65  N28 Y11 d   1      67.330  38.774  65.734  0.00  0.00    -0.314 NA
ATOM     66  H38 Y11 d   1      68.312  38.814  65.510  0.00  0.00     0.185 HD
ATOM     67  H37 Y11 d   1      67.084  36.958  64.755  0.00  0.00     0.110 H 
ENDBRANCH  45  64
ENDBRANCH  43  45
ENDBRANCH   1  41
TORSDOF 7
