REMARK  9 active torsions:
REMARK  status: ('A' for Active; 'I' for Inactive)
REMARK    1  A    between atoms: S31_2  and  N24_4 
REMARK    2  A    between atoms: S31_2  and  C20_9 
REMARK    3  A    between atoms: N24_4  and  C30_5 
REMARK    4  A    between atoms: C30_5  and  C01_6 
REMARK    5  A    between atoms: C30_5  and  C02_7 
REMARK    6  A    between atoms: C30_5  and  C03_8 
REMARK    7  A    between atoms: C17_12  and  C18_15 
REMARK    8  A    between atoms: C27_22  and  N23_25 
REMARK    9  A    between atoms: N23_25  and  C19_26 
ROOT
ATOM      1  C18 255 d   1      14.654  15.350  27.394  0.00  0.00    -0.005 A 
ATOM      2  C15 255 d   1      15.982  14.986  28.076  0.00  0.00     0.089 A 
ATOM      3  N22 255 d   1      16.082  13.733  28.920  0.00  0.00    -0.070 N 
ATOM      4  C28 255 d   1      14.886  12.848  29.091  0.00  0.00     0.107 A 
ATOM      5  C14 255 d   1      14.989  11.576  29.950  0.00  0.00    -0.038 A 
ATOM      6  C06 255 d   1      13.756  10.662  30.127  0.00  0.00    -0.061 A 
ATOM      7  C09 255 d   1      12.421  11.026  29.444  0.00  0.00    -0.038 A 
ATOM      8  C27 255 d   1      12.319  12.295  28.587  0.00  0.00     0.110 A 
ATOM      9  C29 255 d   1      13.556  13.212  28.409  0.00  0.00     0.002 A 
ATOM     10  C16 255 d   1      13.456  14.464  27.565  0.00  0.00    -0.049 A 
ATOM     11  H   255 d   1      15.430  16.007  27.787  0.00  0.00     0.050 H 
ATOM     12  H   255 d   1      16.160  15.801  28.777  0.00  0.00     0.076 H 
ATOM     13  H   255 d   1      16.674  14.815  27.251  0.00  0.00     0.076 H 
ATOM     14  H   255 d   1      16.283  14.074  29.860  0.00  0.00     0.277 HD
ATOM     15  H   255 d   1      16.763  13.151  28.432  0.00  0.00     0.277 HD
ATOM     16  H   255 d   1      14.163  12.348  28.446  0.00  0.00     0.084 H 
ATOM     17  H   255 d   1      15.204  11.942  30.954  0.00  0.00     0.036 H 
ATOM     18  H   255 d   1      15.717  10.954  29.430  0.00  0.00     0.036 H 
ATOM     19  H   255 d   1      13.537  10.704  31.194  0.00  0.00     0.033 H 
ATOM     20  H   255 d   1      14.049   9.718  29.668  0.00  0.00     0.033 H 
ATOM     21  H   255 d   1      11.730  11.198  30.270  0.00  0.00     0.036 H 
ATOM     22  H   255 d   1      12.241  10.210  28.745  0.00  0.00     0.036 H 
ATOM     23  H   255 d   1      12.916  13.029  28.046  0.00  0.00     0.085 H 
ATOM     24  H   255 d   1      13.075  14.086  27.970  0.00  0.00     0.046 H 
ATOM     25  H   255 d   1      13.241  14.099  26.561  0.00  0.00     0.034 H 
ATOM     26  H   255 d   1      12.729  15.087  28.086  0.00  0.00     0.034 H 
ENDROOT
BRANCH   1  27
ATOM     27  C17 255 d   1      14.553  16.614  26.541  0.00  0.00    -0.052 A 
ATOM     28  C11 255 d   1      13.269  17.454  26.562  0.00  0.00    -0.075 A 
ATOM     29  C13 255 d   1      13.169  18.721  25.709  0.00  0.00    -0.060 A 
ATOM     30  H   255 d   1      12.428  17.148  27.184  0.00  0.00     0.084 H 
ATOM     31  C20 255 d   1      14.352  19.150  24.833  0.00  0.00     0.079 A 
ATOM     32  H   255 d   1      12.257  19.318  25.724  0.00  0.00     0.085 H 
ATOM     33  C12 255 d   1      15.636  18.309  24.812  0.00  0.00    -0.060 A 
ATOM     34  C10 255 d   1      15.736  17.044  25.665  0.00  0.00    -0.075 A 
ATOM     35  H   255 d   1      16.477  18.614  24.189  0.00  0.00     0.085 H 
ATOM     36  H   255 d   1      16.648  16.448  25.651  0.00  0.00     0.084 H 
BRANCH  31  37
ATOM     37  S31 255 d   1      14.235  20.654  23.818  0.00  0.00     0.259 S 
ATOM     38  O25 255 d   1      12.773  20.679  23.037  0.00  0.00    -0.201 OA
ATOM     39  O26 255 d   1      14.365  21.986  24.793  0.00  0.00    -0.201 OA
BRANCH  37  40
ATOM     40  N24 255 d   1      15.510  20.662  22.658  0.00  0.00    -0.307 N 
ATOM     41  H   255 d   1      16.198  21.407  22.549  0.00  0.00     0.173 HD
BRANCH  40  42
ATOM     42  C30 255 d   1      15.459  19.431  21.845  0.00  0.00     0.029 C 
BRANCH  42  43
ATOM     43  C01 255 d   1      15.056  19.791  20.399  0.00  0.00    -0.053 C 
ATOM     44  H   255 d   1      15.792  20.476  19.978  0.00  0.00     0.030 H 
ATOM     45  H   255 d   1      15.017  18.883  19.797  0.00  0.00     0.030 H 
ATOM     46  H   255 d   1      14.075  20.267  20.404  0.00  0.00     0.030 H 
ENDBRANCH  42  43
BRANCH  42  47
ATOM     47  C02 255 d   1      16.849  18.756  21.837  0.00  0.00    -0.053 C 
ATOM     48  H   255 d   1      17.133  18.499  22.858  0.00  0.00     0.030 H 
ATOM     49  H   255 d   1      16.808  17.851  21.231  0.00  0.00     0.030 H 
ATOM     50  H   255 d   1      17.583  19.443  21.416  0.00  0.00     0.030 H 
ENDBRANCH  42  47
BRANCH  42  51
ATOM     51  C03 255 d   1      14.415  18.459  22.441  0.00  0.00    -0.053 C 
ATOM     52  H   255 d   1      14.376  17.554  21.835  0.00  0.00     0.030 H 
ATOM     53  H   255 d   1      14.700  18.203  23.461  0.00  0.00     0.030 H 
ATOM     54  H   255 d   1      13.436  18.938  22.445  0.00  0.00     0.030 H 
ENDBRANCH  42  51
ENDBRANCH  40  42
ENDBRANCH  37  40
ENDBRANCH  31  37
ENDBRANCH   1  27
BRANCH   8  55
ATOM     55  N23 255 d   1      11.058  12.635  27.943  0.00  0.00    -0.042 N 
ATOM     56  H   255 d   1      11.311  13.321  27.232  0.00  0.00     0.280 HD
ATOM     57  H   255 d   1      10.442  12.902  28.711  0.00  0.00     0.280 HD
BRANCH  55  58
ATOM     58  C19 255 d   1      10.317  11.616  27.219  0.00  0.00     0.253 A 
ATOM     59  N21 255 d   1       8.992  11.942  26.623  0.00  0.00    -0.046 N 
ATOM     60  C07 255 d   1       8.223  10.886  25.872  0.00  0.00     0.084 A 
ATOM     61  H   255 d   1       9.196  12.655  25.923  0.00  0.00     0.279 HD
ATOM     62  H   255 d   1       8.401  12.167  27.423  0.00  0.00     0.279 HD
ATOM     63  C04 255 d   1       8.805   9.475  25.722  0.00  0.00    -0.042 A 
ATOM     64  H   255 d   1       8.163  11.266  24.852  0.00  0.00     0.075 H 
ATOM     65  H   255 d   1       7.313  10.745  26.455  0.00  0.00     0.075 H 
ATOM     66  C05 255 d   1      10.139   9.147  26.321  0.00  0.00    -0.060 A 
ATOM     67  H   255 d   1       8.951   9.353  24.649  0.00  0.00     0.035 H 
ATOM     68  H   255 d   1       8.102   8.833  26.253  0.00  0.00     0.035 H 
ATOM     69  C08 255 d   1      10.904  10.199  27.069  0.00  0.00    -0.014 A 
ATOM     70  H   255 d   1      10.771   8.907  25.466  0.00  0.00     0.033 H 
ATOM     71  H   255 d   1       9.922   8.384  27.069  0.00  0.00     0.033 H 
ATOM     72  H   255 d   1      10.965   9.819  28.089  0.00  0.00     0.038 H 
ATOM     73  H   255 d   1      11.814  10.341  26.486  0.00  0.00     0.038 H 
ATOM     74  H   255 d   1       9.535  11.051  26.712  0.00  0.00     0.130 H 
ENDBRANCH  55  58
ENDBRANCH   8  55
TORSDOF 9
