REMARK  4 active torsions:
REMARK  status: ('A' for Active; 'I' for Inactive)
REMARK    1  A    between atoms: N_1  and  CA_2 
REMARK    2  A    between atoms: CA_2  and  C_3 
REMARK    3  A    between atoms: CA_2  and  CB_6 
REMARK    4  A    between atoms: CB_6  and  OG_7 
ROOT
ATOM      1  CA  DSN d   1      12.880  48.241   7.013  0.00  0.00     0.202 C 
ATOM      2  H4  DSN d   1      12.322  48.309   6.068  0.00  0.00     0.104 H 
ENDROOT
BRANCH   1   3
ATOM      3  N   DSN d   1      13.567  46.902   7.042  0.00  0.00    -0.063 N 
ATOM      4  H1  DSN d   1      14.233  46.850   6.287  0.00  0.00     0.275 HD
ATOM      5  H2  DSN d   1      12.882  46.170   6.936  0.00  0.00     0.275 HD
ATOM      6  H3  DSN d   1      14.046  46.789   7.922  0.00  0.00     0.275 HD
ENDBRANCH   1   3
BRANCH   1   7
ATOM      7  C   DSN d   1      11.886  48.337   8.127  0.00  0.00     0.206 C 
ATOM      8  O   DSN d   1      11.601  49.439   8.637  0.00  0.00    -0.646 OA
ATOM      9  OXT DSN d   1      11.340  47.286   8.512  0.00  0.00    -0.646 OA
ENDBRANCH   1   7
BRANCH   1  10
ATOM     10  CB  DSN d   1      13.897  49.390   7.022  0.00  0.00     0.053 C 
ATOM     11  H5  DSN d   1      13.363  50.350   6.959  0.00  0.00     0.077 H 
ATOM     12  H6  DSN d   1      14.570  49.288   6.158  0.00  0.00     0.077 H 
BRANCH  10  13
ATOM     13  OG  DSN d   1      14.662  49.352   8.225  0.00  0.00    -0.398 OA
ATOM     14  H7  DSN d   1      15.124  48.524   8.279  0.00  0.00     0.209 HD
ENDBRANCH  10  13
ENDBRANCH   1  10
TORSDOF 4
