REMARK  2 active torsions:
REMARK  status: ('A' for Active; 'I' for Inactive)
REMARK    1  A    between atoms: CA_3  and  C_4 
REMARK    2  A    between atoms: CA_3  and  N_7 
ROOT
ATOM      1  CB  1AC d   1      13.258   2.098   6.630  0.00  0.00    -0.021 A 
ATOM      2  CG  1AC d   1      14.068   1.895   7.925  0.00  0.00    -0.021 A 
ATOM      3  CA  1AC d   1      13.007   0.875   7.503  0.00  0.00     0.210 A 
ATOM      4  H1  1AC d   1      13.747   1.984   5.652  0.00  0.00     0.037 H 
ATOM      5  H2  1AC d   1      12.504   2.897   6.572  0.00  0.00     0.037 H 
ATOM      6  H3  1AC d   1      13.892   2.547   8.793  0.00  0.00     0.037 H 
ATOM      7  H4  1AC d   1      15.135   1.634   7.873  0.00  0.00     0.037 H 
ENDROOT
BRANCH   3   8
ATOM      8  C   1AC d   1      11.768   0.877   8.361  0.00  0.00     0.210 C 
ATOM      9  OXT 1AC d   1      11.442   1.937   8.931  0.00  0.00    -0.646 OA
ATOM     10  O   1AC d   1      11.115  -0.199   8.478  0.00  0.00    -0.646 OA
ENDBRANCH   3   8
BRANCH   3  11
ATOM     11  N   1AC d   1      13.527  -0.391   6.996  0.00  0.00    -0.060 N 
ATOM     12  H5  1AC d   1      12.759  -0.994   6.745  0.00  0.00     0.275 HD
ATOM     13  H6  1AC d   1      14.084  -0.835   7.709  0.00  0.00     0.275 HD
ATOM     14  H7  1AC d   1      14.098  -0.218   6.183  0.00  0.00     0.275 HD
ENDBRANCH   3  11
TORSDOF 2
