REMARK  23 active torsions:
REMARK  status: ('A' for Active; 'I' for Inactive)
REMARK    1  A    between atoms: C7_2  and  C4_4 
REMARK    2  A    between atoms: C4_4  and  C1_5 
REMARK    3  A    between atoms: C1_5  and  C3_6 
REMARK    4  A    between atoms: C1_5  and  N2_11 
REMARK    5  A    between atoms: C3_6  and  N6_7 
REMARK    6  A    between atoms: N6_7  and  C12_8 
REMARK    7  A    between atoms: N6_7  and  C11_9 
REMARK    8  A    between atoms: N6_7  and  C10_10 
REMARK       I    between atoms: N2_11  and  C5_12 
REMARK    9  A    between atoms: C5_12  and  C8_14 
REMARK   10  A    between atoms: C8_14  and  C15_15 
REMARK   11  A    between atoms: C15_15  and  C16_16 
REMARK   12  A    between atoms: C16_16  and  C17_17 
REMARK   13  A    between atoms: C17_17  and  C18_18 
REMARK   14  A    between atoms: C18_18  and  C19_19 
REMARK   15  A    between atoms: C19_19  and  C20_20 
REMARK   16  A    between atoms: C20_20  and  C21_21 
REMARK   17  A    between atoms: C21_21  and  C22_22 
REMARK   18  A    between atoms: C22_22  and  C23_23 
REMARK   19  A    between atoms: C23_23  and  C24_24 
REMARK   20  A    between atoms: C24_24  and  C25_25 
REMARK   21  A    between atoms: C25_25  and  C26_26 
REMARK   22  A    between atoms: C26_26  and  C27_27 
REMARK   23  A    between atoms: C27_27  and  C28_28 
ROOT
ATOM      1  C16 NON d   1      42.428 -20.114  22.446  0.00  0.00    -0.065 C 
ATOM      2  H20 NON d   1      41.359 -20.222  22.680  0.00  0.00     0.033 H 
ATOM      3  H21 NON d   1      42.626 -19.089  22.098  0.00  0.00     0.033 H 
ENDROOT
BRANCH   1   4
ATOM      4  C15 NON d   1      42.778 -21.091  21.306  0.00  0.00    -0.057 C 
ATOM      5  H18 NON d   1      43.871 -21.133  21.193  0.00  0.00     0.033 H 
ATOM      6  H19 NON d   1      42.398 -22.091  21.562  0.00  0.00     0.033 H 
BRANCH   4   7
ATOM      7  C8  NON d   1      42.158 -20.646  19.986  0.00  0.00     0.009 C 
ATOM      8  H16 NON d   1      42.154 -19.546  19.956  0.00  0.00     0.047 H 
ATOM      9  H17 NON d   1      42.777 -21.032  19.163  0.00  0.00     0.047 H 
BRANCH   7  10
ATOM     10  C5  NON d   1      40.727 -21.141  19.789  0.00  0.00     0.217 C 
ATOM     11  N2  NON d   1      40.008 -20.428  18.911  0.00  0.00    -0.354 N 
ATOM     12  H15 NON d   1      40.441 -19.626  18.500  0.00  0.00     0.162 HD
ATOM     13  O9  NON d   1      40.289 -22.128  20.386  0.00  0.00    -0.274 OA
BRANCH  11  14
ATOM     14  C1  NON d   1      38.639 -20.737  18.512  0.00  0.00     0.044 C 
ATOM     15  H3  NON d   1      38.271 -21.684  18.933  0.00  0.00     0.075 H 
BRANCH  14  16
ATOM     16  C4  NON d   1      38.766 -20.745  16.986  0.00  0.00     0.036 C 
ATOM     17  H1  NON d   1      38.668 -19.713  16.618  0.00  0.00     0.052 H 
ATOM     18  H2  NON d   1      39.757 -21.138  16.716  0.00  0.00     0.052 H 
BRANCH  16  19
ATOM     19  C7  NON d   1      37.708 -21.599  16.323  0.00  0.00     0.174 C 
ATOM     20  O14 NON d   1      37.701 -21.643  15.064  0.00  0.00    -0.648 OA
ATOM     21  O13 NON d   1      36.892 -22.221  17.039  0.00  0.00    -0.648 OA
ENDBRANCH  16  19
ENDBRANCH  14  16
BRANCH  14  22
ATOM     22  C3  NON d   1      37.721 -19.558  18.851  0.00  0.00     0.103 C 
ATOM     23  H4  NON d   1      36.875 -19.587  18.149  0.00  0.00     0.079 H 
ATOM     24  H5  NON d   1      38.298 -18.635  18.692  0.00  0.00     0.079 H 
BRANCH  22  25
ATOM     25  N6  NON d   1      37.156 -19.498  20.226  0.00  0.00    -0.077 N 
BRANCH  25  26
ATOM     26  C12 NON d   1      36.354 -20.682  20.564  0.00  0.00     0.067 C 
ATOM     27  H6  NON d   1      35.965 -20.581  21.588  0.00  0.00     0.068 H 
ATOM     28  H7  NON d   1      36.983 -21.582  20.498  0.00  0.00     0.068 H 
ATOM     29  H8  NON d   1      35.514 -20.769  19.859  0.00  0.00     0.068 H 
ENDBRANCH  25  26
BRANCH  25  30
ATOM     30  C11 NON d   1      36.253 -18.315  20.195  0.00  0.00     0.067 C 
ATOM     31  H9  NON d   1      36.835 -17.416  19.943  0.00  0.00     0.068 H 
ATOM     32  H10 NON d   1      35.785 -18.185  21.182  0.00  0.00     0.068 H 
ATOM     33  H11 NON d   1      35.471 -18.470  19.437  0.00  0.00     0.068 H 
ENDBRANCH  25  30
BRANCH  25  34
ATOM     34  C10 NON d   1      38.234 -19.378  21.245  0.00  0.00     0.067 C 
ATOM     35  H12 NON d   1      38.865 -20.279  21.219  0.00  0.00     0.068 H 
ATOM     36  H13 NON d   1      37.785 -19.274  22.244  0.00  0.00     0.068 H 
ATOM     37  H14 NON d   1      38.849 -18.493  21.026  0.00  0.00     0.068 H 
ENDBRANCH  25  34
ENDBRANCH  22  25
ENDBRANCH  14  22
ENDBRANCH  11  14
ENDBRANCH   7  10
ENDBRANCH   4   7
ENDBRANCH   1   4
BRANCH   1  38
ATOM     38  C17 NON d   1      43.226 -20.351  23.722  0.00  0.00    -0.065 C 
ATOM     39  H22 NON d   1      43.263 -19.413  24.295  0.00  0.00     0.033 H 
ATOM     40  H23 NON d   1      44.247 -20.654  23.448  0.00  0.00     0.033 H 
BRANCH  38  41
ATOM     41  C18 NON d   1      42.615 -21.430  24.595  0.00  0.00    -0.065 C 
ATOM     42  H24 NON d   1      42.562 -22.371  24.027  0.00  0.00     0.033 H 
ATOM     43  H25 NON d   1      41.602 -21.125  24.895  0.00  0.00     0.033 H 
BRANCH  41  44
ATOM     44  C19 NON d   1      43.471 -21.641  25.845  0.00  0.00    -0.065 C 
ATOM     45  H26 NON d   1      43.304 -20.806  26.541  0.00  0.00     0.033 H 
ATOM     46  H27 NON d   1      44.532 -21.669  25.555  0.00  0.00     0.033 H 
BRANCH  44  47
ATOM     47  C20 NON d   1      43.108 -22.947  26.536  0.00  0.00    -0.065 C 
ATOM     48  H28 NON d   1      43.113 -23.755  25.790  0.00  0.00     0.033 H 
ATOM     49  H29 NON d   1      42.100 -22.851  26.966  0.00  0.00     0.033 H 
BRANCH  47  50
ATOM     50  C21 NON d   1      44.086 -23.305  27.654  0.00  0.00    -0.065 C 
ATOM     51  H30 NON d   1      45.083 -22.909  27.411  0.00  0.00     0.033 H 
ATOM     52  H31 NON d   1      44.142 -24.399  27.757  0.00  0.00     0.033 H 
BRANCH  50  53
ATOM     53  C22 NON d   1      43.604 -22.699  28.952  0.00  0.00    -0.065 C 
ATOM     54  H32 NON d   1      42.504 -22.696  28.953  0.00  0.00     0.033 H 
ATOM     55  H33 NON d   1      43.973 -21.665  29.017  0.00  0.00     0.033 H 
BRANCH  53  56
ATOM     56  C23 NON d   1      44.090 -23.467  30.167  0.00  0.00    -0.065 C 
ATOM     57  H34 NON d   1      45.167 -23.296  30.314  0.00  0.00     0.033 H 
ATOM     58  H35 NON d   1      43.905 -24.543  30.030  0.00  0.00     0.033 H 
BRANCH  56  59
ATOM     59  C24 NON d   1      43.315 -22.956  31.369  0.00  0.00    -0.065 C 
ATOM     60  H36 NON d   1      42.347 -23.476  31.423  0.00  0.00     0.033 H 
ATOM     61  H37 NON d   1      43.144 -21.875  31.256  0.00  0.00     0.033 H 
BRANCH  59  62
ATOM     62  C25 NON d   1      44.089 -23.208  32.649  0.00  0.00    -0.065 C 
ATOM     63  H38 NON d   1      45.139 -22.914  32.505  0.00  0.00     0.033 H 
ATOM     64  H39 NON d   1      44.039 -24.277  32.902  0.00  0.00     0.033 H 
BRANCH  62  65
ATOM     65  C26 NON d   1      43.488 -22.394  33.780  0.00  0.00    -0.065 C 
ATOM     66  H40 NON d   1      42.393 -22.396  33.680  0.00  0.00     0.033 H 
ATOM     67  H41 NON d   1      43.860 -21.361  33.715  0.00  0.00     0.033 H 
BRANCH  65  68
ATOM     68  C27 NON d   1      43.863 -22.971  35.137  0.00  0.00    -0.069 C 
ATOM     69  H42 NON d   1      44.929 -23.241  35.139  0.00  0.00     0.032 H 
ATOM     70  H43 NON d   1      43.257 -23.868  35.334  0.00  0.00     0.032 H 
BRANCH  68  71
ATOM     71  C28 NON d   1      43.602 -21.940  36.211  0.00  0.00    -0.077 C 
ATOM     72  H44 NON d   1      43.873 -22.356  37.193  0.00  0.00     0.027 H 
ATOM     73  H45 NON d   1      42.536 -21.670  36.209  0.00  0.00     0.027 H 
ATOM     74  H46 NON d   1      44.208 -21.043  36.013  0.00  0.00     0.027 H 
ENDBRANCH  68  71
ENDBRANCH  65  68
ENDBRANCH  62  65
ENDBRANCH  59  62
ENDBRANCH  56  59
ENDBRANCH  53  56
ENDBRANCH  50  53
ENDBRANCH  47  50
ENDBRANCH  44  47
ENDBRANCH  41  44
ENDBRANCH  38  41
ENDBRANCH   1  38
TORSDOF 23
