REMARK  5 active torsions:
REMARK  status: ('A' for Active; 'I' for Inactive)
REMARK    1  A    between atoms: C1_1  and  C13_13 
REMARK    2  A    between atoms: C6_6  and  C10_10 
REMARK       I    between atoms: C10_10  and  N11_11 
REMARK    3  A    between atoms: N16_16  and  C19_19 
REMARK    4  A    between atoms: C19_19  and  C20_20 
REMARK    5  A    between atoms: C20_20  and  C21_21 
ROOT
ATOM      1  C13 AAI d   1     -23.607  63.870  27.003  0.00  0.00     0.007 C 
ATOM      2  C14 AAI d   1     -23.163  65.011  27.942  0.00  0.00    -0.032 C 
ATOM      3  C15 AAI d   1     -21.936  64.586  28.782  0.00  0.00     0.084 C 
ATOM      4  N16 AAI d   1     -22.197  63.354  29.587  0.00  0.00    -0.071 N 
ATOM      5  C17 AAI d   1     -22.640  62.220  28.717  0.00  0.00     0.084 C 
ATOM      6  C18 AAI d   1     -23.853  62.572  27.820  0.00  0.00    -0.032 C 
ATOM      7  H7  AAI d   1     -22.806  63.681  26.273  0.00  0.00     0.052 H 
ATOM      8  H8  AAI d   1     -23.992  65.265  28.618  0.00  0.00     0.036 H 
ATOM      9  H9  AAI d   1     -22.899  65.892  27.339  0.00  0.00     0.036 H 
ATOM     10  H10 AAI d   1     -21.675  65.407  29.466  0.00  0.00     0.076 H 
ATOM     11  H11 AAI d   1     -21.093  64.392  28.103  0.00  0.00     0.076 H 
ATOM     12  H12 AAI d   1     -22.951  63.560  30.223  0.00  0.00     0.279 HD
ATOM     13  H13 AAI d   1     -22.917  61.373  29.362  0.00  0.00     0.076 H 
ATOM     14  H14 AAI d   1     -21.800  61.928  28.069  0.00  0.00     0.076 H 
ATOM     15  H15 AAI d   1     -24.034  61.741  27.122  0.00  0.00     0.036 H 
ATOM     16  H16 AAI d   1     -24.738  62.715  28.457  0.00  0.00     0.036 H 
ENDROOT
BRANCH   1  17
ATOM     17  C1  AAI d   1     -24.870  64.268  26.249  0.00  0.00     0.109 A 
ATOM     18  N2  AAI d   1     -24.879  65.187  25.277  0.00  0.00    -0.232 NA
ATOM     19  C3  AAI d   1     -26.188  65.288  24.820  0.00  0.00     0.101 A 
ATOM     20  C4  AAI d   1     -26.961  64.350  25.606  0.00  0.00     0.063 A 
ATOM     21  C6  AAI d   1     -26.818  66.074  23.824  0.00  0.00     0.062 A 
ATOM     22  N5  AAI d   1     -26.085  63.738  26.486  0.00  0.00    -0.342 N 
ATOM     23  C9  AAI d   1     -28.331  64.212  25.386  0.00  0.00    -0.055 A 
ATOM     24  H1  AAI d   1     -26.317  63.018  27.185  0.00  0.00     0.167 HD
ATOM     25  C8  AAI d   1     -28.978  64.992  24.389  0.00  0.00    -0.080 A 
ATOM     26  H4  AAI d   1     -28.905  63.508  25.977  0.00  0.00     0.087 H 
ATOM     27  C7  AAI d   1     -28.226  65.916  23.614  0.00  0.00    -0.065 A 
ATOM     28  H3  AAI d   1     -30.043  64.882  24.220  0.00  0.00     0.083 H 
ATOM     29  H2  AAI d   1     -28.724  66.508  22.855  0.00  0.00     0.085 H 
BRANCH  21  30
ATOM     30  C10 AAI d   1     -26.090  67.064  22.975  0.00  0.00     0.251 C 
ATOM     31  N11 AAI d   1     -24.768  67.163  23.162  0.00  0.00    -0.366 N 
ATOM     32  H5  AAI d   1     -24.233  67.811  22.619  0.00  0.00     0.159 HD
ATOM     33  H6  AAI d   1     -24.315  66.589  23.845  0.00  0.00     0.159 HD
ATOM     34  O12 AAI d   1     -26.638  67.778  22.138  0.00  0.00    -0.268 OA
ENDBRANCH  21  30
ENDBRANCH   1  17
BRANCH   4  35
ATOM     35  C19 AAI d   1     -21.004  62.984  30.408  0.00  0.00     0.083 C 
ATOM     36  H17 AAI d   1     -21.274  62.109  31.017  0.00  0.00     0.075 H 
ATOM     37  H18 AAI d   1     -20.774  63.834  31.068  0.00  0.00     0.075 H 
BRANCH  35  38
ATOM     38  C20 AAI d   1     -19.714  62.633  29.623  0.00  0.00    -0.046 C 
ATOM     39  H19 AAI d   1     -19.433  63.496  29.002  0.00  0.00     0.034 H 
ATOM     40  H20 AAI d   1     -19.919  61.767  28.977  0.00  0.00     0.034 H 
BRANCH  38  41
ATOM     41  C21 AAI d   1     -18.541  62.290  30.547  0.00  0.00    -0.075 C 
ATOM     42  H21 AAI d   1     -17.655  62.050  29.941  0.00  0.00     0.027 H 
ATOM     43  H22 AAI d   1     -18.806  61.422  31.169  0.00  0.00     0.027 H 
ATOM     44  H23 AAI d   1     -18.320  63.151  31.194  0.00  0.00     0.027 H 
ENDBRANCH  38  41
ENDBRANCH  35  38
ENDBRANCH   4  35
TORSDOF 5
