REMARK  9 active torsions:
REMARK  status: ('A' for Active; 'I' for Inactive)
REMARK    1  A    between atoms: C22_2  and  C21_4 
REMARK    2  A    between atoms: CAU_5  and  CAR_6 
REMARK    3  A    between atoms: CAL_11  and  CAK_12 
REMARK    4  A    between atoms: CAK_12  and  B_13 
REMARK    5  A    between atoms: CAK_12  and  N_16 
REMARK    6  A    between atoms: B_13  and  OAT_14 
REMARK    7  A    between atoms: B_13  and  OAO_15 
REMARK       I    between atoms: N_16  and  CAH_17 
REMARK    8  A    between atoms: CAH_17  and  CAG_19 
REMARK    9  A    between atoms: CAG_19  and  CAE_20 
ROOT
ATOM      1  CAK SM4 d   1      26.195   5.805  14.936  0.00  0.00     0.071 C 
ATOM      2  H7  SM4 d   1      27.128   5.942  14.369  0.00  0.00     0.072 H 
ENDROOT
BRANCH   1   3
ATOM      3  CAL SM4 d   1      25.541   7.076  15.219  0.00  0.00    -0.038 A 
ATOM      4  CAQ SM4 d   1      24.356   7.120  15.962  0.00  0.00    -0.066 A 
ATOM      5  CAR SM4 d   1      23.779   8.366  16.224  0.00  0.00    -0.035 A 
ATOM      6  H3  SM4 d   1      23.896   6.208  16.326  0.00  0.00     0.085 H 
ATOM      7  CAS SM4 d   1      24.387   9.518  15.754  0.00  0.00    -0.073 A 
ATOM      8  CAN SM4 d   1      25.565   9.444  15.032  0.00  0.00    -0.082 A 
ATOM      9  H4  SM4 d   1      23.937  10.484  15.953  0.00  0.00     0.084 H 
ATOM     10  CAM SM4 d   1      26.155   8.224  14.760  0.00  0.00    -0.075 A 
ATOM     11  H5  SM4 d   1      26.031  10.355  14.675  0.00  0.00     0.083 H 
ATOM     12  H6  SM4 d   1      27.080   8.170  14.198  0.00  0.00     0.084 H 
BRANCH   5  13
ATOM     13  CAU SM4 d   1      22.530   8.544  16.992  0.00  0.00    -0.067 C 
ATOM     14  C21 SM4 d   1      21.805   7.548  17.503  0.00  0.00    -0.009 C 
ATOM     15  H1  SM4 d   1      22.139   6.515  17.422  0.00  0.00     0.094 H 
ATOM     16  H2  SM4 d   1      22.176   9.561  17.152  0.00  0.00     0.085 H 
BRANCH  14  17
ATOM     17  C22 SM4 d   1      20.538   7.884  18.181  0.00  0.00     0.198 C 
ATOM     18  O24 SM4 d   1      19.979   8.975  17.953  0.00  0.00    -0.645 OA
ATOM     19  O23 SM4 d   1      20.041   7.075  18.975  0.00  0.00    -0.645 OA
ENDBRANCH  14  17
ENDBRANCH   5  13
ENDBRANCH   1   3
BRANCH   1  20
ATOM     20  B   SM4 d   1      26.501   5.247  16.404  0.00  0.00     0.519 B 
BRANCH  20  21
ATOM     21  OAT SM4 d   1      27.118   6.191  17.458  0.00  0.00    -0.436 OA
ATOM     22  H8  SM4 d   1      27.727   5.703  18.001  0.00  0.00     0.184 HD
ENDBRANCH  20  21
BRANCH  20  23
ATOM     23  OAO SM4 d   1      25.712   4.039  16.895  0.00  0.00    -0.436 OA
ATOM     24  H9  SM4 d   1      26.277   3.485  17.421  0.00  0.00     0.184 HD
ENDBRANCH  20  23
ENDBRANCH   1  20
BRANCH   1  25
ATOM     25  N   SM4 d   1      25.283   4.974  14.174  0.00  0.00    -0.355 N 
ATOM     26  CAH SM4 d   1      24.902   5.326  12.953  0.00  0.00     0.222 C 
ATOM     27  OAI SM4 d   1      25.285   6.335  12.357  0.00  0.00    -0.273 OA
ATOM     28  H10 SM4 d   1      24.937   4.125  14.574  0.00  0.00     0.162 HD
BRANCH  26  29
ATOM     29  CAG SM4 d   1      23.942   4.365  12.323  0.00  0.00     0.039 C 
ATOM     30  H11 SM4 d   1      23.842   3.484  12.975  0.00  0.00     0.055 H 
ATOM     31  H12 SM4 d   1      24.340   4.055  11.346  0.00  0.00     0.055 H 
BRANCH  29  32
ATOM     32  CAE SM4 d   1      22.587   4.974  12.122  0.00  0.00    -0.009 A 
ATOM     33  CAF SM4 d   1      21.730   5.004  11.035  0.00  0.00    -0.069 A 
ATOM     34  CAC SM4 d   1      20.540   5.674  11.323  0.00  0.00    -0.076 A 
ATOM     35  H13 SM4 d   1      21.958   4.557  10.068  0.00  0.00     0.085 H 
ATOM     36  CAB SM4 d   1      20.396   6.186  12.605  0.00  0.00    -0.045 A 
ATOM     37  H14 SM4 d   1      19.758   5.790  10.574  0.00  0.00     0.084 H 
ATOM     38  SAD SM4 d   1      21.842   5.783  13.456  0.00  0.00    -0.106 SA
ATOM     39  H15 SM4 d   1      19.540   6.734  12.996  0.00  0.00     0.095 H 
ENDBRANCH  29  32
ENDBRANCH  26  29
ENDBRANCH   1  25
TORSDOF 9
