REMARK  3 active torsions:
REMARK  status: ('A' for Active; 'I' for Inactive)
REMARK    1  A    between atoms: C8_8  and  C18_9 
REMARK       I    between atoms: C18_9  and  N20_10 
REMARK    2  A    between atoms: C7_12  and  S10_14 
REMARK    3  A    between atoms: S10_14  and  N11_17 
ROOT
ATOM      1 BR   MRX d   1       6.680  10.216  18.089  0.00  0.00    -0.051 Br
ATOM      2  C6  MRX d   1       7.442  11.591  16.930  0.00  0.00     0.011 A 
ATOM      3  C1  MRX d   1       8.750  12.102  17.054  0.00  0.00    -0.052 A 
ATOM      4  C5  MRX d   1       6.652  12.088  15.856  0.00  0.00    -0.064 A 
ATOM      5  C4  MRX d   1       7.163  13.009  14.929  0.00  0.00    -0.055 A 
ATOM      6  C3  MRX d   1       8.454  13.517  15.107  0.00  0.00     0.044 A 
ATOM      7  N9  MRX d   1       9.195  14.461  14.371  0.00  0.00    -0.350 N 
ATOM      8  C8  MRX d   1      10.459  14.697  14.856  0.00  0.00     0.125 A 
ATOM      9  C7  MRX d   1      10.576  13.833  15.984  0.00  0.00     0.119 A 
ATOM     10  C2  MRX d   1       9.289  13.074  16.148  0.00  0.00     0.017 A 
ATOM     11  H1  MRX d   1       9.373  11.746  17.866  0.00  0.00     0.087 H 
ATOM     12  H2  MRX d   1       5.629  11.746  15.751  0.00  0.00     0.085 H 
ATOM     13  H3  MRX d   1       6.563  13.324  14.083  0.00  0.00     0.087 H 
ATOM     14  H4  MRX d   1       8.820  14.936  13.537  0.00  0.00     0.166 HD
ENDROOT
BRANCH   9  15
ATOM     15  S10 MRX d   1      11.960  13.675  17.064  0.00  0.00     0.247 S 
ATOM     16  O16 MRX d   1      13.090  14.432  16.480  0.00  0.00    -0.206 OA
ATOM     17  O17 MRX d   1      11.834  12.328  17.559  0.00  0.00    -0.206 OA
BRANCH  15  18
ATOM     18  N11 MRX d   1      11.639  14.586  18.549  0.00  0.00    -0.206 NA
ATOM     19  C15 MRX d   1      11.547  16.086  18.537  0.00  0.00    -0.006 C 
ATOM     20  C14 MRX d   1      10.945  16.556  19.833  0.00  0.00    -0.052 C 
ATOM     21  H7  MRX d   1      10.912  16.409  17.698  0.00  0.00     0.057 H 
ATOM     22  H8  MRX d   1      12.553  16.515  18.422  0.00  0.00     0.057 H 
ATOM     23  C13 MRX d   1      10.693  15.213  20.545  0.00  0.00    -0.052 C 
ATOM     24  H9  MRX d   1      10.008  17.107  19.667  0.00  0.00     0.034 H 
ATOM     25  H10 MRX d   1      11.646  17.188  20.398  0.00  0.00     0.034 H 
ATOM     26  C12 MRX d   1      10.464  14.236  19.394  0.00  0.00    -0.006 C 
ATOM     27  H11 MRX d   1       9.806  15.272  21.193  0.00  0.00     0.034 H 
ATOM     28  H12 MRX d   1      11.566  14.916  21.145  0.00  0.00     0.034 H 
ATOM     29  H13 MRX d   1      10.496  13.189  19.730  0.00  0.00     0.057 H 
ATOM     30  H14 MRX d   1       9.513  14.426  18.876  0.00  0.00     0.057 H 
ENDBRANCH  15  18
ENDBRANCH   9  15
BRANCH   8  31
ATOM     31  C18 MRX d   1      11.209  15.674  14.157  0.00  0.00     0.267 C 
ATOM     32  N20 MRX d   1      12.528  16.141  14.448  0.00  0.00    -0.365 N 
ATOM     33  H5  MRX d   1      12.949  16.841  13.871  0.00  0.00     0.159 HD
ATOM     34  H6  MRX d   1      13.030  15.768  15.228  0.00  0.00     0.159 HD
ATOM     35  O19 MRX d   1      10.633  16.242  13.160  0.00  0.00    -0.266 OA
ENDBRANCH   8  31
TORSDOF 3
