REMARK  13 active torsions:
REMARK  status: ('A' for Active; 'I' for Inactive)
REMARK    1  A    between atoms: C33_22  and  N1_1 
REMARK    2  A    between atoms: C30_44  and  C5_4 
REMARK    3  A    between atoms: C13_9  and  C30_44 
REMARK    4  A    between atoms: C15_10  and  O4_33 
REMARK    5  A    between atoms: C24_15  and  O3_25 
REMARK    6  A    between atoms: C32_23  and  C33_22 
REMARK    7  A    between atoms: C31_24  and  C32_23 
REMARK    8  A    between atoms: O3_25  and  C31_24 
REMARK    9  A    between atoms: C23_27  and  O2_28 
REMARK   10  A    between atoms: O2_28  and  C35_29 
REMARK   11  A    between atoms: O4_33  and  C29_32 
REMARK   12  A    between atoms: C11_38  and  C18_37 
REMARK   13  A    between atoms: N2_41  and  C34_42 
ROOT
ATOM      1  C21 AM7 d   1      61.592  12.435 119.912  0.00  0.00     0.029 A 
ATOM      2  C22 AM7 d   1      60.257  12.054 120.054  0.00  0.00    -0.033 A 
ATOM      3  C24 AM7 d   1      60.668  11.488 122.366  0.00  0.00     0.104 A 
ATOM      4  C26 AM7 d   1      62.451  12.351 121.010  0.00  0.00     0.072 A 
ATOM      5  C28 AM7 d   1      63.400  13.298 118.628  0.00  0.00    -0.032 A 
ATOM      6  C25 AM7 d   1      61.995  11.869 122.229  0.00  0.00    -0.019 A 
ATOM      7  C23 AM7 d   1      59.791  11.570 121.280  0.00  0.00     0.102 A 
ATOM      8  N4  AM7 d   1      63.726  12.730 120.911  0.00  0.00    -0.260 NA
ATOM      9  C27 AM7 d   1      64.212  13.185 119.765  0.00  0.00     0.005 A 
ATOM     10  C29 AM7 d   1      62.062  12.923 118.688  0.00  0.00     0.090 A 
ATOM     11  H10 AM7 d   1      59.580  12.133 119.212  0.00  0.00     0.089 H 
ATOM     12  H11 AM7 d   1      63.815  13.678 117.701  0.00  0.00     0.090 H 
ATOM     13  H24 AM7 d   1      62.673  11.790 123.071  0.00  0.00     0.091 H 
ATOM     14  H28 AM7 d   1      65.255  13.475 119.706  0.00  0.00     0.114 H 
ENDROOT
BRANCH  10  15
ATOM     15  O4  AM7 d   1      61.208  13.011 117.610  0.00  0.00    -0.307 OA
BRANCH  15  16
ATOM     16  C15 AM7 d   1      61.514  13.616 116.424  0.00  0.00     0.114 A 
ATOM     17  C20 AM7 d   1      61.494  15.006 116.280  0.00  0.00    -0.046 A 
ATOM     18  C19 AM7 d   1      61.798  15.554 115.024  0.00  0.00    -0.069 A 
ATOM     19  H9  AM7 d   1      61.249  15.647 117.120  0.00  0.00     0.087 H 
ATOM     20  C18 AM7 d   1      62.111  14.746 113.919  0.00  0.00    -0.016 A 
ATOM     21  H29 AM7 d   1      61.791  16.631 114.904  0.00  0.00     0.085 H 
ATOM     22  C17 AM7 d   1      62.109  13.359 114.073  0.00  0.00    -0.032 A 
ATOM     23  C16 AM7 d   1      61.805  12.816 115.316  0.00  0.00     0.150 A 
ATOM     24  H8  AM7 d   1      62.342  12.713 113.234  0.00  0.00     0.089 H 
ATOM     25  F1  AM7 d   1      61.819  11.484 115.458  0.00  0.00    -0.203 F 
BRANCH  20  26
ATOM     26  C11 AM7 d   1      62.395  15.332 112.672  0.00  0.00     0.060 A 
ATOM     27  C12 AM7 d   1      61.888  14.798 111.468  0.00  0.00     0.261 A 
ATOM     28  O5  AM7 d   1      61.187  13.777 111.453  0.00  0.00    -0.267 OA
ATOM     29  N2  AM7 d   1      62.194  15.441 110.245  0.00  0.00    -0.306 N 
ATOM     30  C13 AM7 d   1      63.011  16.603 110.280  0.00  0.00     0.112 A 
ATOM     31  N3  AM7 d   1      63.465  17.074 111.459  0.00  0.00    -0.246 NA
ATOM     32  C14 AM7 d   1      63.181  16.482 112.613  0.00  0.00     0.020 A 
ATOM     33  H33 AM7 d   1      63.572  16.905 113.537  0.00  0.00     0.116 H 
BRANCH  29  34
ATOM     34  C34 AM7 d   1      61.668  14.879 108.957  0.00  0.00    -0.010 C 
ATOM     35  H30 AM7 d   1      62.005  15.506 108.118  0.00  0.00     0.057 H 
ATOM     36  H31 AM7 d   1      60.569  14.865 108.985  0.00  0.00     0.057 H 
ATOM     37  H32 AM7 d   1      62.045  13.854 108.823  0.00  0.00     0.057 H 
ENDBRANCH  29  34
BRANCH  30  38
ATOM     38  C30 AM7 d   1      63.379  17.366 109.006  0.00  0.00     0.014 C 
ATOM     39  H34 AM7 d   1      62.515  17.343 108.325  0.00  0.00     0.051 H 
ATOM     40  H35 AM7 d   1      63.604  18.408 109.278  0.00  0.00     0.051 H 
BRANCH  38  41
ATOM     41  C5  AM7 d   1      64.590  16.785 108.271  0.00  0.00    -0.051 A 
ATOM     42  C6  AM7 d   1      65.761  16.471 108.957  0.00  0.00    -0.076 A 
ATOM     43  C7  AM7 d   1      66.852  15.953 108.254  0.00  0.00    -0.082 A 
ATOM     44  H4  AM7 d   1      65.825  16.627 110.028  0.00  0.00     0.084 H 
ATOM     45  C8  AM7 d   1      66.771  15.743 106.877  0.00  0.00    -0.083 A 
ATOM     46  H5  AM7 d   1      67.768  15.713 108.782  0.00  0.00     0.083 H 
ATOM     47  C9  AM7 d   1      65.590  16.054 106.203  0.00  0.00    -0.082 A 
ATOM     48  H6  AM7 d   1      67.620  15.341 106.335  0.00  0.00     0.083 H 
ATOM     49  C10 AM7 d   1      64.507  16.580 106.894  0.00  0.00    -0.076 A 
ATOM     50  H36 AM7 d   1      65.518  15.884 105.135  0.00  0.00     0.083 H 
ATOM     51  H7  AM7 d   1      63.596  16.832 106.363  0.00  0.00     0.084 H 
ENDBRANCH  38  41
ENDBRANCH  30  38
ENDBRANCH  20  26
ENDBRANCH  15  16
ENDBRANCH  10  15
BRANCH   7  52
ATOM     52  O2  AM7 d   1      58.477  11.187 121.469  0.00  0.00    -0.353 OA
BRANCH  52  53
ATOM     53  C35 AM7 d   1      57.820  10.447 120.425  0.00  0.00     0.010 C 
ATOM     54  H25 AM7 d   1      56.787  10.221 120.730  0.00  0.00     0.066 H 
ATOM     55  H26 AM7 d   1      58.363   9.507 120.244  0.00  0.00     0.066 H 
ATOM     56  H27 AM7 d   1      57.807  11.046 119.503  0.00  0.00     0.066 H 
ENDBRANCH  52  53
ENDBRANCH   7  52
BRANCH   3  57
ATOM     57  O3  AM7 d   1      60.162  10.995 123.527  0.00  0.00    -0.348 OA
BRANCH  57  58
ATOM     58  C31 AM7 d   1      60.921  11.025 124.747  0.00  0.00     0.028 C 
ATOM     59  H22 AM7 d   1      61.944  10.668 124.555  0.00  0.00     0.075 H 
ATOM     60  H23 AM7 d   1      60.958  12.054 125.133  0.00  0.00     0.075 H 
BRANCH  58  61
ATOM     61  C32 AM7 d   1      60.240  10.109 125.781  0.00  0.00    -0.022 C 
ATOM     62  H20 AM7 d   1      60.132   9.107 125.340  0.00  0.00     0.038 H 
ATOM     63  H21 AM7 d   1      60.884  10.050 126.671  0.00  0.00     0.038 H 
BRANCH  61  64
ATOM     64  C33 AM7 d   1      58.859  10.596 126.217  0.00  0.00     0.086 C 
ATOM     65  H18 AM7 d   1      58.952  11.582 126.696  0.00  0.00     0.076 H 
ATOM     66  H19 AM7 d   1      58.203  10.676 125.337  0.00  0.00     0.076 H 
BRANCH  64  67
ATOM     67  N1  AM7 d   1      58.279   9.630 127.180  0.00  0.00    -0.067 N 
ATOM     68  C4  AM7 d   1      58.117  10.336 128.484  0.00  0.00     0.103 C 
ATOM     69  C3  AM7 d   1      56.989   9.736 129.330  0.00  0.00     0.042 C 
ATOM     70  H2  AM7 d   1      57.889  11.394 128.288  0.00  0.00     0.079 H 
ATOM     71  H3  AM7 d   1      59.059  10.262 129.046  0.00  0.00     0.079 H 
ATOM     72  O1  AM7 d   1      55.799   9.872 128.542  0.00  0.00    -0.388 OA
ATOM     73  H16 AM7 d   1      56.886  10.285 130.278  0.00  0.00     0.076 H 
ATOM     74  H17 AM7 d   1      57.190   8.675 129.541  0.00  0.00     0.076 H 
ATOM     75  C2  AM7 d   1      55.830   8.887 127.480  0.00  0.00     0.042 C 
ATOM     76  C1  AM7 d   1      57.065   9.014 126.551  0.00  0.00     0.103 C 
ATOM     77  H14 AM7 d   1      55.839   7.886 127.935  0.00  0.00     0.076 H 
ATOM     78  H15 AM7 d   1      54.922   9.005 126.870  0.00  0.00     0.076 H 
ATOM     79  H12 AM7 d   1      57.336   8.005 126.206  0.00  0.00     0.079 H 
ATOM     80  H13 AM7 d   1      56.779   9.633 125.688  0.00  0.00     0.079 H 
ATOM     81  H1  AM7 d   1      58.939   8.883 127.331  0.00  0.00     0.280 HD
ENDBRANCH  64  67
ENDBRANCH  61  64
ENDBRANCH  58  61
ENDBRANCH  57  58
ENDBRANCH   3  57
TORSDOF 13
