REMARK  12 active torsions:
REMARK  status: ('A' for Active; 'I' for Inactive)
REMARK    1  A    between atoms: O4'_21  and  C1_1 
REMARK    2  A    between atoms: C2_2  and  O2_7 
REMARK    3  A    between atoms: C3_3  and  O3_8 
REMARK    4  A    between atoms: C4_4  and  O4_9 
REMARK    5  A    between atoms: C5_5  and  C6_6 
REMARK    6  A    between atoms: C6_6  and  O6_11 
REMARK    7  A    between atoms: C1'_12  and  O1'_18 
REMARK    8  A    between atoms: C2'_13  and  O2'_19 
REMARK    9  A    between atoms: C3'_14  and  O3'_20 
REMARK   10  A    between atoms: C4'_15  and  O4'_21 
REMARK   11  A    between atoms: C5'_16  and  C6'_17 
REMARK   12  A    between atoms: C6'_17  and  O6'_23 
ROOT
ATOM      1  O4' NON d   1      -0.124  -5.247  77.330  0.00  0.00    -0.348 OA
ENDROOT
BRANCH   1   2
ATOM      2  C1  NON d   1      -0.209  -5.264  75.899  0.00  0.00     0.159 C 
ATOM      3  C2  NON d   1       0.822  -4.291  75.318  0.00  0.00     0.110 C 
ATOM      4  C3  NON d   1       0.852  -4.348  73.790  0.00  0.00     0.092 C 
ATOM      5  H2  NON d   1       1.821  -4.554  75.695  0.00  0.00     0.094 H 
ATOM      6  C4  NON d   1       0.840  -5.794  73.291  0.00  0.00     0.090 C 
ATOM      7  H3  NON d   1      -0.034  -3.826  73.399  0.00  0.00     0.091 H 
ATOM      8  C5  NON d   1      -0.246  -6.604  74.004  0.00  0.00     0.089 C 
ATOM      9  H4  NON d   1       1.817  -6.246  73.516  0.00  0.00     0.091 H 
ATOM     10  O5  NON d   1       0.073  -6.579  75.409  0.00  0.00    -0.348 OA
ATOM     11  H5  NON d   1      -1.243  -6.181  73.812  0.00  0.00     0.090 H 
ATOM     12  H1  NON d   1      -1.220  -4.963  75.588  0.00  0.00     0.133 H 
BRANCH   3  13
ATOM     13  O2  NON d   1       0.473  -2.984  75.778  0.00  0.00    -0.388 OA
ATOM     14  H8  NON d   1       0.462  -2.976  76.728  0.00  0.00     0.210 HD
ENDBRANCH   3  13
BRANCH   4  15
ATOM     15  O3  NON d   1       2.035  -3.706  73.297  0.00  0.00    -0.390 OA
ATOM     16  H9  NON d   1       2.030  -3.722  72.347  0.00  0.00     0.210 HD
ENDBRANCH   4  15
BRANCH   6  17
ATOM     17  O4  NON d   1       0.635  -5.839  71.882  0.00  0.00    -0.390 OA
ATOM     18  H10 NON d   1       1.313  -5.334  71.448  0.00  0.00     0.210 HD
ENDBRANCH   6  17
BRANCH   8  19
ATOM     19  C6  NON d   1      -0.176  -8.064  73.545  0.00  0.00     0.043 C 
ATOM     20  H6  NON d   1       0.780  -8.508  73.859  0.00  0.00     0.078 H 
ATOM     21  H7  NON d   1      -0.262  -8.115  72.450  0.00  0.00     0.078 H 
BRANCH  19  22
ATOM     22  O6  NON d   1      -1.263  -8.774  74.151  0.00  0.00    -0.398 OA
ATOM     23  H11 NON d   1      -1.185  -8.724  75.096  0.00  0.00     0.209 HD
ENDBRANCH  19  22
ENDBRANCH   8  19
ENDBRANCH   1   2
BRANCH   1  24
ATOM     24  C4' NON d   1      -1.229  -5.966  77.875  0.00  0.00     0.096 C 
ATOM     25  C3' NON d   1      -0.905  -7.437  77.926  0.00  0.00     0.092 C 
ATOM     26  C2' NON d   1      -1.552  -8.203  79.076  0.00  0.00     0.110 C 
ATOM     27  H14 NON d   1       0.179  -7.503  78.098  0.00  0.00     0.091 H 
ATOM     28  C1' NON d   1      -1.600  -7.285  80.302  0.00  0.00     0.156 C 
ATOM     29  H13 NON d   1      -2.569  -8.513  78.795  0.00  0.00     0.094 H 
ATOM     30  O5' NON d   1      -2.459  -6.185  79.977  0.00  0.00    -0.349 OA
ATOM     31  H12 NON d   1      -0.586  -6.893  80.472  0.00  0.00     0.133 H 
ATOM     32  C5' NON d   1      -1.738  -5.287  79.117  0.00  0.00     0.089 C 
ATOM     33  H16 NON d   1      -0.888  -4.858  79.668  0.00  0.00     0.090 H 
ATOM     34  H15 NON d   1      -2.051  -5.880  77.149  0.00  0.00     0.091 H 
BRANCH  25  35
ATOM     35  O3' NON d   1      -1.156  -8.050  76.657  0.00  0.00    -0.390 OA
ATOM     36  H21 NON d   1      -0.615  -7.637  75.995  0.00  0.00     0.210 HD
ENDBRANCH  25  35
BRANCH  26  37
ATOM     37  O2' NON d   1      -0.760  -9.356  79.392  0.00  0.00    -0.388 OA
ATOM     38  H20 NON d   1       0.112  -9.079  79.647  0.00  0.00     0.210 HD
ENDBRANCH  26  37
BRANCH  28  39
ATOM     39  O1' NON d   1      -1.996  -7.940  81.493  0.00  0.00    -0.369 OA
ATOM     40  H19 NON d   1      -1.402  -8.660  81.670  0.00  0.00     0.212 HD
ENDBRANCH  28  39
BRANCH  32  41
ATOM     41  C6' NON d   1      -2.717  -4.174  78.698  0.00  0.00     0.043 C 
ATOM     42  H17 NON d   1      -2.209  -3.199  78.744  0.00  0.00     0.078 H 
ATOM     43  H18 NON d   1      -3.583  -4.169  79.377  0.00  0.00     0.078 H 
BRANCH  41  44
ATOM     44  O6' NON d   1      -3.157  -4.422  77.363  0.00  0.00    -0.398 OA
ATOM     45  H22 NON d   1      -2.407  -4.427  76.779  0.00  0.00     0.209 HD
ENDBRANCH  41  44
ENDBRANCH  32  41
ENDBRANCH   1  24
TORSDOF 12
