REMARK  10 active torsions:
REMARK  status: ('A' for Active; 'I' for Inactive)
REMARK    1  A    between atoms: C13_13  and  C5_5 
REMARK    2  A    between atoms: C6_6  and  C14_14 
REMARK    3  A    between atoms: C7_7  and  C15_15 
REMARK    4  A    between atoms: C8_8  and  C16_16 
REMARK    5  A    between atoms: C9_9  and  N23_23 
REMARK    6  A    between atoms: N23_23  and  C12_12 
REMARK       I    between atoms: N25_25  and  C13_13 
REMARK       I    between atoms: C14_14  and  N24_24 
REMARK    7  A    between atoms: C19_19  and  C17_17 
REMARK    8  A    between atoms: O28_28  and  C18_18 
REMARK    9  A    between atoms: N24_24  and  C19_19 
REMARK   10  A    between atoms: N25_25  and  O28_28 
ROOT
ATOM      1  C4  279 d   1      -1.486  -3.300  21.671  0.00  0.00     0.020 A 
ATOM      2  C6  279 d   1      -1.632  -4.517  21.030  0.00  0.00     0.057 A 
ATOM      3  C8  279 d   1      -2.056  -4.237  19.685  0.00  0.00    -0.012 A 
ATOM      4  C10 279 d   1      -2.159  -2.857  19.599  0.00  0.00     0.111 A 
ATOM      5  C11 279 d   1      -2.130  -0.214  20.054  0.00  0.00     0.108 A 
ATOM      6  C12 279 d   1      -2.532  -1.959  18.548  0.00  0.00     0.159 A 
ATOM      7  N20 279 d   1      -1.794  -0.958  21.064  0.00  0.00    -0.161 NA
ATOM      8  N21 279 d   1      -2.492  -0.670  18.805  0.00  0.00    -0.220 NA
ATOM      9  N22 279 d   1      -1.818  -2.302  20.800  0.00  0.00    -0.239 N 
ATOM     10  H4  279 d   1      -1.160  -3.161  22.701  0.00  0.00     0.116 H 
ATOM     11  H5  279 d   1      -2.125   0.864  20.207  0.00  0.00     0.149 H 
ENDROOT
BRANCH   6  12
ATOM     12  N23 279 d   1      -2.903  -2.466  17.327  0.00  0.00    -0.339 N 
ATOM     13  H20 279 d   1      -2.911  -3.488  17.196  0.00  0.00     0.167 HD
BRANCH  12  14
ATOM     14  C9  279 d   1      -3.270  -1.646  16.255  0.00  0.00     0.040 A 
ATOM     15  C3  279 d   1      -2.260  -1.168  15.419  0.00  0.00    -0.041 A 
ATOM     16  C5  279 d   1      -2.543  -0.352  14.335  0.00  0.00     0.036 A 
ATOM     17  H3  279 d   1      -1.231  -1.441  15.622  0.00  0.00     0.088 H 
ATOM     18  C1  279 d   1      -3.885  -0.019  14.080  0.00  0.00    -0.067 A 
ATOM     19  C2  279 d   1      -4.914  -0.495  14.919  0.00  0.00    -0.074 A 
ATOM     20  H1  279 d   1      -4.131   0.609  13.231  0.00  0.00     0.085 H 
ATOM     21  C7  279 d   1      -4.609  -1.315  16.019  0.00  0.00    -0.035 A 
ATOM     22  H2  279 d   1      -5.944  -0.227  14.715  0.00  0.00     0.084 H 
BRANCH  16  23
ATOM     23  C13 279 d   1      -1.357   0.070  13.529  0.00  0.00     0.275 C 
ATOM     24  N25 279 d   1      -1.508   1.053  12.564  0.00  0.00    -0.231 N 
ATOM     25  H22 279 d   1      -2.365   1.246  12.086  0.00  0.00     0.197 HD
ATOM     26  O26 279 d   1      -0.285  -0.487  13.761  0.00  0.00    -0.265 OA
BRANCH  24  27
ATOM     27  O28 279 d   1      -0.281   1.759  12.337  0.00  0.00    -0.282 OA
BRANCH  27  28
ATOM     28  C18 279 d   1       0.278   1.367  11.085  0.00  0.00     0.029 C 
ATOM     29  H15 279 d   1       1.219   1.912  10.917  0.00  0.00     0.069 H 
ATOM     30  H16 279 d   1      -0.431   1.601  10.277  0.00  0.00     0.069 H 
ATOM     31  H17 279 d   1       0.478   0.285  11.095  0.00  0.00     0.069 H 
ENDBRANCH  27  28
ENDBRANCH  24  27
ENDBRANCH  16  23
BRANCH  21  32
ATOM     32  C15 279 d   1      -5.680  -1.845  16.927  0.00  0.00    -0.049 C 
ATOM     33  H6  279 d   1      -6.661  -1.482  16.588  0.00  0.00     0.033 H 
ATOM     34  H7  279 d   1      -5.495  -1.497  17.954  0.00  0.00     0.033 H 
ATOM     35  H8  279 d   1      -5.668  -2.945  16.905  0.00  0.00     0.033 H 
ENDBRANCH  21  32
ENDBRANCH  12  14
ENDBRANCH   6  12
BRANCH   3  36
ATOM     36  C16 279 d   1      -2.350  -5.238  18.619  0.00  0.00    -0.048 C 
ATOM     37  H9  279 d   1      -2.168  -6.251  19.007  0.00  0.00     0.033 H 
ATOM     38  H10 279 d   1      -1.697  -5.054  17.753  0.00  0.00     0.033 H 
ATOM     39  H11 279 d   1      -3.402  -5.147  18.311  0.00  0.00     0.033 H 
ENDBRANCH   3  36
BRANCH   2  40
ATOM     40  C14 279 d   1      -1.353  -5.808  21.640  0.00  0.00     0.253 C 
ATOM     41  N24 279 d   1      -0.561  -5.708  22.764  0.00  0.00    -0.357 N 
ATOM     42  H21 279 d   1      -0.258  -4.804  23.065  0.00  0.00     0.162 HD
ATOM     43  O27 279 d   1      -1.767  -6.869  21.184  0.00  0.00    -0.268 OA
BRANCH  41  44
ATOM     44  C19 279 d   1      -0.157  -6.867  23.518  0.00  0.00    -0.008 C 
ATOM     45  H18 279 d   1       0.017  -6.582  24.566  0.00  0.00     0.063 H 
ATOM     46  H19 279 d   1      -0.948  -7.630  23.472  0.00  0.00     0.063 H 
BRANCH  44  47
ATOM     47  C17 279 d   1       1.125  -7.427  22.923  0.00  0.00    -0.061 C 
ATOM     48  H12 279 d   1       1.438  -8.313  23.495  0.00  0.00     0.029 H 
ATOM     49  H13 279 d   1       1.915  -6.663  22.969  0.00  0.00     0.029 H 
ATOM     50  H14 279 d   1       0.949  -7.711  21.875  0.00  0.00     0.029 H 
ENDBRANCH  44  47
ENDBRANCH  41  44
ENDBRANCH   2  40
TORSDOF 10
