REMARK  11 active torsions:
REMARK  status: ('A' for Active; 'I' for Inactive)
REMARK    1  A    between atoms: C19_19  and  C10_10 
REMARK    2  A    between atoms: C11_11  and  C20_20 
REMARK    3  A    between atoms: C25_25  and  C12_12 
REMARK    4  A    between atoms: C13_13  and  C21_21 
REMARK    5  A    between atoms: C14_14  and  C22_22 
REMARK    6  A    between atoms: C15_15  and  N29_29 
REMARK    7  A    between atoms: N29_29  and  C18_18 
REMARK       I    between atoms: N31_31  and  C19_19 
REMARK       I    between atoms: C20_20  and  N30_30 
REMARK    8  A    between atoms: C25_25  and  C23_23 
REMARK    9  A    between atoms: O34_34  and  C24_24 
REMARK   10  A    between atoms: N30_30  and  C25_25 
REMARK   11  A    between atoms: N31_31  and  O34_34 
ROOT
ATOM      1  C9  287 d   1      -1.947  -1.428  22.487  0.00  0.00     0.020 A 
ATOM      2  C11 287 d   1      -1.973  -2.709  21.989  0.00  0.00     0.058 A 
ATOM      3  C14 287 d   1      -2.251  -2.620  20.587  0.00  0.00    -0.012 A 
ATOM      4  C16 287 d   1      -2.376  -1.265  20.306  0.00  0.00     0.111 A 
ATOM      5  C17 287 d   1      -2.483   1.388  20.435  0.00  0.00     0.108 A 
ATOM      6  C18 287 d   1      -2.665  -0.510  19.104  0.00  0.00     0.159 A 
ATOM      7  N26 287 d   1      -2.235   0.786  21.560  0.00  0.00    -0.161 NA
ATOM      8  N27 287 d   1      -2.685   0.792  19.208  0.00  0.00    -0.220 NA
ATOM      9  N28 287 d   1      -2.195  -0.566  21.462  0.00  0.00    -0.239 N 
ATOM     10  H9  287 d   1      -1.760  -1.150  23.523  0.00  0.00     0.116 H 
ATOM     11  H10 287 d   1      -2.537   2.475  20.465  0.00  0.00     0.149 H 
ENDROOT
BRANCH   6  12
ATOM     12  N29 287 d   1      -2.901  -1.147  17.913  0.00  0.00    -0.339 N 
ATOM     13  H24 287 d   1      -2.877  -2.176  17.868  0.00  0.00     0.167 HD
BRANCH  12  14
ATOM     14  C15 287 d   1      -3.175  -0.403  16.756  0.00  0.00     0.040 A 
ATOM     15  C8  287 d   1      -2.095   0.063  16.018  0.00  0.00    -0.041 A 
ATOM     16  C10 287 d   1      -2.291   0.805  14.862  0.00  0.00     0.036 A 
ATOM     17  H8  287 d   1      -1.086  -0.156  16.349  0.00  0.00     0.088 H 
ATOM     18  C4  287 d   1      -3.590   1.093  14.439  0.00  0.00    -0.067 A 
ATOM     19  C7  287 d   1      -4.691   0.626  15.178  0.00  0.00    -0.074 A 
ATOM     20  H4  287 d   1      -3.750   1.677  13.540  0.00  0.00     0.085 H 
ATOM     21  C13 287 d   1      -4.494  -0.112  16.352  0.00  0.00    -0.035 A 
ATOM     22  H7  287 d   1      -5.698   0.838  14.837  0.00  0.00     0.084 H 
BRANCH  16  23
ATOM     23  C19 287 d   1      -1.074   1.236  14.127  0.00  0.00     0.275 C 
ATOM     24  N31 287 d   1      -1.251   2.263  13.235  0.00  0.00    -0.231 N 
ATOM     25  H26 287 d   1      -2.140   2.595  12.920  0.00  0.00     0.197 HD
ATOM     26  O32 287 d   1      -0.024   0.613  14.264  0.00  0.00    -0.265 OA
BRANCH  24  27
ATOM     27  O34 287 d   1      -0.002   2.789  12.820  0.00  0.00    -0.282 OA
BRANCH  27  28
ATOM     28  C24 287 d   1       0.264   2.318  11.495  0.00  0.00     0.029 C 
ATOM     29  H20 287 d   1       1.231   2.715  11.152  0.00  0.00     0.069 H 
ATOM     30  H21 287 d   1      -0.533   2.659  10.818  0.00  0.00     0.069 H 
ATOM     31  H22 287 d   1       0.299   1.219  11.497  0.00  0.00     0.069 H 
ENDBRANCH  27  28
ENDBRANCH  24  27
ENDBRANCH  16  23
BRANCH  21  32
ATOM     32  C21 287 d   1      -5.687  -0.594  17.142  0.00  0.00    -0.049 C 
ATOM     33  H11 287 d   1      -6.612  -0.257  16.652  0.00  0.00     0.033 H 
ATOM     34  H12 287 d   1      -5.642  -0.184  18.162  0.00  0.00     0.033 H 
ATOM     35  H13 287 d   1      -5.676  -1.693  17.188  0.00  0.00     0.033 H 
ENDBRANCH  21  32
ENDBRANCH  12  14
ENDBRANCH   6  12
BRANCH   3  36
ATOM     36  C22 287 d   1      -2.371  -3.783  19.672  0.00  0.00    -0.048 C 
ATOM     37  H14 287 d   1      -2.212  -4.713  20.238  0.00  0.00     0.033 H 
ATOM     38  H15 287 d   1      -1.615  -3.704  18.877  0.00  0.00     0.033 H 
ATOM     39  H16 287 d   1      -3.375  -3.794  19.223  0.00  0.00     0.033 H 
ENDBRANCH   3  36
BRANCH   2  40
ATOM     40  C20 287 d   1      -1.776  -3.932  22.750  0.00  0.00     0.254 C 
ATOM     41  N30 287 d   1      -1.341  -3.748  24.035  0.00  0.00    -0.349 N 
ATOM     42  H25 287 d   1      -1.152  -2.825  24.371  0.00  0.00     0.163 HD
ATOM     43  O33 287 d   1      -1.969  -5.028  22.250  0.00  0.00    -0.268 OA
BRANCH  41  44
ATOM     44  C25 287 d   1      -1.153  -4.891  24.912  0.00  0.00     0.034 C 
ATOM     45  H23 287 d   1      -1.299  -5.804  24.316  0.00  0.00     0.079 H 
BRANCH  44  46
ATOM     46  C12 287 d   1      -2.198  -4.902  26.002  0.00  0.00    -0.036 A 
ATOM     47  C5  287 d   1      -2.672  -6.131  26.485  0.00  0.00    -0.075 A 
ATOM     48  C2  287 d   1      -3.638  -6.171  27.491  0.00  0.00    -0.082 A 
ATOM     49  H5  287 d   1      -2.285  -7.056  26.074  0.00  0.00     0.084 H 
ATOM     50  C1  287 d   1      -4.149  -4.992  28.021  0.00  0.00    -0.083 A 
ATOM     51  H2  287 d   1      -3.992  -7.126  27.861  0.00  0.00     0.083 H 
ATOM     52  C3  287 d   1      -3.695  -3.765  27.551  0.00  0.00    -0.082 A 
ATOM     53  H1  287 d   1      -4.901  -5.029  28.801  0.00  0.00     0.083 H 
ATOM     54  C6  287 d   1      -2.726  -3.720  26.546  0.00  0.00    -0.075 A 
ATOM     55  H3  287 d   1      -4.092  -2.845  27.964  0.00  0.00     0.083 H 
ATOM     56  H6  287 d   1      -2.377  -2.761  26.181  0.00  0.00     0.084 H 
ENDBRANCH  44  46
BRANCH  44  57
ATOM     57  C23 287 d   1       0.282  -4.908  25.419  0.00  0.00    -0.053 C 
ATOM     58  H17 287 d   1       0.973  -4.899  24.563  0.00  0.00     0.030 H 
ATOM     59  H18 287 d   1       0.449  -5.817  26.016  0.00  0.00     0.030 H 
ATOM     60  H19 287 d   1       0.461  -4.021  26.044  0.00  0.00     0.030 H 
ENDBRANCH  44  57
ENDBRANCH  41  44
ENDBRANCH   2  40
TORSDOF 11
