REMARK  7 active torsions:
REMARK  status: ('A' for Active; 'I' for Inactive)
REMARK    1  A    between atoms: C15_13  and  N6_4 
REMARK    2  A    between atoms: C7_5  and  C4_20 
REMARK    3  A    between atoms: N1_24  and  C7_5 
REMARK    4  A    between atoms: N3_26  and  C13_11 
REMARK    5  A    between atoms: C19_15  and  C16_14 
REMARK    6  A    between atoms: C17_28  and  N3_26 
REMARK    7  A    between atoms: N7_31  and  N8_32 
ROOT
ATOM      1  C15 HYZ d   1      14.124  33.645  88.264  0.00  0.00     0.138 A 
ATOM      2  C16 HYZ d   1      15.391  33.719  88.896  0.00  0.00     0.074 A 
ATOM      3  N4  HYZ d   1      12.954  33.963  88.911  0.00  0.00    -0.224 NA
ATOM      4  C17 HYZ d   1      15.391  34.120  90.231  0.00  0.00     0.145 A 
ATOM      5  N5  HYZ d   1      14.212  34.444  90.892  0.00  0.00    -0.223 NA
ATOM      6  C18 HYZ d   1      13.041  34.352  90.201  0.00  0.00     0.091 A 
ATOM      7  H23 HYZ d   1      12.123  34.607  90.719  0.00  0.00     0.146 H 
ENDROOT
BRANCH   4   8
ATOM      8  N3  HYZ d   1      16.525  34.248  91.037  0.00  0.00    -0.340 N 
ATOM      9  H22 HYZ d   1      17.422  34.074  90.561  0.00  0.00     0.167 HD
BRANCH   8  10
ATOM     10  C13 HYZ d   1      16.625  34.574  92.382  0.00  0.00     0.034 A 
ATOM     11  C12 HYZ d   1      17.390  35.712  92.735  0.00  0.00    -0.055 A 
ATOM     12  C11 HYZ d   1      17.514  36.129  94.076  0.00  0.00    -0.052 A 
ATOM     13  H10 HYZ d   1      17.892  36.275  91.957  0.00  0.00     0.087 H 
ATOM     14  C10 HYZ d   1      16.840  35.358  95.070  0.00  0.00     0.065 A 
ATOM     15  H9  HYZ d   1      18.099  37.002  94.342  0.00  0.00     0.087 H 
ATOM     16  C9  HYZ d   1      16.075  34.221  94.756  0.00  0.00     0.014 A 
ATOM     17  N1  HYZ d   1      16.731  35.493  96.434  0.00  0.00    -0.265 N 
ATOM     18  C8  HYZ d   1      15.585  33.760  95.994  0.00  0.00     0.034 A 
ATOM     19  C14 HYZ d   1      15.965  33.817  93.403  0.00  0.00    -0.044 A 
ATOM     20  N2  HYZ d   1      15.971  34.519  97.019  0.00  0.00    -0.183 NA
ATOM     21  H8  HYZ d   1      14.957  32.877  96.102  0.00  0.00     0.118 H 
ATOM     22  H11 HYZ d   1      15.384  32.940  93.142  0.00  0.00     0.088 H 
BRANCH  17  23
ATOM     23  C7  HYZ d   1      17.323  36.558  97.260  0.00  0.00     0.041 C 
ATOM     24  H6  HYZ d   1      17.410  36.210  98.300  0.00  0.00     0.074 H 
ATOM     25  H7  HYZ d   1      18.321  36.811  96.873  0.00  0.00     0.074 H 
BRANCH  23  26
ATOM     26  C4  HYZ d   1      16.419  37.808  97.209  0.00  0.00    -0.035 A 
ATOM     27  C3  HYZ d   1      16.878  39.076  97.686  0.00  0.00    -0.075 A 
ATOM     28  C2  HYZ d   1      16.031  40.222  97.632  0.00  0.00    -0.080 A 
ATOM     29  H3  HYZ d   1      17.879  39.167  98.092  0.00  0.00     0.084 H 
ATOM     30  C1  HYZ d   1      14.718  40.116  97.099  0.00  0.00    -0.046 A 
ATOM     31  H2  HYZ d   1      16.390  41.177  97.999  0.00  0.00     0.083 H 
ATOM     32  C6  HYZ d   1      14.256  38.869  96.625  0.00  0.00     0.117 A 
ATOM     33  H1  HYZ d   1      14.075  40.988  97.057  0.00  0.00     0.088 H 
ATOM     34  C5  HYZ d   1      15.083  37.730  96.675  0.00  0.00    -0.038 A 
ATOM     35  F1  HYZ d   1      13.011  38.756  96.118  0.00  0.00    -0.206 F 
ATOM     36  H21 HYZ d   1      14.709  36.782  96.307  0.00  0.00     0.089 H 
ENDBRANCH  23  26
ENDBRANCH  17  23
ENDBRANCH   8  10
ENDBRANCH   4   8
BRANCH   2  37
ATOM     37  C19 HYZ d   1      16.644  33.395  88.186  0.00  0.00     0.033 C 
ATOM     38  N7  HYZ d   1      16.900  32.290  87.559  0.00  0.00    -0.210 NA
ATOM     39  H12 HYZ d   1      17.425  34.154  88.189  0.00  0.00     0.118 H 
BRANCH  38  40
ATOM     40  N8  HYZ d   1      18.146  32.344  86.984  0.00  0.00    -0.209 NA
ATOM     41  C21 HYZ d   1      18.127  31.934  85.537  0.00  0.00    -0.001 C 
ATOM     42  C20 HYZ d   1      19.509  31.997  84.858  0.00  0.00    -0.052 C 
ATOM     43  H15 HYZ d   1      17.756  30.901  85.474  0.00  0.00     0.058 H 
ATOM     44  H16 HYZ d   1      17.443  32.603  84.995  0.00  0.00     0.058 H 
ATOM     45  C24 HYZ d   1      20.554  31.190  85.635  0.00  0.00    -0.063 C 
ATOM     46  H13 HYZ d   1      19.834  33.047  84.806  0.00  0.00     0.034 H 
ATOM     47  H14 HYZ d   1      19.426  31.588  83.840  0.00  0.00     0.034 H 
ATOM     48  C23 HYZ d   1      20.573  31.596  87.112  0.00  0.00    -0.052 C 
ATOM     49  H19 HYZ d   1      21.547  31.373  85.199  0.00  0.00     0.033 H 
ATOM     50  H20 HYZ d   1      20.311  30.120  85.559  0.00  0.00     0.033 H 
ATOM     51  C22 HYZ d   1      19.167  31.524  87.740  0.00  0.00    -0.001 C 
ATOM     52  H24 HYZ d   1      21.244  30.918  87.660  0.00  0.00     0.034 H 
ATOM     53  H25 HYZ d   1      20.948  32.627  87.194  0.00  0.00     0.034 H 
ATOM     54  H17 HYZ d   1      18.839  30.474  87.748  0.00  0.00     0.058 H 
ATOM     55  H18 HYZ d   1      19.224  31.898  88.773  0.00  0.00     0.058 H 
ENDBRANCH  38  40
ENDBRANCH   2  37
BRANCH   1  56
ATOM     56  N6  HYZ d   1      13.967  33.258  86.949  0.00  0.00    -0.383 N 
ATOM     57  H4  HYZ d   1      13.026  33.219  86.532  0.00  0.00     0.157 HD
ATOM     58  H5  HYZ d   1      14.791  33.008  86.384  0.00  0.00     0.157 HD
ENDBRANCH   1  56
TORSDOF 7
