REMARK  8 active torsions:
REMARK  status: ('A' for Active; 'I' for Inactive)
REMARK    1  A    between atoms: N2_2  and  C6_6 
REMARK    2  A    between atoms: C6_6  and  C12_12 
REMARK    3  A    between atoms: N8_8  and  C14_14 
REMARK    4  A    between atoms: N9_9  and  C15_15 
REMARK    5  A    between atoms: C15_15  and  C20_20 
REMARK    6  A    between atoms: C18_18  and  C23_23 
REMARK    7  A    between atoms: C21_21  and  N27_27 
REMARK    8  A    between atoms: C29_29  and  C32_32 
ROOT
ATOM      1  C1  NON d   1      69.023  69.587  69.891  0.00  0.00     0.167 A 
ATOM      2  N2  NON d   1      68.593  70.880  69.478  0.00  0.00    -0.161 N 
ATOM      3  C3  NON d   1      68.646  69.470  71.241  0.00  0.00     0.186 A 
ATOM      4  C4  NON d   1      69.689  68.479  69.303  0.00  0.00     0.283 A 
ATOM      5  C5  NON d   1      67.932  71.372  70.601  0.00  0.00     0.708 A 
ATOM      6  N7  NON d   1      68.008  70.535  71.570  0.00  0.00    -0.044 NA
ATOM      7  N8  NON d   1      68.962  68.337  71.977  0.00  0.00    -0.285 N 
ATOM      8  N9  NON d   1      69.952  67.348  70.064  0.00  0.00    -0.257 N 
ATOM      9  O10 NON d   1      70.010  68.527  68.135  0.00  0.00    -0.265 OA
ATOM     10  N11 NON d   1      67.248  72.529  70.793  0.00  0.00    -0.214 N 
ATOM     11  C13 NON d   1      69.596  67.299  71.398  0.00  0.00     0.333 A 
ATOM     12  C16 NON d   1      66.391  73.056  69.764  0.00  0.00     0.038 C 
ATOM     13  C17 NON d   1      67.517  73.398  71.896  0.00  0.00     0.012 C 
ATOM     14  O19 NON d   1      69.852  66.315  72.071  0.00  0.00    -0.246 OA
ATOM     15  C21 NON d   1      65.014  72.745  70.366  0.00  0.00     0.116 C 
ATOM     16  C22 NON d   1      66.173  73.345  72.701  0.00  0.00    -0.048 C 
ATOM     17  C26 NON d   1      64.879  73.474  71.764  0.00  0.00    -0.036 C 
ATOM     18  H8  NON d   1      66.542  72.539  68.805  0.00  0.00     0.068 H 
ATOM     19  H9  NON d   1      66.539  74.137  69.625  0.00  0.00     0.068 H 
ATOM     20  H10 NON d   1      67.736  74.420  71.553  0.00  0.00     0.065 H 
ATOM     21  H11 NON d   1      68.358  73.026  72.500  0.00  0.00     0.065 H 
ATOM     22  H12 NON d   1      64.922  71.660  70.520  0.00  0.00     0.086 H 
ATOM     23  H13 NON d   1      66.165  74.172  73.426  0.00  0.00     0.035 H 
ATOM     24  H14 NON d   1      66.123  72.386  73.238  0.00  0.00     0.035 H 
ATOM     25  H18 NON d   1      64.022  73.039  72.298  0.00  0.00     0.036 H 
ATOM     26  H19 NON d   1      64.692  74.542  71.579  0.00  0.00     0.036 H 
ENDROOT
BRANCH   8  27
ATOM     27  C15 NON d   1      70.631  66.176  69.438  0.00  0.00     0.064 C 
ATOM     28  H6  NON d   1      71.577  65.969  69.960  0.00  0.00     0.077 H 
ATOM     29  H7  NON d   1      70.836  66.385  68.378  0.00  0.00     0.077 H 
BRANCH  27  30
ATOM     30  C20 NON d   1      69.700  64.976  69.558  0.00  0.00     0.145 A 
ATOM     31  N24 NON d   1      68.402  65.156  69.303  0.00  0.00    -0.231 NA
ATOM     32  C28 NON d   1      67.526  64.135  69.411  0.00  0.00     0.071 A 
ATOM     33  C30 NON d   1      68.023  62.808  69.819  0.00  0.00     0.017 A 
ATOM     34  C31 NON d   1      66.144  64.310  69.142  0.00  0.00    -0.054 A 
ATOM     35  C29 NON d   1      69.433  62.689  70.074  0.00  0.00     0.045 A 
ATOM     36  C33 NON d   1      67.101  61.711  69.940  0.00  0.00    -0.069 A 
ATOM     37  N25 NON d   1      70.202  63.785  69.932  0.00  0.00    -0.236 NA
ATOM     38  C35 NON d   1      65.752  61.926  69.667  0.00  0.00    -0.082 A 
ATOM     39  H27 NON d   1      67.451  60.730  70.240  0.00  0.00     0.085 H 
ATOM     40  C34 NON d   1      65.275  63.223  69.268  0.00  0.00    -0.081 A 
ATOM     41  H29 NON d   1      65.051  61.104  69.757  0.00  0.00     0.083 H 
ATOM     42  H28 NON d   1      64.220  63.360  69.061  0.00  0.00     0.083 H 
ATOM     43  H23 NON d   1      65.765  65.280  68.841  0.00  0.00     0.087 H 
BRANCH  35  44
ATOM     44  C32 NON d   1      70.049  61.374  70.493  0.00  0.00    -0.035 C 
ATOM     45  H24 NON d   1      69.265  60.605  70.553  0.00  0.00     0.035 H 
ATOM     46  H25 NON d   1      70.526  61.490  71.478  0.00  0.00     0.035 H 
ATOM     47  H26 NON d   1      70.804  61.071  69.753  0.00  0.00     0.035 H 
ENDBRANCH  35  44
ENDBRANCH  27  30
ENDBRANCH   8  27
BRANCH   7  48
ATOM     48  C14 NON d   1      68.597  68.296  73.407  0.00  0.00    -0.008 C 
ATOM     49  H3  NON d   1      68.091  69.233  73.683  0.00  0.00     0.057 H 
ATOM     50  H4  NON d   1      69.507  68.178  74.014  0.00  0.00     0.057 H 
ATOM     51  H5  NON d   1      67.922  67.447  73.589  0.00  0.00     0.057 H 
ENDBRANCH   7  48
BRANCH   2  52
ATOM     52  C6  NON d   1      68.795  71.590  68.142  0.00  0.00     0.072 C 
ATOM     53  H1  NON d   1      69.865  71.511  67.899  0.00  0.00     0.085 H 
ATOM     54  H2  NON d   1      68.532  72.646  68.300  0.00  0.00     0.085 H 
BRANCH  52  55
ATOM     55  C12 NON d   1      68.058  71.143  66.959  0.00  0.00    -0.086 C 
ATOM     56  C18 NON d   1      67.509  70.875  65.962  0.00  0.00    -0.109 C 
BRANCH  56  57
ATOM     57  C23 NON d   1      66.841  70.588  64.684  0.00  0.00    -0.021 C 
ATOM     58  H15 NON d   1      66.278  69.647  64.768  0.00  0.00     0.044 H 
ATOM     59  H16 NON d   1      67.595  70.494  63.889  0.00  0.00     0.044 H 
ATOM     60  H17 NON d   1      66.150  71.408  64.439  0.00  0.00     0.044 H 
ENDBRANCH  56  57
ENDBRANCH  52  55
ENDBRANCH   2  52
BRANCH  15  61
ATOM     61  N27 NON d   1      63.967  73.182  69.436  0.00  0.00    -0.073 N 
ATOM     62  H20 NON d   1      64.078  72.703  68.556  0.00  0.00     0.274 HD
ATOM     63  H21 NON d   1      64.042  74.176  69.288  0.00  0.00     0.274 HD
ATOM     64  H22 NON d   1      63.062  72.967  69.824  0.00  0.00     0.274 HD
ENDBRANCH  15  61
TORSDOF 8
