REMARK  8 active torsions:
REMARK  status: ('A' for Active; 'I' for Inactive)
REMARK    1  A    between atoms: O7_1  and  C7_2 
REMARK    2  A    between atoms: C7_2  and  C6_3 
REMARK    3  A    between atoms: C6_3  and  O6_4 
REMARK    4  A    between atoms: C6_3  and  C5_5 
REMARK    5  A    between atoms: C1_7  and  O1_8 
REMARK    6  A    between atoms: C2_9  and  O2_10 
REMARK    7  A    between atoms: C3_11  and  O3_12 
REMARK    8  A    between atoms: C4_13  and  O4_14 
ROOT
ATOM      1  C5  289 d   1      29.409 -12.152  10.029  0.00  0.00     0.095 C 
ATOM      2  O5  289 d   1      29.284 -12.921   8.749  0.00  0.00    -0.348 OA
ATOM      3  C1  289 d   1      27.862 -13.260   8.401  0.00  0.00     0.156 C 
ATOM      4  C2  289 d   1      27.223 -14.138   9.542  0.00  0.00     0.110 C 
ATOM      5  C3  289 d   1      27.305 -13.351  10.887  0.00  0.00     0.092 C 
ATOM      6  C4  289 d   1      28.798 -13.018  11.206  0.00  0.00     0.090 C 
ATOM      7  H6  289 d   1      28.847 -11.210   9.949  0.00  0.00     0.091 H 
ATOM      8  H7  289 d   1      27.836 -13.822   7.456  0.00  0.00     0.133 H 
ATOM      9  H9  289 d   1      26.171 -14.351   9.301  0.00  0.00     0.094 H 
ATOM     10  H11 289 d   1      26.741 -12.411  10.795  0.00  0.00     0.091 H 
ATOM     11  H13 289 d   1      29.367 -13.954  11.301  0.00  0.00     0.091 H 
ENDROOT
BRANCH   1  12
ATOM     12  C6  289 d   1      30.927 -11.822  10.275  0.00  0.00     0.083 C 
ATOM     13  H4  289 d   1      30.998 -11.082  11.086  0.00  0.00     0.090 H 
BRANCH  12  14
ATOM     14  C7  289 d   1      31.734 -13.071  10.666  0.00  0.00     0.043 C 
ATOM     15  H2  289 d   1      31.117 -13.718  11.307  0.00  0.00     0.078 H 
ATOM     16  H3  289 d   1      32.020 -13.620   9.757  0.00  0.00     0.078 H 
BRANCH  14  17
ATOM     17  O7  289 d   1      32.921 -12.682  11.382  0.00  0.00    -0.398 OA
ATOM     18  H1  289 d   1      32.675 -12.208  12.168  0.00  0.00     0.209 HD
ENDBRANCH  14  17
ENDBRANCH  12  14
BRANCH  12  19
ATOM     19  O6  289 d   1      31.504 -11.282   9.089  0.00  0.00    -0.391 OA
ATOM     20  H5  289 d   1      31.465 -11.930   8.396  0.00  0.00     0.210 HD
ENDBRANCH  12  19
ENDBRANCH   1  12
BRANCH   6  21
ATOM     21  O4  289 d   1      28.879 -12.283  12.449  0.00  0.00    -0.390 OA
ATOM     22  H14 289 d   1      29.788 -12.083  12.639  0.00  0.00     0.210 HD
ENDBRANCH   6  21
BRANCH   3  23
ATOM     23  O1  289 d   1      27.128 -12.015   8.247  0.00  0.00    -0.369 OA
ATOM     24  H8  289 d   1      27.522 -11.500   7.553  0.00  0.00     0.212 HD
ENDBRANCH   3  23
BRANCH   5  25
ATOM     25  O3  289 d   1      26.729 -14.140  11.920  0.00  0.00    -0.390 OA
ATOM     26  H12 289 d   1      25.821 -14.322  11.709  0.00  0.00     0.210 HD
ENDBRANCH   5  25
BRANCH   4  27
ATOM     27  O2  289 d   1      27.954 -15.381   9.663  0.00  0.00    -0.388 OA
ATOM     28  H10 289 d   1      27.567 -15.909  10.352  0.00  0.00     0.210 HD
ENDBRANCH   4  27
TORSDOF 8
