REMARK  8 active torsions:
REMARK  status: ('A' for Active; 'I' for Inactive)
REMARK    1  A    between atoms: C1_1  and  O1_8 
REMARK    2  A    between atoms: C2_2  and  O2_9 
REMARK    3  A    between atoms: C3_3  and  O3_10 
REMARK    4  A    between atoms: C4_4  and  O4_11 
REMARK    5  A    between atoms: C5_5  and  C6_6 
REMARK    6  A    between atoms: C6_6  and  C7_7 
REMARK    7  A    between atoms: C6_6  and  O6_13 
REMARK    8  A    between atoms: C7_7  and  O7_14 
ROOT
ATOM      1  C1  GMH d   1      27.757 -17.149  10.515  0.00  0.00     0.156 C 
ATOM      2  C2  GMH d   1      26.376 -17.387   9.801  0.00  0.00     0.110 C 
ATOM      3  C3  GMH d   1      26.051 -16.185   8.838  0.00  0.00     0.092 C 
ATOM      4  C4  GMH d   1      25.999 -14.870   9.664  0.00  0.00     0.090 C 
ATOM      5  C5  GMH d   1      27.411 -14.668  10.312  0.00  0.00     0.095 C 
ATOM      6  O5  GMH d   1      27.721 -15.830  11.171  0.00  0.00    -0.348 OA
ATOM      7  H1  GMH d   1      27.851 -17.911  11.303  0.00  0.00     0.133 H 
ATOM      8  H2  GMH d   1      26.421 -18.317   9.215  0.00  0.00     0.094 H 
ATOM      9  H3  GMH d   1      26.835 -16.108   8.070  0.00  0.00     0.091 H 
ATOM     10  H4  GMH d   1      25.230 -14.950  10.446  0.00  0.00     0.091 H 
ATOM     11  H5  GMH d   1      28.169 -14.579   9.520  0.00  0.00     0.091 H 
ENDROOT
BRANCH   5  12
ATOM     12  C6  GMH d   1      27.418 -13.415  11.165  0.00  0.00     0.083 C 
ATOM     13  H6  GMH d   1      27.148 -12.543  10.550  0.00  0.00     0.090 H 
BRANCH  12  14
ATOM     14  C7  GMH d   1      28.793 -13.178  11.797  0.00  0.00     0.043 C 
ATOM     15  H7  GMH d   1      29.544 -13.056  11.003  0.00  0.00     0.078 H 
ATOM     16  H8  GMH d   1      29.060 -14.040  12.425  0.00  0.00     0.078 H 
BRANCH  14  17
ATOM     17  O7  GMH d   1      28.755 -12.002  12.598  0.00  0.00    -0.398 OA
ATOM     18  H14 GMH d   1      29.609 -11.858  12.988  0.00  0.00     0.209 HD
ENDBRANCH  14  17
ENDBRANCH  12  14
BRANCH  12  19
ATOM     19  O6  GMH d   1      26.448 -13.616  12.178  0.00  0.00    -0.391 OA
ATOM     20  H13 GMH d   1      25.599 -13.762  11.777  0.00  0.00     0.210 HD
ENDBRANCH  12  19
ENDBRANCH   5  12
BRANCH   4  21
ATOM     21  O4  GMH d   1      25.711 -13.760   8.825  0.00  0.00    -0.390 OA
ATOM     22  H12 GMH d   1      25.715 -12.964   9.343  0.00  0.00     0.210 HD
ENDBRANCH   4  21
BRANCH   3  23
ATOM     23  O3  GMH d   1      24.753 -16.397   8.190  0.00  0.00    -0.390 OA
ATOM     24  H11 GMH d   1      24.564 -15.665   7.615  0.00  0.00     0.210 HD
ENDBRANCH   3  23
BRANCH   1  25
ATOM     25  O1  GMH d   1      28.732 -17.278   9.790  0.00  0.00    -0.369 OA
ATOM     26  H9  GMH d   1      29.524 -17.183  10.306  0.00  0.00     0.212 HD
ENDBRANCH   1  25
BRANCH   2  27
ATOM     27  O2  GMH d   1      25.362 -17.505  10.808  0.00  0.00    -0.388 OA
ATOM     28  H10 GMH d   1      24.521 -17.658  10.393  0.00  0.00     0.210 HD
ENDBRANCH   2  27
TORSDOF 8
