REMARK  3 active torsions:
REMARK  status: ('A' for Active; 'I' for Inactive)
REMARK       I    between atoms: N1_1  and  C10_8 
REMARK    1  A    between atoms: C3_22  and  N3_2 
REMARK    2  A    between atoms: C2_21  and  C4_3 
REMARK       I    between atoms: C4_3  and  N2_25 
REMARK    3  A    between atoms: C10_8  and  C17_11 
ROOT
ATOM      1  N1  34Q d   1      63.361  52.932  84.306  0.00  0.00    -0.344 N 
ATOM      2  C10 34Q d   1      63.537  52.754  82.975  0.00  0.00     0.274 C 
ATOM      3  O2  34Q d   1      64.687  52.916  82.489  0.00  0.00    -0.266 OA
ATOM      4  C1  34Q d   1      64.409  53.438  85.166  0.00  0.00     0.011 C 
ATOM      5  C2  34Q d   1      64.005  52.810  86.499  0.00  0.00     0.068 C 
ATOM      6  C3  34Q d   1      62.506  53.124  86.520  0.00  0.00     0.128 C 
ATOM      7  C9  34Q d   1      62.157  52.687  85.093  0.00  0.00     0.025 C 
ATOM      8  H17 34Q d   1      64.398  54.537  85.215  0.00  0.00     0.065 H 
ATOM      9  H18 34Q d   1      65.402  53.095  84.840  0.00  0.00     0.065 H 
ATOM     10  H19 34Q d   1      64.144  51.720  86.446  0.00  0.00     0.060 H 
ATOM     11  H20 34Q d   1      61.972  52.520  87.268  0.00  0.00     0.087 H 
ATOM     12  H21 34Q d   1      61.894  51.619  85.071  0.00  0.00     0.067 H 
ATOM     13  H22 34Q d   1      61.316  53.280  84.704  0.00  0.00     0.067 H 
ENDROOT
BRANCH   2  14
ATOM     14  C17 34Q d   1      62.285  52.420  82.003  0.00  0.00     0.142 A 
ATOM     15  C18 34Q d   1      62.187  51.199  81.108  0.00  0.00     0.036 A 
ATOM     16  N5  34Q d   1      61.139  51.043  80.351  0.00  0.00    -0.256 NA
ATOM     17  H13 34Q d   1      62.983  50.463  81.099  0.00  0.00     0.118 H 
ATOM     18  C13 34Q d   1      60.105  52.026  80.399  0.00  0.00     0.085 A 
ATOM     19  C14 34Q d   1      60.190  53.107  81.208  0.00  0.00     0.086 A 
ATOM     20  C12 34Q d   1      58.895  51.883  79.558  0.00  0.00    -0.053 A 
ATOM     21  C15 34Q d   1      59.121  54.134  81.273  0.00  0.00    -0.053 A 
ATOM     22  N4  34Q d   1      61.314  53.299  82.018  0.00  0.00    -0.240 NA
ATOM     23  C16 34Q d   1      57.977  54.012  80.489  0.00  0.00    -0.081 A 
ATOM     24  H12 34Q d   1      59.231  54.985  81.935  0.00  0.00     0.087 H 
ATOM     25  C11 34Q d   1      57.857  52.833  79.613  0.00  0.00    -0.081 A 
ATOM     26  H14 34Q d   1      57.196  54.763  80.522  0.00  0.00     0.083 H 
ATOM     27  H16 34Q d   1      56.967  52.697  79.009  0.00  0.00     0.083 H 
ATOM     28  H15 34Q d   1      58.807  51.034  78.890  0.00  0.00     0.087 H 
ENDBRANCH   2  14
BRANCH   5  29
ATOM     29  C4  34Q d   1      64.808  53.290  87.710  0.00  0.00     0.227 C 
ATOM     30  O1  34Q d   1      65.545  54.269  87.554  0.00  0.00    -0.273 OA
ATOM     31  N2  34Q d   1      64.693  52.659  88.879  0.00  0.00    -0.352 N 
ATOM     32  C5  34Q d   1      65.298  53.167  90.090  0.00  0.00    -0.002 C 
ATOM     33  C7  34Q d   1      63.968  51.428  89.137  0.00  0.00    -0.002 C 
ATOM     34  C6  34Q d   1      64.982  52.184  91.245  0.00  0.00    -0.049 C 
ATOM     35  H4  34Q d   1      66.387  53.245  89.956  0.00  0.00     0.064 H 
ATOM     36  H5  34Q d   1      64.885  54.159  90.323  0.00  0.00     0.064 H 
ATOM     37  C8  34Q d   1      63.952  51.212  90.652  0.00  0.00    -0.049 C 
ATOM     38  H6  34Q d   1      64.559  52.720  92.107  0.00  0.00     0.035 H 
ATOM     39  H7  34Q d   1      65.889  51.646  91.557  0.00  0.00     0.035 H 
ATOM     40  H10 34Q d   1      62.951  51.427  91.055  0.00  0.00     0.035 H 
ATOM     41  H11 34Q d   1      64.228  50.174  90.890  0.00  0.00     0.035 H 
ATOM     42  H8  34Q d   1      62.938  51.512  88.759  0.00  0.00     0.064 H 
ATOM     43  H9  34Q d   1      64.472  50.585  88.643  0.00  0.00     0.064 H 
ENDBRANCH   5  29
BRANCH   6  44
ATOM     44  N3  34Q d   1      62.243  54.550  86.782  0.00  0.00    -0.073 N 
ATOM     45  H1  34Q d   1      61.248  54.713  86.787  0.00  0.00     0.274 HD
ATOM     46  H2  34Q d   1      62.671  55.109  86.060  0.00  0.00     0.274 HD
ATOM     47  H3  34Q d   1      62.630  54.804  87.677  0.00  0.00     0.274 HD
ENDBRANCH   6  44
TORSDOF 3
