REMARK  15 active torsions:
REMARK  status: ('A' for Active; 'I' for Inactive)
REMARK    1  A    between atoms: C1_1  and  C2_2 
REMARK    2  A    between atoms: C2_2  and  C3_3 
REMARK    3  A    between atoms: C2_2  and  C4_4 
REMARK    4  A    between atoms: C4_4  and  C5_5 
REMARK    5  A    between atoms: C4_4  and  N1_8 
REMARK    6  A    between atoms: N1_8  and  S1_9 
REMARK    7  A    between atoms: S1_9  and  C6_12 
REMARK    8  A    between atoms: C9_15  and  C12_18 
REMARK    9  A    between atoms: C15_21  and  C18_24 
REMARK   10  A    between atoms: C18_24  and  O5_25 
REMARK   11  A    between atoms: O5_25  and  C19_26 
REMARK   12  A    between atoms: C22_29  and  C25_32 
REMARK   13  A    between atoms: C25_32  and  C26_34 
REMARK   14  A    between atoms: C26_34  and  C27_35 
REMARK   15  A    between atoms: C26_34  and  C28_36 
ROOT
ATOM      1  C12 886 d   1      65.917  -1.814  15.301  0.00  0.00    -0.026 A 
ATOM      2  C13 886 d   1      64.810  -1.130  15.851  0.00  0.00    -0.072 A 
ATOM      3  C14 886 d   1      64.643   0.256  15.684  0.00  0.00    -0.074 A 
ATOM      4  C15 886 d   1      65.593   1.009  14.969  0.00  0.00    -0.034 A 
ATOM      5  C16 886 d   1      66.708   0.341  14.430  0.00  0.00    -0.074 A 
ATOM      6  C17 886 d   1      66.868  -1.044  14.597  0.00  0.00    -0.072 A 
ATOM      7  H14 886 d   1      64.071  -1.687  16.416  0.00  0.00     0.084 H 
ATOM      8  H15 886 d   1      63.776   0.748  16.109  0.00  0.00     0.084 H 
ATOM      9  H16 886 d   1      67.453   0.903  13.879  0.00  0.00     0.084 H 
ATOM     10  H17 886 d   1      67.740  -1.532  14.177  0.00  0.00     0.084 H 
ENDROOT
BRANCH   1  11
ATOM     11  C9  886 d   1      66.093  -3.272  15.495  0.00  0.00    -0.026 A 
ATOM     12  C8  886 d   1      67.380  -3.859  15.461  0.00  0.00    -0.071 A 
ATOM     13  C7  886 d   1      67.571  -5.231  15.663  0.00  0.00    -0.059 A 
ATOM     14  H11 886 d   1      68.242  -3.229  15.273  0.00  0.00     0.084 H 
ATOM     15  C6  886 d   1      66.461  -6.042  15.905  0.00  0.00     0.079 A 
ATOM     16  H10 886 d   1      68.567  -5.658  15.632  0.00  0.00     0.085 H 
ATOM     17  C11 886 d   1      65.170  -5.494  15.948  0.00  0.00    -0.059 A 
ATOM     18  C10 886 d   1      64.993  -4.120  15.745  0.00  0.00    -0.071 A 
ATOM     19  H13 886 d   1      64.314  -6.131  16.137  0.00  0.00     0.085 H 
ATOM     20  H12 886 d   1      63.994  -3.700  15.780  0.00  0.00     0.084 H 
BRANCH  15  21
ATOM     21  S1  886 d   1      66.702  -7.784  16.160  0.00  0.00     0.259 S 
ATOM     22  O3  886 d   1      67.946  -7.980  16.888  0.00  0.00    -0.201 OA
ATOM     23  O4  886 d   1      65.460  -8.300  16.698  0.00  0.00    -0.201 OA
BRANCH  21  24
ATOM     24  N1  886 d   1      66.948  -8.406  14.622  0.00  0.00    -0.300 N 
ATOM     25  H9  886 d   1      67.857  -8.400  14.206  0.00  0.00     0.173 HD
BRANCH  24  26
ATOM     26  C4  886 d   1      65.755  -8.978  13.879  0.00  0.00     0.106 C 
ATOM     27  H8  886 d   1      64.864  -9.042  14.521  0.00  0.00     0.091 H 
BRANCH  26  28
ATOM     28  C2  886 d   1      66.168 -10.393  13.414  0.00  0.00    -0.031 C 
ATOM     29  H4  886 d   1      67.102 -10.301  12.840  0.00  0.00     0.042 H 
BRANCH  28  30
ATOM     30  C1  886 d   1      66.420 -11.298  14.631  0.00  0.00    -0.071 C 
ATOM     31  H1  886 d   1      66.713 -12.301  14.288  0.00  0.00     0.028 H 
ATOM     32  H2  886 d   1      65.501 -11.370  15.231  0.00  0.00     0.028 H 
ATOM     33  H3  886 d   1      67.227 -10.871  15.245  0.00  0.00     0.028 H 
ENDBRANCH  28  30
BRANCH  28  34
ATOM     34  C3  886 d   1      65.120 -11.066  12.520  0.00  0.00    -0.071 C 
ATOM     35  H5  886 d   1      64.926 -10.432  11.642  0.00  0.00     0.028 H 
ATOM     36  H6  886 d   1      64.187 -11.203  13.087  0.00  0.00     0.028 H 
ATOM     37  H7  886 d   1      65.495 -12.046  12.189  0.00  0.00     0.028 H 
ENDBRANCH  28  34
ENDBRANCH  26  28
BRANCH  26  38
ATOM     38  C5  886 d   1      65.512  -7.958  12.710  0.00  0.00     0.197 C 
ATOM     39  O1  886 d   1      66.544  -7.716  12.022  0.00  0.00    -0.646 OA
ATOM     40  O2  886 d   1      64.359  -7.487  12.581  0.00  0.00    -0.646 OA
ENDBRANCH  26  38
ENDBRANCH  24  26
ENDBRANCH  21  24
ENDBRANCH  15  21
ENDBRANCH   1  11
BRANCH   4  41
ATOM     41  C18 886 d   1      65.443   2.500  14.754  0.00  0.00     0.050 C 
ATOM     42  H18 886 d   1      65.101   2.678  13.724  0.00  0.00     0.082 H 
ATOM     43  H19 886 d   1      66.421   2.981  14.904  0.00  0.00     0.082 H 
BRANCH  41  44
ATOM     44  O5  886 d   1      64.502   3.075  15.659  0.00  0.00    -0.347 OA
BRANCH  44  45
ATOM     45  C19 886 d   1      63.602   4.061  15.318  0.00  0.00     0.069 A 
ATOM     46  C20 886 d   1      62.534   4.003  14.410  0.00  0.00    -0.050 A 
ATOM     47  C21 886 d   1      61.689   5.122  14.223  0.00  0.00    -0.067 A 
ATOM     48  H20 886 d   1      62.355   3.094  13.848  0.00  0.00     0.087 H 
ATOM     49  C22 886 d   1      61.882   6.324  14.933  0.00  0.00     0.010 A 
ATOM     50  H21 886 d   1      60.871   5.053  13.515  0.00  0.00     0.085 H 
ATOM     51  C23 886 d   1      62.942   6.363  15.854  0.00  0.00    -0.067 A 
ATOM     52  C24 886 d   1      63.779   5.250  16.038  0.00  0.00    -0.050 A 
ATOM     53  H22 886 d   1      63.116   7.264  16.430  0.00  0.00     0.085 H 
ATOM     54  H23 886 d   1      64.586   5.313  16.759  0.00  0.00     0.087 H 
BRANCH  49  55
ATOM     55  C25 886 d   1      60.982   7.529  14.771  0.00  0.00     0.163 C 
ATOM     56  O6  886 d   1      59.790   7.331  15.014  0.00  0.00    -0.292 OA
BRANCH  55  57
ATOM     57  C26 886 d   1      61.458   8.991  14.718  0.00  0.00     0.002 C 
ATOM     58  H24 886 d   1      60.619   9.563  14.295  0.00  0.00     0.051 H 
BRANCH  57  59
ATOM     59  C27 886 d   1      62.629   9.210  13.768  0.00  0.00    -0.066 C 
ATOM     60  H25 886 d   1      62.917  10.272  13.779  0.00  0.00     0.028 H 
ATOM     61  H26 886 d   1      62.333   8.921  12.749  0.00  0.00     0.028 H 
ATOM     62  H27 886 d   1      63.483   8.595  14.090  0.00  0.00     0.028 H 
ENDBRANCH  57  59
BRANCH  57  63
ATOM     63  C28 886 d   1      61.709   9.583  16.109  0.00  0.00    -0.066 C 
ATOM     64  H28 886 d   1      60.835   9.396  16.750  0.00  0.00     0.028 H 
ATOM     65  H29 886 d   1      61.875  10.667  16.022  0.00  0.00     0.028 H 
ATOM     66  H30 886 d   1      62.597   9.111  16.554  0.00  0.00     0.028 H 
ENDBRANCH  57  63
ENDBRANCH  55  57
ENDBRANCH  49  55
ENDBRANCH  44  45
ENDBRANCH  41  44
ENDBRANCH   4  41
TORSDOF 15
