REMARK  5 active torsions:
REMARK  status: ('A' for Active; 'I' for Inactive)
REMARK    1  A    between atoms: C2_6  and  C6_7 
REMARK    2  A    between atoms: C6_7  and  O4_8 
REMARK    3  A    between atoms: C6_7  and  C7_9 
REMARK    4  A    between atoms: C7_9  and  C8_10 
REMARK    5  A    between atoms: C7_9  and  O3_13 
ROOT
ATOM      1  C1  295 d   1     -25.054   9.450  30.558  0.00  0.00    -0.071 A 
ATOM      2  C   295 d   1     -25.447   8.152  30.889  0.00  0.00    -0.045 A 
ATOM      3  C5  295 d   1     -25.537   7.759  32.224  0.00  0.00     0.116 A 
ATOM      4  C4  295 d   1     -25.229   8.679  33.227  0.00  0.00    -0.045 A 
ATOM      5  C3  295 d   1     -24.836   9.974  32.886  0.00  0.00    -0.071 A 
ATOM      6  C2  295 d   1     -24.737  10.385  31.550  0.00  0.00    -0.026 A 
ATOM      7  F1  295 d   1     -25.904   6.550  32.530  0.00  0.00    -0.206 F 
ATOM      8  H1  295 d   1     -24.993   9.739  29.515  0.00  0.00     0.084 H 
ATOM      9  H2  295 d   1     -25.684   7.444  30.103  0.00  0.00     0.088 H 
ATOM     10  H3  295 d   1     -25.295   8.388  34.269  0.00  0.00     0.088 H 
ATOM     11  H4  295 d   1     -24.601  10.680  33.675  0.00  0.00     0.084 H 
ENDROOT
BRANCH   6  12
ATOM     12  C6  295 d   1     -24.304  11.801  31.222  0.00  0.00     0.095 C 
ATOM     13  H5  295 d   1     -23.237  11.927  31.456  0.00  0.00     0.095 H 
BRANCH  12  14
ATOM     14  O4  295 d   1     -25.135  12.774  32.058  0.00  0.00    -0.388 OA
ATOM     15  H6  295 d   1     -24.871  13.665  31.860  0.00  0.00     0.210 HD
ENDBRANCH  12  14
BRANCH  12  16
ATOM     16  C7  295 d   1     -24.537  12.074  29.746  0.00  0.00     0.147 C 
ATOM     17  H7  295 d   1     -25.180  11.290  29.320  0.00  0.00     0.104 H 
BRANCH  16  18
ATOM     18  C8  295 d   1     -25.192  13.427  29.579  0.00  0.00     0.205 C 
ATOM     19  O1  295 d   1     -25.831  13.666  28.255  0.00  0.00    -0.646 OA
ATOM     20  O   295 d   1     -25.213  14.313  30.452  0.00  0.00    -0.646 OA
ENDBRANCH  16  18
BRANCH  16  21
ATOM     21  O3  295 d   1     -23.288  12.101  29.068  0.00  0.00    -0.382 OA
ATOM     22  H8  295 d   1     -23.433  12.284  28.147  0.00  0.00     0.210 HD
ENDBRANCH  16  21
ENDBRANCH  12  16
ENDBRANCH   6  12
TORSDOF 5
