REMARK  6 active torsions:
REMARK  status: ('A' for Active; 'I' for Inactive)
REMARK    1  A    between atoms: C1_1  and  O2_2 
REMARK    2  A    between atoms: O2_2  and  C3_3 
REMARK    3  A    between atoms: C8_8  and  C9_9 
REMARK    4  A    between atoms: C9_9  and  N10_10 
REMARK    5  A    between atoms: C9_9  and  C11_11 
REMARK    6  A    between atoms: C11_11  and  C12_12 
ROOT
ATOM      1  C3  NON d   1      24.391  10.044   6.622  0.00  0.00     0.068 A 
ATOM      2  C4  NON d   1      24.206  10.390   7.957  0.00  0.00    -0.050 A 
ATOM      3  C5  NON d   1      23.923  11.707   8.305  0.00  0.00    -0.072 A 
ATOM      4  C6  NON d   1      24.289  11.019   5.636  0.00  0.00    -0.050 A 
ATOM      5  C7  NON d   1      24.005  12.335   5.982  0.00  0.00    -0.072 A 
ATOM      6  C8  NON d   1      23.826  12.679   7.317  0.00  0.00    -0.021 A 
ATOM      7  H4  NON d   1      24.283   9.632   8.728  0.00  0.00     0.087 H 
ATOM      8  H5  NON d   1      23.778  11.974   9.345  0.00  0.00     0.084 H 
ATOM      9  H6  NON d   1      24.431  10.752   4.595  0.00  0.00     0.087 H 
ATOM     10  H7  NON d   1      23.923  13.093   5.211  0.00  0.00     0.084 H 
ENDROOT
BRANCH   6  11
ATOM     11  C9  NON d   1      23.564  14.141   7.684  0.00  0.00     0.197 C 
ATOM     12  H8  NON d   1      24.121  14.796   6.998  0.00  0.00     0.102 H 
BRANCH  11  13
ATOM     13  N10 NON d   1      22.126  14.424   7.572  0.00  0.00    -0.065 N 
ATOM     14  H9  NON d   1      21.823  14.255   6.626  0.00  0.00     0.275 HD
ATOM     15  H10 NON d   1      21.953  15.387   7.812  0.00  0.00     0.275 HD
ATOM     16  H11 NON d   1      21.616  13.824   8.201  0.00  0.00     0.275 HD
ENDBRANCH  11  13
BRANCH  11  17
ATOM     17  C11 NON d   1      24.025  14.398   9.120  0.00  0.00     0.361 C 
ATOM     18  F1  NON d   1      25.218  13.800   9.324  0.00  0.00    -0.191 F 
ATOM     19  F2  NON d   1      23.115  13.894   9.980  0.00  0.00    -0.191 F 
BRANCH  17  20
ATOM     20  C12 NON d   1      24.165  15.906   9.350  0.00  0.00     0.251 C 
ATOM     21  O13 NON d   1      24.116  16.743   8.423  0.00  0.00    -0.643 OA
ATOM     22  O14 NON d   1      24.358  16.285  10.526  0.00  0.00    -0.643 OA
ENDBRANCH  17  20
ENDBRANCH  11  17
ENDBRANCH   6  11
BRANCH   1  23
ATOM     23  O2  NON d   1      24.690   8.764   6.279  0.00  0.00    -0.356 OA
BRANCH  23  24
ATOM     24  C1  NON d   1      26.111   8.594   6.256  0.00  0.00     0.010 C 
ATOM     25  H1  NON d   1      26.352   7.557   5.978  0.00  0.00     0.066 H 
ATOM     26  H2  NON d   1      26.523   8.812   7.253  0.00  0.00     0.066 H 
ATOM     27  H3  NON d   1      26.551   9.283   5.519  0.00  0.00     0.066 H 
ENDBRANCH  23  24
ENDBRANCH   1  23
TORSDOF 6
