REMARK  1 active torsions:
REMARK  status: ('A' for Active; 'I' for Inactive)
REMARK    1  A    between atoms: C1_1  and  C2_2 
ROOT
ATOM      1  C1  NON d   1      22.490   2.106   3.698  0.00  0.00     0.279 C 
ATOM      2  O1  NON d   1      21.909   2.473   2.656  0.00  0.00    -0.639 OA
ATOM      3  O3  NON d   1      22.481   0.912   4.083  0.00  0.00    -0.639 OA
ENDROOT
BRANCH   1   4
ATOM      4  C2  NON d   1      23.222   3.096   4.484  0.00  0.00     0.279 C 
ATOM      5  O2  NON d   1      23.341   4.264   4.049  0.00  0.00    -0.639 OA
ATOM      6  O4  NON d   1      23.736   2.737   5.570  0.00  0.00    -0.639 OA
ENDBRANCH   1   4
TORSDOF 1
