REMARK  26 active torsions:
REMARK  status: ('A' for Active; 'I' for Inactive)
REMARK    1  A    between atoms: C1_2  and  O1A_3 
REMARK    2  A    between atoms: C1_2  and  C2_14 
REMARK    3  A    between atoms: O1A_3  and  C1A_4 
REMARK    4  A    between atoms: C1A_4  and  C2A_5 
REMARK    5  A    between atoms: C2A_5  and  O2A_6 
REMARK    6  A    between atoms: C2A_5  and  C3A_7 
REMARK    7  A    between atoms: C3A_7  and  O3A_8 
REMARK    8  A    between atoms: O3A_8  and  P_9 
REMARK    9  A    between atoms: P_9  and  O2B_11 
REMARK   10  A    between atoms: O2B_11  and  C2B_13 
REMARK   11  A    between atoms: C2_14  and  C3_15 
REMARK   12  A    between atoms: C3_15  and  C4_16 
REMARK   13  A    between atoms: C4_16  and  C5_17 
REMARK   14  A    between atoms: C5_17  and  C6_18 
REMARK   15  A    between atoms: C6_18  and  C7_19 
REMARK   16  A    between atoms: C7_19  and  C8_20 
REMARK   17  A    between atoms: C8_20  and  C9_21 
REMARK   18  A    between atoms: C9_21  and  C10_22 
REMARK   19  A    between atoms: C10_22  and  C11_23 
REMARK   20  A    between atoms: C11_23  and  C12_24 
REMARK   21  A    between atoms: C12_24  and  C13_25 
REMARK   22  A    between atoms: C13_25  and  C14_26 
REMARK   23  A    between atoms: C14_26  and  C15_27 
REMARK   24  A    between atoms: C15_27  and  C16_28 
REMARK   25  A    between atoms: C16_28  and  C17_29 
REMARK   26  A    between atoms: C17_29  and  C18_30 
ROOT
ATOM      1  C6  LP3 d   1      12.851   8.069  14.414  0.00  0.00    -0.065 C 
ATOM      2  H18 LP3 d   1      13.424   7.719  15.285  0.00  0.00     0.033 H 
ATOM      3  H19 LP3 d   1      13.393   8.891  13.925  0.00  0.00     0.033 H 
ENDROOT
BRANCH   1   4
ATOM      4  C5  LP3 d   1      11.485   8.537  14.848  0.00  0.00    -0.065 C 
ATOM      5  H16 LP3 d   1      10.744   8.125  14.148  0.00  0.00     0.033 H 
ATOM      6  H17 LP3 d   1      11.294   8.145  15.858  0.00  0.00     0.033 H 
BRANCH   4   7
ATOM      7  C4  LP3 d   1      11.312  10.039  14.886  0.00  0.00    -0.065 C 
ATOM      8  H14 LP3 d   1      11.770  10.460  15.793  0.00  0.00     0.033 H 
ATOM      9  H15 LP3 d   1      11.764  10.504  13.998  0.00  0.00     0.033 H 
BRANCH   7  10
ATOM     10  C3  LP3 d   1       9.800  10.254  14.896  0.00  0.00    -0.057 C 
ATOM     11  H12 LP3 d   1       9.401  10.024  13.897  0.00  0.00     0.033 H 
ATOM     12  H13 LP3 d   1       9.349   9.576  15.636  0.00  0.00     0.033 H 
BRANCH  10  13
ATOM     13  C2  LP3 d   1       9.433  11.693  15.255  0.00  0.00     0.016 C 
ATOM     14  H10 LP3 d   1      10.360  12.271  15.385  0.00  0.00     0.048 H 
ATOM     15  H11 LP3 d   1       8.846  12.123  14.430  0.00  0.00     0.048 H 
BRANCH  13  16
ATOM     16  C1  LP3 d   1       8.618  11.788  16.533  0.00  0.00     0.258 C 
ATOM     17  O1  LP3 d   1       9.157  12.220  17.535  0.00  0.00    -0.265 OA
BRANCH  16  18
ATOM     18  O1A LP3 d   1       7.355  11.408  16.596  0.00  0.00    -0.319 OA
BRANCH  18  19
ATOM     19  C1A LP3 d   1       6.492  12.394  16.478  0.00  0.00     0.054 C 
ATOM     20  H1  LP3 d   1       6.093  12.389  15.453  0.00  0.00     0.079 H 
ATOM     21  H2  LP3 d   1       7.017  13.343  16.663  0.00  0.00     0.079 H 
BRANCH  19  22
ATOM     22  C2A LP3 d   1       5.356  12.289  17.429  0.00  0.00     0.077 C 
ATOM     23  H3  LP3 d   1       5.741  12.074  18.437  0.00  0.00     0.089 H 
BRANCH  22  24
ATOM     24  O2A LP3 d   1       4.691  13.442  17.438  0.00  0.00    -0.391 OA
ATOM     25  H4  LP3 d   1       3.962  13.381  18.045  0.00  0.00     0.210 HD
ENDBRANCH  22  24
BRANCH  22  26
ATOM     26  C3A LP3 d   1       4.435  11.206  17.011  0.00  0.00     0.057 C 
ATOM     27  H5  LP3 d   1       5.012  10.456  16.450  0.00  0.00     0.079 H 
ATOM     28  H6  LP3 d   1       3.663  11.639  16.358  0.00  0.00     0.079 H 
BRANCH  26  29
ATOM     29  O3A LP3 d   1       3.826  10.591  18.039  0.00  0.00    -0.287 OA
BRANCH  29  30
ATOM     30  P   LP3 d   1       2.443  10.030  17.671  0.00  0.00     0.407 P 
ATOM     31  O1B LP3 d   1       2.629   8.596  17.145  0.00  0.00    -0.624 OA
ATOM     32  O3B LP3 d   1       1.796  10.873  16.565  0.00  0.00    -0.624 OA
BRANCH  30  33
ATOM     33  O2B LP3 d   1       1.562  10.136  18.937  0.00  0.00    -0.295 OA
BRANCH  33  34
ATOM     34  C2B LP3 d   1       1.267   8.931  19.640  0.00  0.00     0.016 C 
ATOM     35  H7  LP3 d   1       0.636   9.160  20.512  0.00  0.00     0.067 H 
ATOM     36  H8  LP3 d   1       2.204   8.465  19.978  0.00  0.00     0.067 H 
ATOM     37  H9  LP3 d   1       0.733   8.239  18.973  0.00  0.00     0.067 H 
ENDBRANCH  33  34
ENDBRANCH  30  33
ENDBRANCH  29  30
ENDBRANCH  26  29
ENDBRANCH  22  26
ENDBRANCH  19  22
ENDBRANCH  18  19
ENDBRANCH  16  18
ENDBRANCH  13  16
ENDBRANCH  10  13
ENDBRANCH   7  10
ENDBRANCH   4   7
ENDBRANCH   1   4
BRANCH   1  38
ATOM     38  C7  LP3 d   1      12.642   6.925  13.433  0.00  0.00    -0.065 C 
ATOM     39  H20 LP3 d   1      11.743   7.127  12.832  0.00  0.00     0.033 H 
ATOM     40  H21 LP3 d   1      12.504   5.990  13.996  0.00  0.00     0.033 H 
BRANCH  38  41
ATOM     41  C8  LP3 d   1      13.827   6.774  12.510  0.00  0.00    -0.065 C 
ATOM     42  H22 LP3 d   1      14.620   6.202  13.014  0.00  0.00     0.033 H 
ATOM     43  H23 LP3 d   1      14.211   7.767  12.234  0.00  0.00     0.033 H 
BRANCH  41  44
ATOM     44  C9  LP3 d   1      13.375   6.033  11.261  0.00  0.00    -0.065 C 
ATOM     45  H24 LP3 d   1      12.543   6.587  10.801  0.00  0.00     0.033 H 
ATOM     46  H25 LP3 d   1      13.032   5.028  11.549  0.00  0.00     0.033 H 
BRANCH  44  47
ATOM     47  C10 LP3 d   1      14.478   5.898  10.259  0.00  0.00    -0.065 C 
ATOM     48  H26 LP3 d   1      15.122   5.033  10.477  0.00  0.00     0.033 H 
ATOM     49  H27 LP3 d   1      15.093   6.809  10.206  0.00  0.00     0.033 H 
BRANCH  47  50
ATOM     50  C11 LP3 d   1      13.677   5.693   9.000  0.00  0.00    -0.065 C 
ATOM     51  H28 LP3 d   1      13.422   6.678   8.581  0.00  0.00     0.033 H 
ATOM     52  H29 LP3 d   1      12.753   5.153   9.255  0.00  0.00     0.033 H 
BRANCH  50  53
ATOM     53  C12 LP3 d   1      14.425   4.904   7.957  0.00  0.00    -0.065 C 
ATOM     54  H30 LP3 d   1      14.055   5.221   6.971  0.00  0.00     0.033 H 
ATOM     55  H31 LP3 d   1      14.191   3.841   8.112  0.00  0.00     0.033 H 
BRANCH  53  56
ATOM     56  C13 LP3 d   1      15.923   5.043   7.947  0.00  0.00    -0.065 C 
ATOM     57  H32 LP3 d   1      16.366   4.504   8.797  0.00  0.00     0.033 H 
ATOM     58  H33 LP3 d   1      16.213   6.103   7.993  0.00  0.00     0.033 H 
BRANCH  56  59
ATOM     59  C14 LP3 d   1      16.366   4.429   6.642  0.00  0.00    -0.065 C 
ATOM     60  H34 LP3 d   1      15.905   4.973   5.804  0.00  0.00     0.033 H 
ATOM     61  H35 LP3 d   1      16.057   3.374   6.608  0.00  0.00     0.033 H 
BRANCH  59  62
ATOM     62  C15 LP3 d   1      17.853   4.518   6.537  0.00  0.00    -0.065 C 
ATOM     63  H36 LP3 d   1      18.320   3.604   6.934  0.00  0.00     0.033 H 
ATOM     64  H37 LP3 d   1      18.224   5.391   7.094  0.00  0.00     0.033 H 
BRANCH  62  65
ATOM     65  C16 LP3 d   1      18.156   4.666   5.068  0.00  0.00    -0.065 C 
ATOM     66  H38 LP3 d   1      17.979   5.709   4.767  0.00  0.00     0.033 H 
ATOM     67  H39 LP3 d   1      17.493   4.001   4.495  0.00  0.00     0.033 H 
BRANCH  65  68
ATOM     68  C17 LP3 d   1      19.582   4.307   4.777  0.00  0.00    -0.069 C 
ATOM     69  H40 LP3 d   1      19.699   4.149   3.695  0.00  0.00     0.032 H 
ATOM     70  H41 LP3 d   1      19.835   3.380   5.313  0.00  0.00     0.032 H 
BRANCH  68  71
ATOM     71  C18 LP3 d   1      20.525   5.408   5.220  0.00  0.00    -0.077 C 
ATOM     72  H42 LP3 d   1      21.561   5.116   4.994  0.00  0.00     0.027 H 
ATOM     73  H43 LP3 d   1      20.418   5.569   6.303  0.00  0.00     0.027 H 
ATOM     74  H44 LP3 d   1      20.281   6.337   4.685  0.00  0.00     0.027 H 
ENDBRANCH  68  71
ENDBRANCH  65  68
ENDBRANCH  62  65
ENDBRANCH  59  62
ENDBRANCH  56  59
ENDBRANCH  53  56
ENDBRANCH  50  53
ENDBRANCH  47  50
ENDBRANCH  44  47
ENDBRANCH  41  44
ENDBRANCH  38  41
ENDBRANCH   1  38
TORSDOF 26
