REMARK  11 active torsions:
REMARK  status: ('A' for Active; 'I' for Inactive)
REMARK    1  A    between atoms: N3_2  and  C8_7 
REMARK    2  A    between atoms: C5_4  and  C9_34 
REMARK    3  A    between atoms: N5_28  and  C7_6 
REMARK    4  A    between atoms: C9_34  and  C10_8 
REMARK       I    between atoms: C21_13  and  N6_18 
REMARK    5  A    between atoms: C18_23  and  C21_13 
REMARK    6  A    between atoms: N6_18  and  C22_14 
REMARK    7  A    between atoms: N7_20  and  C30_21 
REMARK    8  A    between atoms: C16_24  and  O3_25 
REMARK    9  A    between atoms: O3_25  and  C31_26 
REMARK   10  A    between atoms: C1_29  and  N5_28 
REMARK   11  A    between atoms: N4_36  and  C11_37 
ROOT
ATOM      1  N5  R78 d   1     -44.955  11.536  18.739  0.00  0.00    -0.185 N 
ATOM      2  H31 R78 d   1     -44.511  11.107  19.563  0.00  0.00     0.184 HD
ENDROOT
BRANCH   1   3
ATOM      3  C7  R78 d   1     -46.323  11.511  18.720  0.00  0.00     0.082 A 
ATOM      4  C20 R78 d   1     -47.118  12.296  17.889  0.00  0.00    -0.053 A 
ATOM      5  C19 R78 d   1     -48.523  12.172  17.939  0.00  0.00    -0.065 A 
ATOM      6  H12 R78 d   1     -46.659  13.001  17.205  0.00  0.00     0.087 H 
ATOM      7  C18 R78 d   1     -49.075  11.281  18.871  0.00  0.00     0.034 A 
ATOM      8  H30 R78 d   1     -49.157  12.749  17.276  0.00  0.00     0.085 H 
ATOM      9  C17 R78 d   1     -48.269  10.524  19.709  0.00  0.00    -0.033 A 
ATOM     10  C16 R78 d   1     -46.890  10.625  19.633  0.00  0.00     0.096 A 
ATOM     11  H11 R78 d   1     -48.721   9.850  20.427  0.00  0.00     0.089 H 
BRANCH   7  12
ATOM     12  C21 R78 d   1     -50.558  11.055  19.015  0.00  0.00     0.252 C 
ATOM     13  O2  R78 d   1     -50.980  10.651  20.097  0.00  0.00    -0.268 OA
ATOM     14  N6  R78 d   1     -51.346  11.234  17.972  0.00  0.00    -0.352 N 
ATOM     15  H18 R78 d   1     -50.968  11.540  17.098  0.00  0.00     0.163 HD
BRANCH  14  16
ATOM     16  C22 R78 d   1     -52.779  10.979  18.112  0.00  0.00     0.015 C 
ATOM     17  C29 R78 d   1     -53.094   9.863  17.120  0.00  0.00    -0.023 C 
ATOM     18  C28 R78 d   1     -54.593   9.741  16.807  0.00  0.00     0.085 C 
ATOM     19  H19 R78 d   1     -52.746   8.909  17.544  0.00  0.00     0.038 H 
ATOM     20  H20 R78 d   1     -52.556  10.066  16.182  0.00  0.00     0.038 H 
ATOM     21  N7  R78 d   1     -55.215  11.044  16.488  0.00  0.00    -0.075 N 
ATOM     22  H16 R78 d   1     -55.102   9.313  17.683  0.00  0.00     0.076 H 
ATOM     23  H17 R78 d   1     -54.719   9.070  15.945  0.00  0.00     0.076 H 
ATOM     24  C24 R78 d   1     -54.958  12.016  17.568  0.00  0.00     0.085 C 
ATOM     25  H21 R78 d   1     -54.848  11.388  15.614  0.00  0.00     0.279 HD
ATOM     26  C23 R78 d   1     -53.454  12.260  17.662  0.00  0.00    -0.023 C 
ATOM     27  H14 R78 d   1     -55.328  11.614  18.523  0.00  0.00     0.076 H 
ATOM     28  H15 R78 d   1     -55.473  12.962  17.344  0.00  0.00     0.076 H 
ATOM     29  H25 R78 d   1     -53.065  12.556  16.677  0.00  0.00     0.038 H 
ATOM     30  H26 R78 d   1     -53.254  13.059  18.391  0.00  0.00     0.038 H 
ATOM     31  H13 R78 d   1     -53.063  10.705  19.139  0.00  0.00     0.072 H 
BRANCH  21  32
ATOM     32  C30 R78 d   1     -56.679  10.890  16.405  0.00  0.00     0.066 C 
ATOM     33  H22 R78 d   1     -57.137  11.861  16.168  0.00  0.00     0.068 H 
ATOM     34  H23 R78 d   1     -57.065  10.529  17.370  0.00  0.00     0.068 H 
ATOM     35  H24 R78 d   1     -56.927  10.165  15.616  0.00  0.00     0.068 H 
ENDBRANCH  21  32
ENDBRANCH  14  16
ENDBRANCH   7  12
BRANCH  10  36
ATOM     36  O3  R78 d   1     -46.052   9.869  20.433  0.00  0.00    -0.354 OA
BRANCH  36  37
ATOM     37  C31 R78 d   1     -46.485   8.779  21.267  0.00  0.00     0.010 C 
ATOM     38  H27 R78 d   1     -45.618   8.354  21.794  0.00  0.00     0.066 H 
ATOM     39  H28 R78 d   1     -46.952   8.003  20.643  0.00  0.00     0.066 H 
ATOM     40  H29 R78 d   1     -47.216   9.147  22.002  0.00  0.00     0.066 H 
ENDBRANCH  36  37
ENDBRANCH  10  36
ENDBRANCH   1   3
BRANCH   1  41
ATOM     41  C1  R78 d   1     -44.115  12.047  17.824  0.00  0.00     0.728 A 
ATOM     42  N1  R78 d   1     -42.799  11.946  18.089  0.00  0.00    -0.073 NA
ATOM     43  C4  R78 d   1     -41.864  12.424  17.247  0.00  0.00     0.051 A 
ATOM     44  C3  R78 d   1     -42.267  13.088  16.113  0.00  0.00     0.102 A 
ATOM     45  H1  R78 d   1     -40.810  12.287  17.460  0.00  0.00     0.119 H 
ATOM     46  C2  R78 d   1     -43.626  13.212  15.872  0.00  0.00     0.174 A 
ATOM     47  N4  R78 d   1     -41.299  13.661  15.235  0.00  0.00    -0.316 N 
ATOM     48  N3  R78 d   1     -44.066  13.857  14.715  0.00  0.00    -0.345 N 
ATOM     49  N2  R78 d   1     -44.537  12.678  16.725  0.00  0.00    -0.043 NA
ATOM     50  C5  R78 d   1     -43.096  14.370  13.723  0.00  0.00     0.091 A 
ATOM     51  C6  R78 d   1     -41.676  14.291  14.116  0.00  0.00     0.247 A 
ATOM     52  H2  R78 d   1     -43.364  15.393  13.420  0.00  0.00     0.087 H 
ATOM     53  O1  R78 d   1     -40.835  14.806  13.336  0.00  0.00    -0.271 OA
BRANCH  48  54
ATOM     54  C8  R78 d   1     -45.535  13.959  14.560  0.00  0.00     0.014 C 
ATOM     55  C15 R78 d   1     -46.339  12.777  14.034  0.00  0.00    -0.046 C 
ATOM     56  C14 R78 d   1     -47.560  13.439  13.415  0.00  0.00    -0.063 C 
ATOM     57  H9  R78 d   1     -46.629  12.101  14.852  0.00  0.00     0.036 H 
ATOM     58  H10 R78 d   1     -45.769  12.216  13.279  0.00  0.00     0.036 H 
ATOM     59  C13 R78 d   1     -47.345  14.939  13.303  0.00  0.00    -0.063 C 
ATOM     60  H32 R78 d   1     -47.730  13.021  12.412  0.00  0.00     0.033 H 
ATOM     61  H33 R78 d   1     -48.438  13.244  14.048  0.00  0.00     0.033 H 
ATOM     62  C12 R78 d   1     -45.918  15.195  13.766  0.00  0.00    -0.046 C 
ATOM     63  H7  R78 d   1     -48.057  15.476  13.946  0.00  0.00     0.033 H 
ATOM     64  H8  R78 d   1     -47.473  15.267  12.261  0.00  0.00     0.033 H 
ATOM     65  H34 R78 d   1     -45.248  15.323  12.903  0.00  0.00     0.036 H 
ATOM     66  H35 R78 d   1     -45.873  16.092  14.401  0.00  0.00     0.036 H 
ATOM     67  H3  R78 d   1     -45.905  14.116  15.584  0.00  0.00     0.072 H 
ENDBRANCH  48  54
BRANCH  50  68
ATOM     68  C9  R78 d   1     -43.150  13.344  12.547  0.00  0.00    -0.041 C 
ATOM     69  H36 R78 d   1     -42.416  13.668  11.795  0.00  0.00     0.036 H 
ATOM     70  H37 R78 d   1     -44.161  13.392  12.116  0.00  0.00     0.036 H 
BRANCH  68  71
ATOM     71  C10 R78 d   1     -42.855  11.855  12.869  0.00  0.00    -0.074 C 
ATOM     72  H4  R78 d   1     -42.930  11.259  11.948  0.00  0.00     0.027 H 
ATOM     73  H5  R78 d   1     -43.586  11.487  13.604  0.00  0.00     0.027 H 
ATOM     74  H6  R78 d   1     -41.840  11.764  13.283  0.00  0.00     0.027 H 
ENDBRANCH  68  71
ENDBRANCH  50  68
BRANCH  47  75
ATOM     75  C11 R78 d   1     -39.881  13.523  15.624  0.00  0.00    -0.011 C 
ATOM     76  H38 R78 d   1     -39.245  14.005  14.867  0.00  0.00     0.057 H 
ATOM     77  H39 R78 d   1     -39.623  12.456  15.695  0.00  0.00     0.057 H 
ATOM     78  H40 R78 d   1     -39.720  14.005  16.599  0.00  0.00     0.057 H 
ENDBRANCH  47  75
ENDBRANCH   1  41
TORSDOF 11
