REMARK  7 active torsions:
REMARK  status: ('A' for Active; 'I' for Inactive)
REMARK    1  A    between atoms: C1_1  and  O34_23 
REMARK    2  A    between atoms: C6_6  and  O33_22 
REMARK    3  A    between atoms: C10_10  and  O11_11 
REMARK    4  A    between atoms: O11_11  and  C12_12 
REMARK       I    between atoms: N28_21  and  C35_24 
REMARK    5  A    between atoms: O33_22  and  C49_34 
REMARK    6  A    between atoms: O34_23  and  C53_35 
REMARK       I    between atoms: C35_24  and  N37_26 
REMARK    7  A    between atoms: N37_26  and  C38_27 
ROOT
ATOM      1  C12 2RL d   1      60.487  49.501  17.569  0.00  0.00     0.079 A 
ATOM      2  C13 2RL d   1      61.117  49.887  18.780  0.00  0.00    -0.016 A 
ATOM      3  C14 2RL d   1      61.870  48.967  19.527  0.00  0.00     0.098 A 
ATOM      4  C15 2RL d   1      62.017  47.601  19.070  0.00  0.00     0.072 A 
ATOM      5  C16 2RL d   1      61.363  47.238  17.842  0.00  0.00    -0.051 A 
ATOM      6  C17 2RL d   1      60.612  48.172  17.106  0.00  0.00    -0.048 A 
ATOM      7  O25 2RL d   1      62.457  49.449  20.728  0.00  0.00    -0.347 OA
ATOM      8  C26 2RL d   1      63.519  48.628  21.251  0.00  0.00     0.041 C 
ATOM      9  C27 2RL d   1      63.114  47.151  21.248  0.00  0.00     0.025 C 
ATOM     10  N28 2RL d   1      62.792  46.714  19.865  0.00  0.00    -0.295 N 
ATOM     11  C35 2RL d   1      63.562  45.670  19.308  0.00  0.00     0.327 C 
ATOM     12  O36 2RL d   1      63.588  45.442  18.097  0.00  0.00    -0.246 OA
ATOM     13  N37 2RL d   1      64.304  44.910  20.186  0.00  0.00    -0.309 N 
ATOM     14  H5  2RL d   1      61.016  50.907  19.134  0.00  0.00     0.092 H 
ATOM     15  H6  2RL d   1      61.451  46.222  17.475  0.00  0.00     0.087 H 
ATOM     16  H7  2RL d   1      60.129  47.872  16.183  0.00  0.00     0.087 H 
ATOM     17  H8  2RL d   1      63.741  48.939  22.282  0.00  0.00     0.077 H 
ATOM     18  H9  2RL d   1      64.416  48.758  20.628  0.00  0.00     0.077 H 
ATOM     19  H10 2RL d   1      62.230  47.015  21.888  0.00  0.00     0.068 H 
ATOM     20  H11 2RL d   1      63.945  46.545  21.637  0.00  0.00     0.068 H 
ATOM     21  H12 2RL d   1      64.272  45.181  21.148  0.00  0.00     0.170 HD
ENDROOT
BRANCH   1  22
ATOM     22  O11 2RL d   1      59.734  50.422  16.835  0.00  0.00    -0.310 OA
BRANCH  22  23
ATOM     23  C10 2RL d   1      60.330  51.067  15.721  0.00  0.00     0.090 A 
ATOM     24  C4  2RL d   1      59.474  51.491  14.653  0.00  0.00     0.029 A 
ATOM     25  C3  2RL d   1      60.030  52.164  13.498  0.00  0.00     0.072 A 
ATOM     26  C5  2RL d   1      58.063  51.256  14.726  0.00  0.00    -0.033 A 
ATOM     27  C2  2RL d   1      59.167  52.581  12.452  0.00  0.00    -0.019 A 
ATOM     28  N7  2RL d   1      61.400  52.380  13.454  0.00  0.00    -0.260 NA
ATOM     29  C1  2RL d   1      57.749  52.350  12.516  0.00  0.00     0.103 A 
ATOM     30  H1  2RL d   1      59.585  53.084  11.587  0.00  0.00     0.091 H 
ATOM     31  C6  2RL d   1      57.194  51.676  13.670  0.00  0.00     0.102 A 
ATOM     32  C8  2RL d   1      62.228  51.981  14.460  0.00  0.00     0.005 A 
ATOM     33  C9  2RL d   1      61.742  51.324  15.610  0.00  0.00    -0.032 A 
ATOM     34  H3  2RL d   1      63.291  52.174  14.374  0.00  0.00     0.114 H 
ATOM     35  H4  2RL d   1      62.421  51.018  16.398  0.00  0.00     0.090 H 
ATOM     36  H2  2RL d   1      57.648  50.754  15.592  0.00  0.00     0.089 H 
BRANCH  29  37
ATOM     37  O34 2RL d   1      56.894  52.764  11.474  0.00  0.00    -0.353 OA
BRANCH  37  38
ATOM     38  C53 2RL d   1      57.169  54.030  10.875  0.00  0.00     0.010 C 
ATOM     39  H20 2RL d   1      56.432  54.228  10.083  0.00  0.00     0.066 H 
ATOM     40  H21 2RL d   1      58.180  54.019  10.441  0.00  0.00     0.066 H 
ATOM     41  H22 2RL d   1      57.107  54.819  11.639  0.00  0.00     0.066 H 
ENDBRANCH  37  38
ENDBRANCH  29  37
BRANCH  31  42
ATOM     42  O33 2RL d   1      55.818  51.385  13.869  0.00  0.00    -0.353 OA
BRANCH  42  43
ATOM     43  C49 2RL d   1      55.393  50.049  14.136  0.00  0.00     0.010 C 
ATOM     44  H17 2RL d   1      54.300  50.030  14.259  0.00  0.00     0.066 H 
ATOM     45  H18 2RL d   1      55.872  49.689  15.058  0.00  0.00     0.066 H 
ATOM     46  H19 2RL d   1      55.679  49.398  13.296  0.00  0.00     0.066 H 
ENDBRANCH  42  43
ENDBRANCH  31  42
ENDBRANCH  22  23
ENDBRANCH   1  22
BRANCH  13  47
ATOM     47  C38 2RL d   1      65.093  43.805  19.878  0.00  0.00     0.036 A 
ATOM     48  C39 2RL d   1      65.950  43.816  18.730  0.00  0.00    -0.056 A 
ATOM     49  C40 2RL d   1      66.754  42.689  18.416  0.00  0.00    -0.060 A 
ATOM     50  H13 2RL d   1      65.985  44.694  18.095  0.00  0.00     0.087 H 
ATOM     51  C41 2RL d   1      66.702  41.550  19.253  0.00  0.00     0.034 A 
ATOM     52  H14 2RL d   1      67.400  42.701  17.546  0.00  0.00     0.086 H 
ATOM     53  C42 2RL d   1      65.869  41.512  20.394  0.00  0.00    -0.060 A 
ATOM     54 CL48 2RL d   1      67.674  40.175  18.871  0.00  0.00    -0.084 Cl
ATOM     55  C43 2RL d   1      65.063  42.644  20.705  0.00  0.00    -0.056 A 
ATOM     56  H15 2RL d   1      65.844  40.631  21.025  0.00  0.00     0.086 H 
ATOM     57  H16 2RL d   1      64.421  42.623  21.578  0.00  0.00     0.087 H 
ENDBRANCH  13  47
TORSDOF 7
