REMARK  17 active torsions:
REMARK  status: ('A' for Active; 'I' for Inactive)
REMARK    1  A    between atoms: CA_2  and  C_3 
REMARK       I    between atoms: C_3  and  N_8 
REMARK    2  A    between atoms: N_8  and  CA_9 
REMARK    3  A    between atoms: CA_9  and  C_10 
REMARK    4  A    between atoms: CA_9  and  CB_12 
REMARK       I    between atoms: C_10  and  N_15 
REMARK    5  A    between atoms: CB_12  and  OG1_13 
REMARK    6  A    between atoms: CB_12  and  CG2_14 
REMARK    7  A    between atoms: CA_16  and  C_17 
REMARK       I    between atoms: C_17  and  N_22 
REMARK    8  A    between atoms: CA_23  and  C_24 
REMARK       I    between atoms: C_24  and  N_29 
REMARK    9  A    between atoms: CA_30  and  C_31 
REMARK       I    between atoms: C_31  and  N_36 
REMARK   10  A    between atoms: N_36  and  CA_37 
REMARK   11  A    between atoms: CA_37  and  C_38 
REMARK   12  A    between atoms: CA_37  and  CB_40 
REMARK       I    between atoms: C_38  and  N_44 
REMARK   13  A    between atoms: CB_40  and  CG_41 
REMARK   14  A    between atoms: CG_41  and  CD1_42 
REMARK   15  A    between atoms: CG_41  and  CD2_43 
REMARK   16  A    between atoms: CA_45  and  C_46 
REMARK       I    between atoms: C_46  and  N_51 
REMARK   17  A    between atoms: CA_52  and  C_53 
ROOT
ATOM      1  C   PRO d   1       0.110   7.227   5.870  0.00  0.00     0.243 C 
ATOM      2  O   PRO d   1       0.709   7.392   4.803  0.00  0.00    -0.271 OA
ATOM      3  N   PRO d   1       0.720   7.428   7.039  0.00  0.00    -0.337 N 
ATOM      4  CA  PRO d   1       2.132   7.753   7.067  0.00  0.00     0.091 C 
ATOM      5  CB  PRO d   1       2.336   8.292   8.481  0.00  0.00    -0.036 C 
ATOM      6  CG  PRO d   1       1.282   7.625   9.301  0.00  0.00    -0.048 C 
ATOM      7  CD  PRO d   1       0.116   7.369   8.380  0.00  0.00    -0.001 C 
ATOM      8  H31 PRO d   1       2.386   8.509   6.310  0.00  0.00     0.087 H 
ATOM      9  H32 PRO d   1       2.209   9.384   8.501  0.00  0.00     0.036 H 
ATOM     10  H33 PRO d   1       3.338   8.033   8.853  0.00  0.00     0.036 H 
ATOM     11  H34 PRO d   1       0.974   8.280  10.129  0.00  0.00     0.035 H 
ATOM     12  H35 PRO d   1       1.661   6.675   9.706  0.00  0.00     0.035 H 
ATOM     13  H36 PRO d   1      -0.325   6.379   8.570  0.00  0.00     0.064 H 
ATOM     14  H37 PRO d   1      -0.656   8.143   8.498  0.00  0.00     0.064 H 
ENDROOT
BRANCH   1  15
ATOM     15  CA  PRO d   1      -1.360   6.843   5.852  0.00  0.00     0.092 C 
ATOM     16  N   PRO d   1      -1.973   7.364   4.651  0.00  0.00    -0.337 N 
ATOM     17  C   PRO d   1      -2.324   8.647   4.529  0.00  0.00     0.243 C 
ATOM     18  CD  PRO d   1      -2.080   6.331   3.608  0.00  0.00    -0.001 C 
ATOM     19  O   PRO d   1      -2.320   9.412   5.497  0.00  0.00    -0.271 OA
ATOM     20  CG  PRO d   1      -1.795   5.025   4.314  0.00  0.00    -0.048 C 
ATOM     21  H29 PRO d   1      -1.342   6.508   2.812  0.00  0.00     0.064 H 
ATOM     22  H30 PRO d   1      -3.091   6.323   3.175  0.00  0.00     0.064 H 
ATOM     23  CB  PRO d   1      -1.565   5.328   5.759  0.00  0.00    -0.036 C 
ATOM     24  H27 PRO d   1      -2.654   4.346   4.206  0.00  0.00     0.035 H 
ATOM     25  H28 PRO d   1      -0.899   4.554   3.883  0.00  0.00     0.035 H 
ATOM     26  H25 PRO d   1      -2.438   5.024   6.356  0.00  0.00     0.036 H 
ATOM     27  H26 PRO d   1      -0.671   4.800   6.122  0.00  0.00     0.036 H 
ATOM     28  H24 PRO d   1      -1.853   7.241   6.751  0.00  0.00     0.087 H 
BRANCH  17  29
ATOM     29  CA  PRO d   1      -2.732   9.138   3.140  0.00  0.00     0.092 C 
ATOM     30  N   PRO d   1      -3.726  10.204   3.197  0.00  0.00    -0.337 N 
ATOM     31  C   THR d   1      -5.023   9.943   3.433  0.00  0.00     0.245 C 
ATOM     32  CD  PRO d   1      -3.119  11.535   2.952  0.00  0.00    -0.001 C 
ATOM     33  O   THR d   1      -5.432   8.791   3.585  0.00  0.00    -0.271 OA
ATOM     34  CG  PRO d   1      -1.645  11.233   2.881  0.00  0.00    -0.048 C 
ATOM     35  H22 PRO d   1      -3.340  12.227   3.777  0.00  0.00     0.064 H 
ATOM     36  H23 PRO d   1      -3.480  11.965   2.006  0.00  0.00     0.064 H 
ATOM     37  CB  PRO d   1      -1.564   9.822   2.423  0.00  0.00    -0.036 C 
ATOM     38  H20 PRO d   1      -1.147  11.902   2.163  0.00  0.00     0.035 H 
ATOM     39  H21 PRO d   1      -1.179  11.346   3.871  0.00  0.00     0.035 H 
ATOM     40  H18 PRO d   1      -1.682   9.757   1.331  0.00  0.00     0.036 H 
ATOM     41  H19 PRO d   1      -0.605   9.369   2.716  0.00  0.00     0.036 H 
ATOM     42  H17 PRO d   1      -3.108   8.285   2.555  0.00  0.00     0.087 H 
BRANCH  31  43
ATOM     43  CA  THR d   1      -6.007  11.107   3.512  0.00  0.00     0.114 C 
ATOM     44  H11 THR d   1      -5.648  11.937   2.886  0.00  0.00     0.091 H 
BRANCH  43  45
ATOM     45  N   THR d   1      -7.305  10.660   3.036  0.00  0.00    -0.344 N 
ATOM     46  C   PRO d   1      -7.718  10.916   1.806  0.00  0.00     0.249 C 
ATOM     47  O   PRO d   1      -7.045  11.545   0.984  0.00  0.00    -0.271 OA
ATOM     48  H10 THR d   1      -7.901  10.146   3.654  0.00  0.00     0.163 HD
BRANCH  46  49
ATOM     49  CA  PRO d   1      -9.114  10.411   1.457  0.00  0.00     0.178 C 
ATOM     50  N   PRO d   1     -10.056  11.508   1.233  0.00  0.00    -0.062 N 
ATOM     51  CD  PRO d   1     -10.836  11.318  -0.008  0.00  0.00     0.083 C 
ATOM     52  H1  PRO d   1      -9.541  12.372   1.165  0.00  0.00     0.278 HD
ATOM     53  H2  PRO d   1     -10.692  11.556   2.014  0.00  0.00     0.278 HD
ATOM     54  CG  PRO d   1     -10.444   9.936  -0.468  0.00  0.00    -0.040 C 
ATOM     55  H8  PRO d   1     -10.566  12.073  -0.761  0.00  0.00     0.075 H 
ATOM     56  H9  PRO d   1     -11.916  11.372   0.195  0.00  0.00     0.075 H 
ATOM     57  CB  PRO d   1      -9.103   9.675   0.118  0.00  0.00    -0.028 C 
ATOM     58  H6  PRO d   1     -11.170   9.193  -0.107  0.00  0.00     0.035 H 
ATOM     59  H7  PRO d   1     -10.395   9.898  -1.566  0.00  0.00     0.035 H 
ATOM     60  H4  PRO d   1      -8.949   8.596   0.270  0.00  0.00     0.036 H 
ATOM     61  H5  PRO d   1      -8.311  10.070  -0.535  0.00  0.00     0.036 H 
ATOM     62  H3  PRO d   1      -9.471   9.753   2.263  0.00  0.00     0.099 H 
ENDBRANCH  46  49
ENDBRANCH  43  45
BRANCH  43  63
ATOM     63  CB  THR d   1      -6.138  11.584   4.976  0.00  0.00     0.060 C 
ATOM     64  H12 THR d   1      -6.110  10.706   5.639  0.00  0.00     0.086 H 
BRANCH  63  65
ATOM     65  OG1 THR d   1      -7.391  12.259   5.131  0.00  0.00    -0.393 OA
ATOM     66  H13 THR d   1      -7.480  12.556   6.029  0.00  0.00     0.210 HD
ENDBRANCH  63  65
BRANCH  63  67
ATOM     67  CG2 THR d   1      -5.014  12.535   5.373  0.00  0.00    -0.050 C 
ATOM     68  H14 THR d   1      -5.149  12.846   6.419  0.00  0.00     0.031 H 
ATOM     69  H15 THR d   1      -5.036  13.421   4.721  0.00  0.00     0.031 H 
ATOM     70  H16 THR d   1      -4.046  12.024   5.265  0.00  0.00     0.031 H 
ENDBRANCH  63  67
ENDBRANCH  43  63
ENDBRANCH  31  43
ENDBRANCH  17  29
ENDBRANCH   1  15
BRANCH   4  71
ATOM     71  C   PRO d   1       2.959   6.499   6.845  0.00  0.00     0.241 C 
ATOM     72  O   PRO d   1       2.564   5.400   7.242  0.00  0.00    -0.271 OA
ATOM     73  N   LEU d   1       4.113   6.670   6.228  0.00  0.00    -0.346 N 
ATOM     74  H38 LEU d   1       4.444   7.597   6.052  0.00  0.00     0.163 HD
BRANCH  73  75
ATOM     75  CA  LEU d   1       4.909   5.534   5.801  0.00  0.00     0.090 C 
ATOM     76  H39 LEU d   1       4.238   4.760   5.401  0.00  0.00     0.087 H 
BRANCH  75  77
ATOM     77  C   LEU d   1       5.667   4.922   6.984  0.00  0.00     0.243 C 
ATOM     78  O   LEU d   1       6.039   5.627   7.921  0.00  0.00    -0.271 OA
ATOM     79  N   PRO d   1       5.896   3.596   6.955  0.00  0.00    -0.337 N 
ATOM     80  CA  PRO d   1       6.682   2.917   7.982  0.00  0.00     0.092 C 
ATOM     81  CD  PRO d   1       5.285   2.662   5.997  0.00  0.00    -0.001 C 
ATOM     82  CB  PRO d   1       6.343   1.428   7.806  0.00  0.00    -0.036 C 
ATOM     83  H49 PRO d   1       6.386   3.271   8.981  0.00  0.00     0.087 H 
ATOM     84  CG  PRO d   1       5.456   1.309   6.604  0.00  0.00    -0.048 C 
ATOM     85  H50 PRO d   1       5.819   1.054   8.698  0.00  0.00     0.036 H 
ATOM     86  H51 PRO d   1       7.265   0.848   7.652  0.00  0.00     0.036 H 
ATOM     87  H52 PRO d   1       4.475   0.913   6.906  0.00  0.00     0.035 H 
ATOM     88  H53 PRO d   1       5.916   0.630   5.871  0.00  0.00     0.035 H 
ATOM     89  H54 PRO d   1       5.798   2.716   5.025  0.00  0.00     0.064 H 
ATOM     90  H55 PRO d   1       4.218   2.892   5.862  0.00  0.00     0.064 H 
BRANCH  80  91
ATOM     91  C   PRO d   1       8.182   3.115   7.804  0.00  0.00     0.243 C 
ATOM     92  O   PRO d   1       8.651   3.370   6.703  0.00  0.00    -0.271 OA
ATOM     93  N   PRO d   1       8.943   3.018   8.902  0.00  0.00    -0.336 N 
ATOM     94  CA  PRO d   1      10.389   3.113   8.879  0.00  0.00     0.098 C 
ATOM     95  CD  PRO d   1       8.453   2.823  10.272  0.00  0.00    -0.001 C 
ATOM     96  CB  PRO d   1      10.712   3.735  10.243  0.00  0.00    -0.035 C 
ATOM     97  H56 PRO d   1      10.724   3.767   8.060  0.00  0.00     0.089 H 
ATOM     98  CG  PRO d   1       9.547   3.409  11.134  0.00  0.00    -0.048 C 
ATOM     99  H57 PRO d   1      10.827   4.825  10.148  0.00  0.00     0.036 H 
ATOM    100  H58 PRO d   1      11.637   3.302  10.651  0.00  0.00     0.036 H 
ATOM    101  H59 PRO d   1       9.185   4.324  11.626  0.00  0.00     0.035 H 
ATOM    102  H60 PRO d   1       9.853   2.679  11.897  0.00  0.00     0.035 H 
ATOM    103  H61 PRO d   1       8.313   1.754  10.490  0.00  0.00     0.064 H 
ATOM    104  H62 PRO d   1       7.504   3.356  10.428  0.00  0.00     0.064 H 
BRANCH  94 105
ATOM    105  C   PRO d   1      11.048   1.742   8.726  0.00  0.00     0.196 C 
ATOM    106  O   PRO d   1      11.583   1.449   7.639  0.00  0.00    -0.646 OA
ATOM    107  OXT PRO d   1      11.021   0.955   9.697  0.00  0.00    -0.646 OA
ENDBRANCH  94 105
ENDBRANCH  80  91
ENDBRANCH  75  77
BRANCH  75 108
ATOM    108  CB  LEU d   1       5.824   6.020   4.655  0.00  0.00    -0.035 C 
ATOM    109  H40 LEU d   1       6.118   7.053   4.891  0.00  0.00     0.037 H 
ATOM    110  H41 LEU d   1       5.222   6.011   3.734  0.00  0.00     0.037 H 
BRANCH 108 111
ATOM    111  CG  LEU d   1       7.105   5.245   4.362  0.00  0.00    -0.059 C 
ATOM    112  H42 LEU d   1       7.559   4.936   5.315  0.00  0.00     0.038 H 
BRANCH 111 113
ATOM    113  CD1 LEU d   1       6.817   4.006   3.540  0.00  0.00    -0.073 C 
ATOM    114  H43 LEU d   1       7.757   3.469   3.345  0.00  0.00     0.028 H 
ATOM    115  H44 LEU d   1       6.357   4.298   2.585  0.00  0.00     0.028 H 
ATOM    116  H45 LEU d   1       6.128   3.351   4.093  0.00  0.00     0.028 H 
ENDBRANCH 111 113
BRANCH 111 117
ATOM    117  CD2 LEU d   1       8.069   6.150   3.628  0.00  0.00    -0.073 C 
ATOM    118  H46 LEU d   1       8.268   7.044   4.237  0.00  0.00     0.028 H 
ATOM    119  H47 LEU d   1       7.629   6.452   2.666  0.00  0.00     0.028 H 
ATOM    120  H48 LEU d   1       9.011   5.612   3.447  0.00  0.00     0.028 H 
ENDBRANCH 111 117
ENDBRANCH 108 111
ENDBRANCH  75 108
ENDBRANCH  73  75
ENDBRANCH   4  71
TORSDOF 17
