REMARK  19 active torsions:
REMARK  status: ('A' for Active; 'I' for Inactive)
REMARK    1  A    between atoms: CA_2  and  C_3 
REMARK       I    between atoms: C_3  and  N_8 
REMARK    2  A    between atoms: CA_9  and  C_10 
REMARK       I    between atoms: C_10  and  N_15 
REMARK    3  A    between atoms: CA_16  and  C_17 
REMARK       I    between atoms: C_17  and  N_22 
REMARK    4  A    between atoms: N_22  and  CA_23 
REMARK    5  A    between atoms: CA_23  and  C_24 
REMARK    6  A    between atoms: CA_23  and  CB_26 
REMARK       I    between atoms: C_24  and  N_30 
REMARK    7  A    between atoms: CB_26  and  CG_27 
REMARK    8  A    between atoms: CG_27  and  CD1_28 
REMARK    9  A    between atoms: CG_27  and  CD2_29 
REMARK   10  A    between atoms: N_30  and  CA_31 
REMARK   11  A    between atoms: CA_31  and  C_32 
REMARK   12  A    between atoms: CA_31  and  CB_34 
REMARK       I    between atoms: C_32  and  N_38 
REMARK   13  A    between atoms: CB_34  and  CG1_35 
REMARK   14  A    between atoms: CB_34  and  CG2_36 
REMARK   15  A    between atoms: CG1_35  and  CD1_37 
REMARK   16  A    between atoms: CA_39  and  C_40 
REMARK       I    between atoms: C_40  and  N_45 
REMARK   17  A    between atoms: CA_46  and  C_47 
REMARK       I    between atoms: C_47  and  N_52 
REMARK   18  A    between atoms: CA_53  and  C_54 
REMARK       I    between atoms: C_54  and  N_59 
REMARK   19  A    between atoms: CA_60  and  C_61 
ROOT
ATOM      1  CA  ILE d   1       2.842   3.964   4.262  0.00  0.00     0.092 C 
ATOM      2  H36 ILE d   1       1.763   3.752   4.259  0.00  0.00     0.088 H 
ENDROOT
BRANCH   1   3
ATOM      3  N   ILE d   1       3.032   5.380   3.990  0.00  0.00    -0.346 N 
ATOM      4  C   LEU d   1       2.226   6.278   4.531  0.00  0.00     0.241 C 
ATOM      5  O   LEU d   1       1.251   5.964   5.220  0.00  0.00    -0.271 OA
ATOM      6  H35 ILE d   1       3.776   5.676   3.391  0.00  0.00     0.163 HD
BRANCH   4   7
ATOM      7  CA  LEU d   1       2.530   7.743   4.263  0.00  0.00     0.089 C 
ATOM      8  H25 LEU d   1       3.008   7.838   3.277  0.00  0.00     0.087 H 
BRANCH   7   9
ATOM      9  N   LEU d   1       1.273   8.469   4.249  0.00  0.00    -0.346 N 
ATOM     10  C   PRO d   1       0.499   8.409   3.177  0.00  0.00     0.241 C 
ATOM     11  O   PRO d   1       0.896   7.943   2.105  0.00  0.00    -0.271 OA
ATOM     12  H24 LEU d   1       0.994   9.010   5.043  0.00  0.00     0.163 HD
BRANCH  10  13
ATOM     13  CA  PRO d   1      -0.925   8.937   3.303  0.00  0.00     0.091 C 
ATOM     14  N   PRO d   1      -1.405   9.488   2.042  0.00  0.00    -0.337 N 
ATOM     15  C   PRO d   1      -1.067  10.694   1.578  0.00  0.00     0.243 C 
ATOM     16  CD  PRO d   1      -2.301   8.557   1.368  0.00  0.00    -0.001 C 
ATOM     17  O   PRO d   1      -0.450  11.514   2.261  0.00  0.00    -0.271 OA
ATOM     18  CG  PRO d   1      -2.935   7.837   2.510  0.00  0.00    -0.048 C 
ATOM     19  H22 PRO d   1      -1.742   7.864   0.722  0.00  0.00     0.064 H 
ATOM     20  H23 PRO d   1      -3.053   9.092   0.768  0.00  0.00     0.064 H 
ATOM     21  CB  PRO d   1      -1.898   7.775   3.587  0.00  0.00    -0.036 C 
ATOM     22  H20 PRO d   1      -3.820   8.386   2.863  0.00  0.00     0.035 H 
ATOM     23  H21 PRO d   1      -3.230   6.822   2.205  0.00  0.00     0.035 H 
ATOM     24  H18 PRO d   1      -2.365   7.899   4.575  0.00  0.00     0.036 H 
ATOM     25  H19 PRO d   1      -1.366   6.813   3.551  0.00  0.00     0.036 H 
ATOM     26  H17 PRO d   1      -0.968   9.693   4.101  0.00  0.00     0.087 H 
BRANCH  15  27
ATOM     27  CA  PRO d   1      -1.497  11.018   0.149  0.00  0.00     0.092 C 
ATOM     28  N   PRO d   1      -1.775  12.437  -0.057  0.00  0.00    -0.337 N 
ATOM     29  C   PRO d   1      -2.923  12.993   0.355  0.00  0.00     0.251 C 
ATOM     30  CD  PRO d   1      -0.665  13.134  -0.727  0.00  0.00    -0.001 C 
ATOM     31  O   PRO d   1      -3.776  12.339   0.950  0.00  0.00    -0.271 OA
ATOM     32  CG  PRO d   1       0.368  12.055  -0.933  0.00  0.00    -0.048 C 
ATOM     33  H15 PRO d   1      -0.268  13.940  -0.092  0.00  0.00     0.064 H 
ATOM     34  H16 PRO d   1      -0.991  13.553  -1.690  0.00  0.00     0.064 H 
ATOM     35  CB  PRO d   1      -0.351  10.752  -0.827  0.00  0.00    -0.036 C 
ATOM     36  H13 PRO d   1       0.828  12.155  -1.927  0.00  0.00     0.035 H 
ATOM     37  H14 PRO d   1       1.147  12.123  -0.160  0.00  0.00     0.035 H 
ATOM     38  H11 PRO d   1      -0.741  10.444  -1.808  0.00  0.00     0.036 H 
ATOM     39  H12 PRO d   1       0.318   9.971  -0.436  0.00  0.00     0.036 H 
ATOM     40  H10 PRO d   1      -2.380  10.412  -0.105  0.00  0.00     0.087 H 
BRANCH  29  41
ATOM     41  CA  PRO d   1      -3.174  14.462   0.046  0.00  0.00     0.178 C 
ATOM     42  N   PRO d   1      -4.575  14.640  -0.401  0.00  0.00    -0.062 N 
ATOM     43  CD  PRO d   1      -5.077  15.828   0.306  0.00  0.00     0.083 C 
ATOM     44  H1  PRO d   1      -5.125  13.831  -0.160  0.00  0.00     0.278 HD
ATOM     45  H2  PRO d   1      -4.609  14.785  -1.398  0.00  0.00     0.278 HD
ATOM     46  CG  PRO d   1      -4.296  15.856   1.601  0.00  0.00    -0.040 C 
ATOM     47  H8  PRO d   1      -6.155  15.736   0.504  0.00  0.00     0.075 H 
ATOM     48  H9  PRO d   1      -4.888  16.739  -0.281  0.00  0.00     0.075 H 
ATOM     49  CB  PRO d   1      -2.946  15.306   1.293  0.00  0.00    -0.028 C 
ATOM     50  H6  PRO d   1      -4.210  16.888   1.971  0.00  0.00     0.035 H 
ATOM     51  H7  PRO d   1      -4.795  15.235   2.359  0.00  0.00     0.035 H 
ATOM     52  H4  PRO d   1      -2.229  16.116   1.093  0.00  0.00     0.036 H 
ATOM     53  H5  PRO d   1      -2.576  14.687   2.123  0.00  0.00     0.036 H 
ATOM     54  H3  PRO d   1      -2.488  14.790  -0.749  0.00  0.00     0.099 H 
ENDBRANCH  29  41
ENDBRANCH  15  27
ENDBRANCH  10  13
ENDBRANCH   7   9
BRANCH   7  55
ATOM     55  CB  LEU d   1       3.492   8.293   5.325  0.00  0.00    -0.035 C 
ATOM     56  H26 LEU d   1       4.221   7.504   5.562  0.00  0.00     0.037 H 
ATOM     57  H27 LEU d   1       2.904   8.530   6.224  0.00  0.00     0.037 H 
BRANCH  55  58
ATOM     58  CG  LEU d   1       4.273   9.552   4.928  0.00  0.00    -0.059 C 
ATOM     59  H28 LEU d   1       4.977   9.783   5.741  0.00  0.00     0.038 H 
BRANCH  58  60
ATOM     60  CD1 LEU d   1       5.083   9.307   3.661  0.00  0.00    -0.073 C 
ATOM     61  H29 LEU d   1       5.634  10.221   3.396  0.00  0.00     0.028 H 
ATOM     62  H30 LEU d   1       4.404   9.036   2.839  0.00  0.00     0.028 H 
ATOM     63  H31 LEU d   1       5.795   8.487   3.834  0.00  0.00     0.028 H 
ENDBRANCH  58  60
BRANCH  58  64
ATOM     64  CD2 LEU d   1       3.346  10.748   4.761  0.00  0.00    -0.073 C 
ATOM     65  H32 LEU d   1       2.775  10.902   5.689  0.00  0.00     0.028 H 
ATOM     66  H33 LEU d   1       2.651  10.560   3.929  0.00  0.00     0.028 H 
ATOM     67  H34 LEU d   1       3.942  11.647   4.545  0.00  0.00     0.028 H 
ENDBRANCH  58  64
ENDBRANCH  55  58
ENDBRANCH   7  55
ENDBRANCH   4   7
ENDBRANCH   1   3
BRANCH   1  68
ATOM     68  C   ILE d   1       3.410   3.623   5.645  0.00  0.00     0.243 C 
ATOM     69  O   ILE d   1       4.374   4.248   6.088  0.00  0.00    -0.271 OA
ATOM     70  N   PRO d   1       2.829   2.642   6.355  0.00  0.00    -0.337 N 
ATOM     71  CA  PRO d   1       3.501   2.009   7.489  0.00  0.00     0.092 C 
ATOM     72  CD  PRO d   1       1.470   2.117   6.143  0.00  0.00    -0.001 C 
ATOM     73  CB  PRO d   1       2.347   1.309   8.217  0.00  0.00    -0.036 C 
ATOM     74  H46 PRO d   1       3.987   2.755   8.136  0.00  0.00     0.087 H 
ATOM     75  CG  PRO d   1       1.354   1.008   7.150  0.00  0.00    -0.048 C 
ATOM     76  H47 PRO d   1       1.910   1.972   8.978  0.00  0.00     0.036 H 
ATOM     77  H48 PRO d   1       2.696   0.382   8.695  0.00  0.00     0.036 H 
ATOM     78  H49 PRO d   1       0.338   0.981   7.571  0.00  0.00     0.035 H 
ATOM     79  H50 PRO d   1       1.582   0.040   6.679  0.00  0.00     0.035 H 
ATOM     80  H51 PRO d   1       1.354   1.731   5.120  0.00  0.00     0.064 H 
ATOM     81  H52 PRO d   1       0.716   2.896   6.329  0.00  0.00     0.064 H 
BRANCH  71  82
ATOM     82  C   PRO d   1       4.538   0.996   6.997  0.00  0.00     0.243 C 
ATOM     83  O   PRO d   1       4.355   0.375   5.955  0.00  0.00    -0.271 OA
ATOM     84  N   PRO d   1       5.631   0.790   7.724  0.00  0.00    -0.337 N 
ATOM     85  CA  PRO d   1       6.626  -0.196   7.326  0.00  0.00     0.092 C 
ATOM     86  CD  PRO d   1       6.002   1.480   8.958  0.00  0.00    -0.001 C 
ATOM     87  CB  PRO d   1       7.870   0.194   8.139  0.00  0.00    -0.036 C 
ATOM     88  H53 PRO d   1       6.827  -0.128   6.247  0.00  0.00     0.087 H 
ATOM     89  CG  PRO d   1       7.503   1.422   8.916  0.00  0.00    -0.048 C 
ATOM     90  H54 PRO d   1       8.713   0.408   7.465  0.00  0.00     0.036 H 
ATOM     91  H55 PRO d   1       8.147  -0.621   8.824  0.00  0.00     0.036 H 
ATOM     92  H56 PRO d   1       7.902   2.318   8.418  0.00  0.00     0.035 H 
ATOM     93  H57 PRO d   1       7.908   1.359   9.937  0.00  0.00     0.035 H 
ATOM     94  H58 PRO d   1       5.607   0.957   9.841  0.00  0.00     0.064 H 
ATOM     95  H59 PRO d   1       5.643   2.520   8.957  0.00  0.00     0.064 H 
BRANCH  85  96
ATOM     96  C   PRO d   1       6.186  -1.616   7.665  0.00  0.00     0.243 C 
ATOM     97  O   PRO d   1       5.475  -1.834   8.646  0.00  0.00    -0.271 OA
ATOM     98  N   PRO d   1       6.605  -2.602   6.862  0.00  0.00    -0.337 N 
ATOM     99  CA  PRO d   1       6.404  -4.012   7.174  0.00  0.00     0.092 C 
ATOM    100  CD  PRO d   1       7.267  -2.433   5.569  0.00  0.00    -0.001 C 
ATOM    101  CB  PRO d   1       6.627  -4.726   5.828  0.00  0.00    -0.036 C 
ATOM    102  H60 PRO d   1       5.384  -4.188   7.547  0.00  0.00     0.087 H 
ATOM    103  CG  PRO d   1       6.795  -3.638   4.812  0.00  0.00    -0.048 C 
ATOM    104  H61 PRO d   1       5.758  -5.353   5.578  0.00  0.00     0.036 H 
ATOM    105  H62 PRO d   1       7.530  -5.352   5.872  0.00  0.00     0.036 H 
ATOM    106  H63 PRO d   1       5.836  -3.426   4.317  0.00  0.00     0.035 H 
ATOM    107  H64 PRO d   1       7.540  -3.931   4.058  0.00  0.00     0.035 H 
ATOM    108  H65 PRO d   1       8.362  -2.434   5.678  0.00  0.00     0.064 H 
ATOM    109  H66 PRO d   1       6.949  -1.502   5.076  0.00  0.00     0.064 H 
BRANCH  99 110
ATOM    110  C   PRO d   1       7.414  -4.494   8.210  0.00  0.00     0.243 C 
ATOM    111  O   PRO d   1       8.529  -3.971   8.274  0.00  0.00    -0.271 OA
ATOM    112  N   PRO d   1       7.032  -5.470   9.050  0.00  0.00    -0.336 N 
ATOM    113  CA  PRO d   1       7.938  -6.071  10.026  0.00  0.00     0.098 C 
ATOM    114  CD  PRO d   1       5.689  -6.053   9.141  0.00  0.00    -0.001 C 
ATOM    115  CB  PRO d   1       6.993  -6.777  11.020  0.00  0.00    -0.035 C 
ATOM    116  H67 PRO d   1       8.530  -5.295  10.534  0.00  0.00     0.089 H 
ATOM    117  CG  PRO d   1       5.598  -6.425  10.588  0.00  0.00    -0.048 C 
ATOM    118  H68 PRO d   1       7.178  -6.418  12.043  0.00  0.00     0.036 H 
ATOM    119  H69 PRO d   1       7.142  -7.866  10.981  0.00  0.00     0.036 H 
ATOM    120  H70 PRO d   1       5.220  -5.576  11.177  0.00  0.00     0.035 H 
ATOM    121  H71 PRO d   1       4.929  -7.289  10.718  0.00  0.00     0.035 H 
ATOM    122  H72 PRO d   1       5.595  -6.939   8.496  0.00  0.00     0.064 H 
ATOM    123  H73 PRO d   1       4.917  -5.318   8.870  0.00  0.00     0.064 H 
BRANCH 113 124
ATOM    124  C   PRO d   1       8.884  -7.079   9.373  0.00  0.00     0.196 C 
ATOM    125  O   PRO d   1       8.591  -8.290   9.423  0.00  0.00    -0.646 OA
ATOM    126  OXT PRO d   1       9.908  -6.654   8.795  0.00  0.00    -0.646 OA
ENDBRANCH 113 124
ENDBRANCH  99 110
ENDBRANCH  85  96
ENDBRANCH  71  82
ENDBRANCH   1  68
BRANCH   1 127
ATOM    127  CB  ILE d   1       3.525   3.063   3.181  0.00  0.00    -0.030 C 
ATOM    128  H37 ILE d   1       4.598   3.304   3.163  0.00  0.00     0.043 H 
BRANCH 127 129
ATOM    129  CG1 ILE d   1       2.950   3.285   1.786  0.00  0.00    -0.063 C 
ATOM    130  H38 ILE d   1       1.859   3.155   1.841  0.00  0.00     0.033 H 
ATOM    131  H39 ILE d   1       3.376   2.524   1.116  0.00  0.00     0.033 H 
BRANCH 129 132
ATOM    132  CD1 ILE d   1       3.233   4.651   1.189  0.00  0.00    -0.076 C 
ATOM    133  H43 ILE d   1       2.781   4.715   0.188  0.00  0.00     0.027 H 
ATOM    134  H44 ILE d   1       4.320   4.799   1.110  0.00  0.00     0.027 H 
ATOM    135  H45 ILE d   1       2.803   5.430   1.836  0.00  0.00     0.027 H 
ENDBRANCH 129 132
ENDBRANCH 127 129
BRANCH 127 136
ATOM    136  CG2 ILE d   1       3.351   1.589   3.519  0.00  0.00    -0.071 C 
ATOM    137  H40 ILE d   1       3.756   1.393   4.522  0.00  0.00     0.028 H 
ATOM    138  H41 ILE d   1       3.889   0.977   2.780  0.00  0.00     0.028 H 
ATOM    139  H42 ILE d   1       2.282   1.332   3.499  0.00  0.00     0.028 H 
ENDBRANCH 127 136
ENDBRANCH   1 127
TORSDOF 19
