REMARK WARNING: 32 MAX_TORS EXCEEDED!!!
REMARK  71 active torsions:
REMARK  status: ('A' for Active; 'I' for Inactive)
REMARK    1  A    between atoms: CA_2  and  N_1 
REMARK    2  A    between atoms: C_3  and  CA_2 
REMARK    3  A    between atoms: CA_2  and  CB_5 
REMARK       I    between atoms: N_6  and  C_3 
REMARK    4  A    between atoms: CA_7  and  N_6 
REMARK    5  A    between atoms: C_8  and  CA_7 
REMARK    6  A    between atoms: CA_7  and  CB_10 
REMARK       I    between atoms: N_17  and  C_8 
REMARK    7  A    between atoms: CB_10  and  CG_11 
REMARK    8  A    between atoms: CG_11  and  CD_12 
REMARK    9  A    between atoms: CD_12  and  NE_13 
REMARK       I    between atoms: NE_13  and  CZ_14 
REMARK       I    between atoms: CZ_14  and  NH1_15 
REMARK       I    between atoms: CZ_14  and  NH2_16 
REMARK   10  A    between atoms: CA_18  and  N_17 
REMARK   11  A    between atoms: C_19  and  CA_18 
REMARK   12  A    between atoms: CA_18  and  CB_21 
REMARK       I    between atoms: N_24  and  C_19 
REMARK   13  A    between atoms: CB_21  and  OG1_22 
REMARK   14  A    between atoms: CB_21  and  CG2_23 
REMARK   15  A    between atoms: CA_25  and  N_24 
REMARK   16  A    between atoms: C_26  and  CA_25 
REMARK   17  A    between atoms: CA_25  and  CB_28 
REMARK       I    between atoms: N_33  and  C_26 
REMARK   18  A    between atoms: CB_28  and  CG_29 
REMARK   19  A    between atoms: CG_29  and  CD_30 
REMARK   20  A    between atoms: CD_30  and  CE_31 
REMARK   21  A    between atoms: CE_31  and  NZ_32 
REMARK   22  A    between atoms: CA_34  and  N_33 
REMARK   23  A    between atoms: C_35  and  CA_34 
REMARK   24  A    between atoms: CA_34  and  CB_37 
REMARK       I    between atoms: N_42  and  C_35 
REMARK   25  A    between atoms: CB_37  and  CG_38 
REMARK   26  A    between atoms: CG_38  and  CD_39 
REMARK       I    between atoms: CD_39  and  NE2_41 
REMARK   27  A    between atoms: CA_43  and  N_42 
REMARK   28  A    between atoms: C_44  and  CA_43 
REMARK   29  A    between atoms: CA_43  and  CB_46 
REMARK       I    between atoms: N_49  and  C_44 
REMARK   30  A    between atoms: CB_46  and  OG1_47 
REMARK   31  A    between atoms: CB_46  and  CG2_48 
REMARK   32  A    between atoms: CA_50  and  N_49 
REMARK   33  A    between atoms: C_51  and  CA_50 
REMARK   34  A    between atoms: CA_50  and  CB_53 
REMARK       I    between atoms: N_54  and  C_51 
REMARK   35  A    between atoms: CA_55  and  N_54 
REMARK   36  A    between atoms: C_56  and  CA_55 
REMARK   37  A    between atoms: CA_55  and  CB_58 
REMARK       I    between atoms: N_74  and  C_56 
REMARK   38  A    between atoms: CB_58  and  CG_59 
REMARK   39  A    between atoms: CG_59  and  CD_60 
REMARK   40  A    between atoms: CD_60  and  NE_61 
REMARK       I    between atoms: NE_61  and  CZ_62 
REMARK       I    between atoms: CZ_62  and  NH1_63 
REMARK   41  A    between atoms: CH_66  and  CH3_67 
REMARK       I    between atoms: NZ_68  and  CH_66 
REMARK   42  A    between atoms: CE_69  and  NZ_68 
REMARK   43  A    between atoms: CD_70  and  CE_69 
REMARK   44  A    between atoms: CG_71  and  CD_70 
REMARK   45  A    between atoms: CB_72  and  CG_71 
REMARK   46  A    between atoms: CA_73  and  CB_72 
REMARK   47  A    between atoms: CA_73  and  N_74 
REMARK   48  A    between atoms: CA_73  and  C_75 
REMARK       I    between atoms: C_75  and  N_77 
REMARK   49  A    between atoms: N_77  and  CA_78 
REMARK   50  A    between atoms: CA_78  and  C_79 
REMARK   51  A    between atoms: CA_78  and  CB_81 
REMARK       I    between atoms: C_79  and  N_83 
REMARK   52  A    between atoms: CB_81  and  OG_82 
REMARK   53  A    between atoms: N_83  and  CA_84 
REMARK   54  A    between atoms: CA_84  and  C_85 
REMARK   55  A    between atoms: CA_84  and  CB_87 
REMARK       I    between atoms: C_85  and  N_90 
REMARK   56  A    between atoms: CB_87  and  OG1_88 
REMARK   57  A    between atoms: CB_87  and  CG2_89 
REMARK   58  A    between atoms: N_90  and  CA_91 
REMARK   59  A    between atoms: CA_91  and  C_92 
REMARK       I    between atoms: C_92  and  N_94 
REMARK   60  A    between atoms: N_94  and  CA_95 
REMARK   61  A    between atoms: CA_95  and  C_96 
REMARK       I    between atoms: C_96  and  N_98 
REMARK   62  A    between atoms: N_98  and  CA_99 
REMARK   63  A    between atoms: CA_99  and  C_100 
REMARK   64  A    between atoms: CA_99  and  CB_102 
REMARK       I    between atoms: C_100  and  N_107 
REMARK   65  A    between atoms: CB_102  and  CG_103 
REMARK   66  A    between atoms: CG_103  and  CD_104 
REMARK   67  A    between atoms: CD_104  and  CE_105 
REMARK   68  A    between atoms: CE_105  and  NZ_106 
REMARK   69  A    between atoms: N_107  and  CA_108 
REMARK   70  A    between atoms: CA_108  and  C_109 
REMARK   71  A    between atoms: CA_108  and  CB_111 
ROOT
ATOM      1  CA  ARG d   1      15.693  -0.038   2.364  0.00  0.00     0.089 C 
ATOM      2  H62 ARG d   1      16.066   0.579   3.195  0.00  0.00     0.087 H 
ENDROOT
BRANCH   1   3
ATOM      3  N   ARG d   1      14.236   0.012   2.372  0.00  0.00    -0.346 N 
ATOM      4  C   ALA d   1      13.576   1.114   2.020  0.00  0.00     0.240 C 
ATOM      5  O   ALA d   1      14.135   2.155   1.674  0.00  0.00    -0.271 OA
ATOM      6  H61 ARG d   1      13.721  -0.799   2.648  0.00  0.00     0.163 HD
BRANCH   4   7
ATOM      7  CA  ALA d   1      12.058   1.033   2.077  0.00  0.00     0.086 C 
ATOM      8  H57 ALA d   1      11.761  -0.026   2.048  0.00  0.00     0.086 H 
BRANCH   7   9
ATOM      9  N   ALA d   1      11.571   1.617   3.324  0.00  0.00    -0.346 N 
ATOM     10  C   THR d   1      11.970   1.151   4.507  0.00  0.00     0.243 C 
ATOM     11  O   THR d   1      12.746   0.202   4.625  0.00  0.00    -0.271 OA
ATOM     12  H56 ALA d   1      10.926   2.381   3.289  0.00  0.00     0.163 HD
BRANCH  10  13
ATOM     13  CA  THR d   1      11.409   1.849   5.743  0.00  0.00     0.113 C 
ATOM     14  H50 THR d   1      12.227   1.980   6.466  0.00  0.00     0.091 H 
BRANCH  13  15
ATOM     15  N   THR d   1      10.883   3.169   5.419  0.00  0.00    -0.344 N 
ATOM     16  C   GLN d   1      11.191   4.237   6.148  0.00  0.00     0.241 C 
ATOM     17  O   GLN d   1      11.932   4.186   7.130  0.00  0.00    -0.271 OA
ATOM     18  H49 THR d   1      10.277   3.274   4.631  0.00  0.00     0.163 HD
BRANCH  16  19
ATOM     19  CA  GLN d   1      10.574   5.560   5.706  0.00  0.00     0.090 C 
ATOM     20  H42 GLN d   1       9.482   5.494   5.819  0.00  0.00     0.087 H 
BRANCH  19  21
ATOM     21  N   GLN d   1      11.060   6.655   6.539  0.00  0.00    -0.346 N 
ATOM     22  C   LYS d   1      10.566   6.876   7.754  0.00  0.00     0.241 C 
ATOM     23  O   LYS d   1       9.673   6.188   8.248  0.00  0.00    -0.271 OA
ATOM     24  H41 GLN d   1      11.781   7.253   6.188  0.00  0.00     0.163 HD
BRANCH  22  25
ATOM     25  CA  LYS d   1      11.168   8.049   8.524  0.00  0.00     0.089 C 
ATOM     26  H29 LYS d   1      12.261   8.019   8.405  0.00  0.00     0.087 H 
BRANCH  25  27
ATOM     27  N   LYS d   1      10.683   9.323   8.004  0.00  0.00    -0.346 N 
ATOM     28  C   THR d   1      11.495  10.176   7.386  0.00  0.00     0.243 C 
ATOM     29  O   THR d   1      12.693   9.954   7.211  0.00  0.00    -0.271 OA
ATOM     30  H28 LYS d   1       9.718   9.560   8.115  0.00  0.00     0.163 HD
BRANCH  28  31
ATOM     31  CA  THR d   1      10.862  11.473   6.894  0.00  0.00     0.113 C 
ATOM     32  H22 THR d   1       9.958  11.671   7.488  0.00  0.00     0.091 H 
BRANCH  31  33
ATOM     33  N   THR d   1      11.776  12.596   7.066  0.00  0.00    -0.344 N 
ATOM     34  C   ARG d   1      11.713  13.391   8.131  0.00  0.00     0.241 C 
ATOM     35  O   ARG d   1      10.889  13.238   9.033  0.00  0.00    -0.271 OA
ATOM     36  H21 THR d   1      12.468  12.773   6.366  0.00  0.00     0.163 HD
BRANCH  34  37
ATOM     37  CA  ARG d   1      12.730  14.527   8.184  0.00  0.00     0.089 C 
ATOM     38  H9  ARG d   1      13.694  14.115   8.518  0.00  0.00     0.087 H 
BRANCH  37  39
ATOM     39  N   ARG d   1      12.918  15.122   6.863  0.00  0.00    -0.346 N 
ATOM     40  C   ALA d   1      11.900  15.622   6.168  0.00  0.00     0.248 C 
ATOM     41  O   ALA d   1      10.739  15.620   6.579  0.00  0.00    -0.271 OA
ATOM     42  H8  ARG d   1      13.837  15.154   6.471  0.00  0.00     0.163 HD
BRANCH  40  43
ATOM     43  CA  ALA d   1      12.242  16.211   4.804  0.00  0.00     0.172 C 
ATOM     44  H4  ALA d   1      12.674  15.414   4.182  0.00  0.00     0.098 H 
BRANCH  43  45
ATOM     45  N   ALA d   1      11.026  16.726   4.125  0.00  0.00    -0.067 N 
ATOM     46  H1  ALA d   1      11.279  17.109   3.228  0.00  0.00     0.275 HD
ATOM     47  H2  ALA d   1      10.605  17.446   4.691  0.00  0.00     0.275 HD
ATOM     48  H3  ALA d   1      10.369  15.973   3.995  0.00  0.00     0.275 HD
ENDBRANCH  43  45
BRANCH  43  49
ATOM     49  CB  ALA d   1      13.274  17.320   4.951  0.00  0.00    -0.042 C 
ATOM     50  H5  ALA d   1      14.168  16.924   5.455  0.00  0.00     0.030 H 
ATOM     51  H6  ALA d   1      12.849  18.140   5.549  0.00  0.00     0.030 H 
ATOM     52  H7  ALA d   1      13.551  17.697   3.956  0.00  0.00     0.030 H 
ENDBRANCH  43  49
ENDBRANCH  40  43
ENDBRANCH  37  39
BRANCH  37  53
ATOM     53  CB  ARG d   1      12.282  15.589   9.190  0.00  0.00    -0.036 C 
ATOM     54  H10 ARG d   1      12.045  15.089  10.141  0.00  0.00     0.036 H 
ATOM     55  H11 ARG d   1      11.378  16.079   8.799  0.00  0.00     0.036 H 
BRANCH  53  56
ATOM     56  CG  ARG d   1      13.330  16.657   9.457  0.00  0.00    -0.048 C 
ATOM     57  H12 ARG d   1      13.608  17.131   8.504  0.00  0.00     0.035 H 
ATOM     58  H13 ARG d   1      14.217  16.184   9.903  0.00  0.00     0.035 H 
BRANCH  56  59
ATOM     59  CD  ARG d   1      12.810  17.724  10.406  0.00  0.00     0.009 C 
ATOM     60  H14 ARG d   1      13.610  18.456  10.591  0.00  0.00     0.064 H 
ATOM     61  H15 ARG d   1      12.523  17.247  11.355  0.00  0.00     0.064 H 
BRANCH  59  62
ATOM     62  NE  ARG d   1      11.650  18.422   9.860  0.00  0.00    -0.227 N 
ATOM     63  CZ  ARG d   1      10.946  19.326  10.535  0.00  0.00     0.665 C 
ATOM     64  NH1 ARG d   1      11.280  19.642  11.779  0.00  0.00    -0.235 N 
ATOM     65  NH2 ARG d   1       9.904  19.917   9.964  0.00  0.00    -0.235 N 
ATOM     66  H17 ARG d   1      10.731  20.343  12.297  0.00  0.00     0.174 HD
ATOM     67  H18 ARG d   1      12.088  19.187  12.227  0.00  0.00     0.174 HD
ATOM     68  H19 ARG d   1       9.640  19.675   8.998  0.00  0.00     0.174 HD
ATOM     69  H20 ARG d   1       9.359  20.617  10.487  0.00  0.00     0.174 HD
ATOM     70  H16 ARG d   1      11.360  18.202   8.896  0.00  0.00     0.177 HD
ENDBRANCH  59  62
ENDBRANCH  56  59
ENDBRANCH  53  56
ENDBRANCH  37  53
ENDBRANCH  34  37
ENDBRANCH  31  33
BRANCH  31  71
ATOM     71  CB  THR d   1      10.453  11.307   5.418  0.00  0.00     0.060 C 
ATOM     72  H23 THR d   1      11.341  11.017   4.837  0.00  0.00     0.086 H 
BRANCH  71  73
ATOM     73  OG1 THR d   1       9.947  12.546   4.907  0.00  0.00    -0.393 OA
ATOM     74  H24 THR d   1       9.698  12.434   3.997  0.00  0.00     0.210 HD
ENDBRANCH  71  73
BRANCH  71  75
ATOM     75  CG2 THR d   1       9.394  10.224   5.266  0.00  0.00    -0.050 C 
ATOM     76  H25 THR d   1       9.120  10.126   4.205  0.00  0.00     0.031 H 
ATOM     77  H26 THR d   1       8.503  10.497   5.851  0.00  0.00     0.031 H 
ATOM     78  H27 THR d   1       9.793   9.267   5.632  0.00  0.00     0.031 H 
ENDBRANCH  71  75
ENDBRANCH  31  71
ENDBRANCH  28  31
ENDBRANCH  25  27
BRANCH  25  79
ATOM     79  CB  LYS d   1      10.834   7.926  10.014  0.00  0.00    -0.038 C 
ATOM     80  H30 LYS d   1       9.740   7.904  10.124  0.00  0.00     0.036 H 
ATOM     81  H31 LYS d   1      11.237   8.807  10.534  0.00  0.00     0.036 H 
BRANCH  79  82
ATOM     82  CG  LYS d   1      11.408   6.678  10.667  0.00  0.00    -0.061 C 
ATOM     83  H32 LYS d   1      12.504   6.696  10.571  0.00  0.00     0.033 H 
ATOM     84  H33 LYS d   1      11.009   5.790  10.154  0.00  0.00     0.033 H 
BRANCH  82  85
ATOM     85  CD  LYS d   1      11.042   6.603  12.141  0.00  0.00    -0.043 C 
ATOM     86  H34 LYS d   1       9.946   6.607  12.238  0.00  0.00     0.035 H 
ATOM     87  H35 LYS d   1      11.460   7.479  12.659  0.00  0.00     0.035 H 
BRANCH  85  88
ATOM     88  CE  LYS d   1      11.591   5.340  12.785  0.00  0.00     0.080 C 
ATOM     89  H36 LYS d   1      12.687   5.338  12.685  0.00  0.00     0.075 H 
ATOM     90  H37 LYS d   1      11.174   4.465  12.265  0.00  0.00     0.075 H 
BRANCH  88  91
ATOM     91  NZ  LYS d   1      11.239   5.254  14.229  0.00  0.00    -0.079 N 
ATOM     92  H38 LYS d   1      11.620   4.406  14.618  0.00  0.00     0.274 HD
ATOM     93  H39 LYS d   1      10.236   5.249  14.331  0.00  0.00     0.274 HD
ATOM     94  H40 LYS d   1      11.623   6.049  14.716  0.00  0.00     0.274 HD
ENDBRANCH  88  91
ENDBRANCH  85  88
ENDBRANCH  82  85
ENDBRANCH  79  82
ENDBRANCH  25  79
ENDBRANCH  22  25
ENDBRANCH  19  21
BRANCH  19  95
ATOM     95  CB  GLN d   1      10.898   5.820   4.233  0.00  0.00    -0.030 C 
ATOM     96  H43 GLN d   1      10.487   6.801   3.955  0.00  0.00     0.037 H 
ATOM     97  H44 GLN d   1      10.418   5.037   3.628  0.00  0.00     0.037 H 
BRANCH  95  98
ATOM     98  CG  GLN d   1      12.387   5.819   3.926  0.00  0.00     0.011 C 
ATOM     99  H45 GLN d   1      12.844   4.938   4.400  0.00  0.00     0.047 H 
ATOM    100  H46 GLN d   1      12.834   6.733   4.345  0.00  0.00     0.047 H 
BRANCH  98 101
ATOM    101  CD  GLN d   1      12.677   5.775   2.436  0.00  0.00     0.215 C 
ATOM    102  OE1 GLN d   1      13.693   5.228   2.008  0.00  0.00    -0.274 OA
ATOM    103  NE2 GLN d   1      11.786   6.355   1.638  0.00  0.00    -0.370 N 
ATOM    104  H47 GLN d   1      11.927   6.356   0.648  0.00  0.00     0.159 HD
ATOM    105  H48 GLN d   1      10.975   6.791   2.028  0.00  0.00     0.159 HD
ENDBRANCH  98 101
ENDBRANCH  95  98
ENDBRANCH  19  95
ENDBRANCH  16  19
ENDBRANCH  13  15
BRANCH  13 106
ATOM    106  CB  THR d   1      10.334   0.955   6.387  0.00  0.00     0.060 C 
ATOM    107  H51 THR d   1      10.131   1.327   7.402  0.00  0.00     0.086 H 
BRANCH 106 108
ATOM    108  OG1 THR d   1      10.804  -0.396   6.475  0.00  0.00    -0.393 OA
ATOM    109  H52 THR d   1      10.998  -0.720   5.603  0.00  0.00     0.210 HD
ENDBRANCH 106 108
BRANCH 106 110
ATOM    110  CG2 THR d   1       9.044   1.000   5.586  0.00  0.00    -0.050 C 
ATOM    111  H53 THR d   1       8.293   0.355   6.065  0.00  0.00     0.031 H 
ATOM    112  H54 THR d   1       9.235   0.644   4.563  0.00  0.00     0.031 H 
ATOM    113  H55 THR d   1       8.670   2.034   5.550  0.00  0.00     0.031 H 
ENDBRANCH 106 110
ENDBRANCH  13 106
ENDBRANCH  10  13
ENDBRANCH   7   9
BRANCH   7 114
ATOM    114  CB  ALA d   1      11.446   1.740   0.872  0.00  0.00    -0.049 C 
ATOM    115  H58 ALA d   1      11.827   1.284  -0.053  0.00  0.00     0.030 H 
ATOM    116  H59 ALA d   1      11.719   2.805   0.894  0.00  0.00     0.030 H 
ATOM    117  H60 ALA d   1      10.351   1.641   0.906  0.00  0.00     0.030 H 
ENDBRANCH   7 114
ENDBRANCH   4   7
ENDBRANCH   1   3
BRANCH   1 118
ATOM    118  C   ARG d   1      16.240   0.527   1.060  0.00  0.00     0.241 C 
ATOM    119  O   ARG d   1      17.327   1.102   1.040  0.00  0.00    -0.271 OA
ATOM    120  N   ALY d   1      15.466   0.369  -0.018  0.00  0.00    -0.346 N 
ATOM    121  H87 ALY d   1      14.591  -0.104   0.081  0.00  0.00     0.163 HD
BRANCH 120 122
ATOM    122  CA  ALY d   1      15.855   0.864  -1.335  0.00  0.00     0.089 C 
ATOM    123  H86 ALY d   1      15.197   0.400  -2.085  0.00  0.00     0.087 H 
BRANCH 122 124
ATOM    124  CB  ALY d   1      15.653   2.371  -1.392  0.00  0.00    -0.038 C 
ATOM    125  H84 ALY d   1      16.061   2.810  -0.470  0.00  0.00     0.036 H 
ATOM    126  H85 ALY d   1      16.205   2.762  -2.260  0.00  0.00     0.036 H 
BRANCH 124 127
ATOM    127  CG  ALY d   1      14.187   2.796  -1.521  0.00  0.00    -0.061 C 
ATOM    128  H82 ALY d   1      13.718   2.744  -0.527  0.00  0.00     0.033 H 
ATOM    129  H83 ALY d   1      14.153   3.832  -1.889  0.00  0.00     0.033 H 
BRANCH 127 130
ATOM    130  CD  ALY d   1      13.393   1.909  -2.483  0.00  0.00    -0.050 C 
ATOM    131  H80 ALY d   1      13.731   2.107  -3.511  0.00  0.00     0.035 H 
ATOM    132  H81 ALY d   1      13.582   0.855  -2.232  0.00  0.00     0.035 H 
BRANCH 130 133
ATOM    133  CE  ALY d   1      11.893   2.176  -2.397  0.00  0.00    -0.005 C 
ATOM    134  H78 ALY d   1      11.706   2.897  -1.587  0.00  0.00     0.064 H 
ATOM    135  H79 ALY d   1      11.553   2.602  -3.353  0.00  0.00     0.064 H 
BRANCH 133 136
ATOM    136  NZ  ALY d   1      11.133   0.952  -2.126  0.00  0.00    -0.361 N 
ATOM    137  CH  ALY d   1       9.842   0.780  -2.424  0.00  0.00     0.213 C 
ATOM    138  OH  ALY d   1       9.413  -0.300  -2.827  0.00  0.00    -0.274 OA
ATOM    139  H77 ALY d   1      11.614   0.193  -1.688  0.00  0.00     0.162 HD
BRANCH 137 140
ATOM    140  CH3 ALY d   1       8.829   1.884  -2.079  0.00  0.00    -0.003 C 
ATOM    141  H74 ALY d   1       9.366   2.780  -1.736  0.00  0.00     0.040 H 
ATOM    142  H75 ALY d   1       8.159   1.531  -1.281  0.00  0.00     0.040 H 
ATOM    143  H76 ALY d   1       8.237   2.131  -2.973  0.00  0.00     0.040 H 
ENDBRANCH 137 140
ENDBRANCH 133 136
ENDBRANCH 130 133
ENDBRANCH 127 130
ENDBRANCH 124 127
ENDBRANCH 122 124
BRANCH 122 144
ATOM    144  C   ALY d   1      17.294   0.484  -1.675  0.00  0.00     0.241 C 
ATOM    145  O   ALY d   1      17.527  -0.512  -2.360  0.00  0.00    -0.271 OA
ATOM    146  N   SER d   1      18.252   1.282  -1.203  0.00  0.00    -0.344 N 
ATOM    147  H88 SER d   1      17.994   2.081  -0.659  0.00  0.00     0.163 HD
BRANCH 146 148
ATOM    148  CA  SER d   1      19.670   1.025  -1.456  0.00  0.00     0.109 C 
ATOM    149  H89 SER d   1      19.902   1.342  -2.483  0.00  0.00     0.090 H 
BRANCH 148 150
ATOM    150  C   SER d   1      19.995  -0.459  -1.323  0.00  0.00     0.243 C 
ATOM    151  O   SER d   1      19.719  -1.076  -0.294  0.00  0.00    -0.271 OA
ATOM    152  N   THR d   1      20.582  -1.023  -2.376  0.00  0.00    -0.344 N 
ATOM    153  H93 THR d   1      20.780  -0.462  -3.180  0.00  0.00     0.163 HD
BRANCH 152 154
ATOM    154  CA  THR d   1      20.944  -2.435  -2.391  0.00  0.00     0.113 C 
ATOM    155  H94 THR d   1      20.017  -3.025  -2.339  0.00  0.00     0.091 H 
BRANCH 154 156
ATOM    156  C   THR d   1      21.817  -2.799  -1.194  0.00  0.00     0.243 C 
ATOM    157  O   THR d   1      22.890  -2.227  -0.999  0.00  0.00    -0.271 OA
ATOM    158  N   GLY d   1      21.347  -3.755  -0.398  0.00  0.00    -0.350 N 
ATOM    159 0H10 GLY d   1      20.469  -4.185  -0.609  0.00  0.00     0.163 HD
BRANCH 158 160
ATOM    160  CA  GLY d   1      22.090  -4.183   0.772  0.00  0.00     0.069 C 
ATOM    161 1H10 GLY d   1      21.921  -3.458   1.582  0.00  0.00     0.078 H 
ATOM    162 2H10 GLY d   1      23.160  -4.208   0.520  0.00  0.00     0.078 H 
BRANCH 160 163
ATOM    163  C   GLY d   1      21.671  -5.558   1.254  0.00  0.00     0.235 C 
ATOM    164  O   GLY d   1      22.485  -6.307   1.795  0.00  0.00    -0.272 OA
ATOM    165  N   GLY d   1      20.399  -5.890   1.056  0.00  0.00    -0.351 N 
ATOM    166 3H10 GLY d   1      19.783  -5.241   0.609  0.00  0.00     0.163 HD
BRANCH 165 167
ATOM    167  CA  GLY d   1      19.893  -7.184   1.481  0.00  0.00     0.069 C 
ATOM    168 4H10 GLY d   1      20.396  -7.469   2.417  0.00  0.00     0.078 H 
ATOM    169 5H10 GLY d   1      20.122  -7.925   0.701  0.00  0.00     0.078 H 
BRANCH 167 170
ATOM    170  C   GLY d   1      18.394  -7.176   1.718  0.00  0.00     0.236 C 
ATOM    171  O   GLY d   1      17.926  -6.686   2.744  0.00  0.00    -0.272 OA
ATOM    172  N   LYS d   1      17.645  -7.724   0.766  0.00  0.00    -0.346 N 
ATOM    173 6H10 LYS d   1      18.091  -8.107  -0.043  0.00  0.00     0.163 HD
BRANCH 172 174
ATOM    174  CA  LYS d   1      16.190  -7.783   0.867  0.00  0.00     0.089 C 
ATOM    175 7H10 LYS d   1      15.917  -7.799   1.932  0.00  0.00     0.087 H 
BRANCH 174 176
ATOM    176  C   LYS d   1      15.656  -9.053   0.215  0.00  0.00     0.241 C 
ATOM    177  O   LYS d   1      15.752  -9.227  -0.998  0.00  0.00    -0.271 OA
ATOM    178  N   ALA d   1      15.102  -9.942   1.037  0.00  0.00    -0.345 N 
ATOM    179 9H11 ALA d   1      15.061  -9.740   2.015  0.00  0.00     0.163 HD
BRANCH 178 180
ATOM    180  CA  ALA d   1      14.554 -11.202   0.549  0.00  0.00     0.093 C 
ATOM    181 0H12 ALA d   1      13.871 -10.982  -0.285  0.00  0.00     0.089 H 
BRANCH 180 182
ATOM    182  C   ALA d   1      13.762 -11.914   1.642  0.00  0.00     0.196 C 
ATOM    183  O   ALA d   1      14.381 -12.659   2.429  0.00  0.00    -0.646 OA
ATOM    184  OXT ALA d   1      12.529 -11.719   1.701  0.00  0.00    -0.646 OA
ENDBRANCH 180 182
BRANCH 180 185
ATOM    185  CB  ALA d   1      15.669 -12.100   0.035  0.00  0.00    -0.048 C 
ATOM    186 1H12 ALA d   1      15.240 -13.045  -0.329  0.00  0.00     0.030 H 
ATOM    187 2H12 ALA d   1      16.377 -12.309   0.851  0.00  0.00     0.030 H 
ATOM    188 3H12 ALA d   1      16.196 -11.595  -0.788  0.00  0.00     0.030 H 
ENDBRANCH 180 185
ENDBRANCH 178 180
ENDBRANCH 174 176
BRANCH 174 189
ATOM    189  CB  LYS d   1      15.561  -6.547   0.226  0.00  0.00    -0.038 C 
ATOM    190 8H10 LYS d   1      15.128  -6.837  -0.743  0.00  0.00     0.036 H 
ATOM    191 9H10 LYS d   1      16.349  -5.796   0.065  0.00  0.00     0.036 H 
BRANCH 189 192
ATOM    192  CG  LYS d   1      14.466  -5.925   1.080  0.00  0.00    -0.061 C 
ATOM    193 0H11 LYS d   1      13.757  -6.711   1.380  0.00  0.00     0.033 H 
ATOM    194 1H11 LYS d   1      13.939  -5.163   0.486  0.00  0.00     0.033 H 
BRANCH 192 195
ATOM    195  CD  LYS d   1      15.035  -5.270   2.330  0.00  0.00    -0.043 C 
ATOM    196 2H11 LYS d   1      15.211  -4.204   2.125  0.00  0.00     0.035 H 
ATOM    197 3H11 LYS d   1      15.988  -5.757   2.586  0.00  0.00     0.035 H 
BRANCH 195 198
ATOM    198  CE  LYS d   1      14.086  -5.395   3.509  0.00  0.00     0.080 C 
ATOM    199 4H11 LYS d   1      13.092  -5.034   3.205  0.00  0.00     0.075 H 
ATOM    200 5H11 LYS d   1      14.464  -4.777   4.337  0.00  0.00     0.075 H 
BRANCH 198 201
ATOM    201  NZ  LYS d   1      13.964  -6.805   3.978  0.00  0.00    -0.079 N 
ATOM    202 6H11 LYS d   1      13.328  -6.846   4.759  0.00  0.00     0.274 HD
ATOM    203 7H11 LYS d   1      14.869  -7.143   4.264  0.00  0.00     0.274 HD
ATOM    204 8H11 LYS d   1      13.613  -7.379   3.228  0.00  0.00     0.274 HD
ENDBRANCH 198 201
ENDBRANCH 195 198
ENDBRANCH 192 195
ENDBRANCH 189 192
ENDBRANCH 174 189
ENDBRANCH 172 174
ENDBRANCH 167 170
ENDBRANCH 165 167
ENDBRANCH 160 163
ENDBRANCH 158 160
ENDBRANCH 154 156
BRANCH 154 205
ATOM    205  CB  THR d   1      21.688  -2.806  -3.687  0.00  0.00     0.060 C 
ATOM    206  H95 THR d   1      21.911  -3.883  -3.671  0.00  0.00     0.086 H 
BRANCH 205 207
ATOM    207  OG1 THR d   1      22.919  -2.078  -3.772  0.00  0.00    -0.393 OA
ATOM    208  H96 THR d   1      23.465  -2.293  -3.025  0.00  0.00     0.210 HD
ENDBRANCH 205 207
BRANCH 205 209
ATOM    209  CG2 THR d   1      20.829  -2.501  -4.906  0.00  0.00    -0.050 C 
ATOM    210  H97 THR d   1      21.379  -2.773  -5.819  0.00  0.00     0.031 H 
ATOM    211  H98 THR d   1      20.591  -1.427  -4.928  0.00  0.00     0.031 H 
ATOM    212  H99 THR d   1      19.897  -3.082  -4.852  0.00  0.00     0.031 H 
ENDBRANCH 205 209
ENDBRANCH 154 205
ENDBRANCH 152 154
ENDBRANCH 148 150
BRANCH 148 213
ATOM    213  CB  SER d   1      20.534   1.833  -0.487  0.00  0.00     0.044 C 
ATOM    214  H90 SER d   1      20.273   1.555   0.545  0.00  0.00     0.077 H 
ATOM    215  H91 SER d   1      20.337   2.905  -0.639  0.00  0.00     0.077 H 
BRANCH 213 216
ATOM    216  OG  SER d   1      21.912   1.581  -0.699  0.00  0.00    -0.398 OA
ATOM    217  H92 SER d   1      22.425   2.094  -0.086  0.00  0.00     0.209 HD
ENDBRANCH 213 216
ENDBRANCH 148 213
ENDBRANCH 146 148
ENDBRANCH 122 144
ENDBRANCH 120 122
ENDBRANCH   1 118
BRANCH   1 218
ATOM    218  CB  ARG d   1      16.187  -1.473   2.565  0.00  0.00    -0.036 C 
ATOM    219  H63 ARG d   1      17.286  -1.472   2.515  0.00  0.00     0.036 H 
ATOM    220  H64 ARG d   1      15.784  -2.096   1.753  0.00  0.00     0.036 H 
BRANCH 218 221
ATOM    221  CG  ARG d   1      15.768  -2.085   3.892  0.00  0.00    -0.048 C 
ATOM    222  H65 ARG d   1      15.959  -3.168   3.862  0.00  0.00     0.035 H 
ATOM    223  H66 ARG d   1      14.693  -1.906   4.044  0.00  0.00     0.035 H 
BRANCH 221 224
ATOM    224  CD  ARG d   1      16.538  -1.481   5.055  0.00  0.00     0.009 C 
ATOM    225  H67 ARG d   1      16.353  -0.397   5.079  0.00  0.00     0.064 H 
ATOM    226  H68 ARG d   1      17.612  -1.667   4.905  0.00  0.00     0.064 H 
BRANCH 224 227
ATOM    227  NE  ARG d   1      16.134  -2.057   6.335  0.00  0.00    -0.227 N 
ATOM    228  CZ  ARG d   1      16.841  -1.936   7.455  0.00  0.00     0.665 C 
ATOM    229  NH1 ARG d   1      17.988  -1.270   7.455  0.00  0.00    -0.235 N 
ATOM    230  NH2 ARG d   1      16.401  -2.486   8.579  0.00  0.00    -0.235 N 
ATOM    231  H70 ARG d   1      18.531  -1.180   8.325  0.00  0.00     0.174 HD
ATOM    232  H71 ARG d   1      18.336  -0.843   6.585  0.00  0.00     0.174 HD
ATOM    233  H72 ARG d   1      15.511  -3.004   8.585  0.00  0.00     0.174 HD
ATOM    234  H73 ARG d   1      16.949  -2.395   9.446  0.00  0.00     0.174 HD
ATOM    235  H69 ARG d   1      15.252  -2.587   6.372  0.00  0.00     0.177 HD
ENDBRANCH 224 227
ENDBRANCH 221 224
ENDBRANCH 218 221
ENDBRANCH   1 218
TORSDOF 71
