REMARK WARNING: 32 MAX_TORS EXCEEDED!!!
REMARK  60 active torsions:
REMARK  status: ('A' for Active; 'I' for Inactive)
REMARK    1  A    between atoms: CA_2  and  N_1 
REMARK    2  A    between atoms: C_3  and  CA_2 
REMARK    3  A    between atoms: CA_2  and  CB_5 
REMARK       I    between atoms: N_7  and  C_3 
REMARK    4  A    between atoms: CB_5  and  OG_6 
REMARK    5  A    between atoms: CA_8  and  N_7 
REMARK    6  A    between atoms: C_9  and  CA_8 
REMARK    7  A    between atoms: CA_8  and  CB_11 
REMARK       I    between atoms: N_14  and  C_9 
REMARK    8  A    between atoms: CB_11  and  OG1_12 
REMARK    9  A    between atoms: CB_11  and  CG2_13 
REMARK   10  A    between atoms: CA_15  and  N_14 
REMARK   11  A    between atoms: C_16  and  CA_15 
REMARK       I    between atoms: N_18  and  C_16 
REMARK   12  A    between atoms: CA_19  and  N_18 
REMARK   13  A    between atoms: C_20  and  CA_19 
REMARK       I    between atoms: N_22  and  C_20 
REMARK   14  A    between atoms: CA_23  and  N_22 
REMARK   15  A    between atoms: C_24  and  CA_23 
REMARK   16  A    between atoms: CA_23  and  CB_26 
REMARK       I    between atoms: N_38  and  C_24 
REMARK   17  A    between atoms: CB_26  and  CG1_27 
REMARK   18  A    between atoms: CB_26  and  CG2_28 
REMARK   19  A    between atoms: CH_30  and  CH3_31 
REMARK       I    between atoms: NZ_32  and  CH_30 
REMARK   20  A    between atoms: CE_33  and  NZ_32 
REMARK   21  A    between atoms: CD_34  and  CE_33 
REMARK   22  A    between atoms: CG_35  and  CD_34 
REMARK   23  A    between atoms: CB_36  and  CG_35 
REMARK   24  A    between atoms: CA_37  and  CB_36 
REMARK   25  A    between atoms: CA_37  and  N_38 
REMARK   26  A    between atoms: CA_37  and  C_39 
REMARK       I    between atoms: C_39  and  N_41 
REMARK   27  A    between atoms: N_41  and  CA_42 
REMARK   28  A    between atoms: CA_42  and  C_43 
REMARK   29  A    between atoms: CA_42  and  CB_45 
REMARK       I    between atoms: C_43  and  N_50 
REMARK   30  A    between atoms: CB_45  and  CG_46 
REMARK   31  A    between atoms: CG_46  and  CD_47 
REMARK   32  A    between atoms: CD_47  and  CE_48 
REMARK   33  A    between atoms: CE_48  and  NZ_49 
REMARK   34  A    between atoms: CA_51  and  C_52 
REMARK       I    between atoms: C_52  and  N_57 
REMARK   35  A    between atoms: N_57  and  CA_58 
REMARK   36  A    between atoms: CA_58  and  C_59 
REMARK   37  A    between atoms: CA_58  and  CB_61 
REMARK       I    between atoms: C_59  and  N_67 
REMARK   38  A    between atoms: CB_61  and  CG_62 
REMARK   39  A    between atoms: N_67  and  CA_68 
REMARK   40  A    between atoms: CA_68  and  C_69 
REMARK   41  A    between atoms: CA_68  and  CB_71 
REMARK       I    between atoms: C_69  and  N_78 
REMARK   42  A    between atoms: CB_71  and  CG_72 
REMARK   43  A    between atoms: CG_72  and  CD_73 
REMARK   44  A    between atoms: CD_73  and  NE_74 
REMARK       I    between atoms: NE_74  and  CZ_75 
REMARK       I    between atoms: CZ_75  and  NH1_76 
REMARK   45  A    between atoms: N_78  and  CA_79 
REMARK   46  A    between atoms: CA_79  and  C_80 
REMARK   47  A    between atoms: CA_79  and  CB_82 
REMARK       I    between atoms: C_80  and  N_90 
REMARK   48  A    between atoms: CB_82  and  CG_83 
REMARK   49  A    between atoms: CZ_88  and  OH_89 
REMARK   50  A    between atoms: N_90  and  CA_91 
REMARK   51  A    between atoms: CA_91  and  C_92 
REMARK   52  A    between atoms: CA_91  and  CB_94 
REMARK       I    between atoms: C_92  and  N_99 
REMARK   53  A    between atoms: CB_94  and  CG_95 
REMARK   54  A    between atoms: CG_95  and  CD_96 
REMARK   55  A    between atoms: CD_96  and  CE_97 
REMARK   56  A    between atoms: CE_97  and  NZ_98 
REMARK   57  A    between atoms: N_99  and  CA_100 
REMARK   58  A    between atoms: CA_100  and  C_101 
REMARK   59  A    between atoms: CA_100  and  CB_103 
REMARK   60  A    between atoms: CB_103  and  SG_104 
ROOT
ATOM      1  C   LYS d   1      17.794   2.825  -5.687  0.00  0.00     0.243 C 
ATOM      2  O   LYS d   1      17.417   3.471  -4.716  0.00  0.00    -0.271 OA
ATOM      3  N   PRO d   1      18.642   1.780  -5.581  0.00  0.00    -0.337 N 
ATOM      4  CA  PRO d   1      19.170   1.290  -4.317  0.00  0.00     0.091 C 
ATOM      5  CB  PRO d   1      20.571   0.857  -4.726  0.00  0.00    -0.036 C 
ATOM      6  CG  PRO d   1      20.392   0.294  -6.099  0.00  0.00    -0.048 C 
ATOM      7  CD  PRO d   1      19.197   1.000  -6.705  0.00  0.00    -0.001 C 
ATOM      8  H57 PRO d   1      18.579   0.438  -3.951  0.00  0.00     0.087 H 
ATOM      9  H58 PRO d   1      20.960   0.092  -4.038  0.00  0.00     0.036 H 
ATOM     10  H59 PRO d   1      21.256   1.717  -4.743  0.00  0.00     0.036 H 
ATOM     11  H60 PRO d   1      20.205  -0.789  -6.044  0.00  0.00     0.035 H 
ATOM     12  H61 PRO d   1      21.291   0.480  -6.706  0.00  0.00     0.035 H 
ATOM     13  H62 PRO d   1      19.508   1.663  -7.526  0.00  0.00     0.064 H 
ATOM     14  H63 PRO d   1      18.461   0.273  -7.079  0.00  0.00     0.064 H 
ENDROOT
BRANCH   1  15
ATOM     15  CA  LYS d   1      17.311   3.175  -7.090  0.00  0.00     0.089 C 
ATOM     16  H45 LYS d   1      18.194   3.296  -7.734  0.00  0.00     0.087 H 
BRANCH  15  17
ATOM     17  N   LYS d   1      16.489   2.095  -7.638  0.00  0.00    -0.346 N 
ATOM     18  C   ALY d   1      15.930   1.141  -6.875  0.00  0.00     0.241 C 
ATOM     19  O   ALY d   1      16.057   1.080  -5.653  0.00  0.00    -0.271 OA
ATOM     20  H44 LYS d   1      16.337   2.066  -8.626  0.00  0.00     0.163 HD
BRANCH  18  21
ATOM     21  CA  ALY d   1      15.096   0.107  -7.627  0.00  0.00     0.089 C 
ATOM     22  H42 ALY d   1      14.150   0.586  -7.921  0.00  0.00     0.087 H 
BRANCH  21  23
ATOM     23  CB  ALY d   1      14.751  -1.090  -6.726  0.00  0.00    -0.038 C 
ATOM     24  H40 ALY d   1      14.141  -1.800  -7.303  0.00  0.00     0.036 H 
ATOM     25  H41 ALY d   1      15.687  -1.578  -6.416  0.00  0.00     0.036 H 
BRANCH  23  26
ATOM     26  CG  ALY d   1      13.986  -0.690  -5.494  0.00  0.00    -0.061 C 
ATOM     27  H38 ALY d   1      14.572  -0.955  -4.602  0.00  0.00     0.033 H 
ATOM     28  H39 ALY d   1      13.814   0.396  -5.511  0.00  0.00     0.033 H 
BRANCH  26  29
ATOM     29  CD  ALY d   1      12.675  -1.393  -5.446  0.00  0.00    -0.050 C 
ATOM     30  H36 ALY d   1      12.072  -1.085  -6.313  0.00  0.00     0.035 H 
ATOM     31  H37 ALY d   1      12.850  -2.478  -5.488  0.00  0.00     0.035 H 
BRANCH  29  32
ATOM     32  CE  ALY d   1      11.914  -1.065  -4.176  0.00  0.00    -0.005 C 
ATOM     33  H34 ALY d   1      12.188  -1.795  -3.400  0.00  0.00     0.064 H 
ATOM     34  H35 ALY d   1      12.195  -0.054  -3.845  0.00  0.00     0.064 H 
BRANCH  32  35
ATOM     35  NZ  ALY d   1      10.470  -1.110  -4.376  0.00  0.00    -0.361 N 
ATOM     36  CH  ALY d   1       9.757  -0.082  -4.817  0.00  0.00     0.213 C 
ATOM     37  OH  ALY d   1      10.189   0.695  -5.669  0.00  0.00    -0.274 OA
ATOM     38  H33 ALY d   1       9.991  -1.963  -4.169  0.00  0.00     0.162 HD
BRANCH  36  39
ATOM     39  CH3 ALY d   1       8.362   0.150  -4.234  0.00  0.00    -0.003 C 
ATOM     40  H30 ALY d   1       8.139  -0.632  -3.493  0.00  0.00     0.040 H 
ATOM     41  H31 ALY d   1       7.616   0.113  -5.042  0.00  0.00     0.040 H 
ATOM     42  H32 ALY d   1       8.327   1.136  -3.748  0.00  0.00     0.040 H 
ENDBRANCH  36  39
ENDBRANCH  32  35
ENDBRANCH  29  32
ENDBRANCH  26  29
ENDBRANCH  23  26
ENDBRANCH  21  23
BRANCH  21  43
ATOM     43  N   ALY d   1      15.776  -0.313  -8.841  0.00  0.00    -0.346 N 
ATOM     44  C   VAL d   1      15.240  -0.100 -10.040  0.00  0.00     0.241 C 
ATOM     45  O   VAL d   1      14.144   0.438 -10.199  0.00  0.00    -0.271 OA
ATOM     46  H43 ALY d   1      16.663  -0.770  -8.774  0.00  0.00     0.163 HD
BRANCH  44  47
ATOM     47  CA  VAL d   1      16.063  -0.559 -11.234  0.00  0.00     0.092 C 
ATOM     48  H22 VAL d   1      16.180  -1.652 -11.187  0.00  0.00     0.088 H 
BRANCH  47  49
ATOM     49  N   VAL d   1      15.401  -0.224 -12.491  0.00  0.00    -0.346 N 
ATOM     50  C   GLY d   1      14.465  -1.008 -13.016  0.00  0.00     0.236 C 
ATOM     51  O   GLY d   1      14.090  -2.054 -12.489  0.00  0.00    -0.272 OA
ATOM     52  H21 VAL d   1      15.658   0.616 -12.969  0.00  0.00     0.163 HD
BRANCH  50  53
ATOM     53  CA  GLY d   1      13.859  -0.545 -14.326  0.00  0.00     0.069 C 
ATOM     54  H19 GLY d   1      14.527  -0.842 -15.148  0.00  0.00     0.078 H 
ATOM     55  H20 GLY d   1      12.881  -1.032 -14.454  0.00  0.00     0.078 H 
BRANCH  53  56
ATOM     56  N   GLY d   1      13.672   0.893 -14.374  0.00  0.00    -0.351 N 
ATOM     57  C   GLY d   1      12.458   1.425 -14.279  0.00  0.00     0.235 C 
ATOM     58  O   GLY d   1      11.436   0.750 -14.148  0.00  0.00    -0.272 OA
ATOM     59  H18 GLY d   1      14.466   1.491 -14.480  0.00  0.00     0.163 HD
BRANCH  57  60
ATOM     60  CA  GLY d   1      12.380   2.938 -14.342  0.00  0.00     0.069 C 
ATOM     61  H16 GLY d   1      12.363   3.333 -13.316  0.00  0.00     0.078 H 
ATOM     62  H17 GLY d   1      13.271   3.316 -14.866  0.00  0.00     0.078 H 
BRANCH  60  63
ATOM     63  N   GLY d   1      11.196   3.404 -15.041  0.00  0.00    -0.350 N 
ATOM     64  C   THR d   1      11.020   3.140 -16.332  0.00  0.00     0.243 C 
ATOM     65  O   THR d   1      11.830   2.501 -17.003  0.00  0.00    -0.271 OA
ATOM     66  H15 GLY d   1      10.505   3.930 -14.546  0.00  0.00     0.163 HD
BRANCH  64  67
ATOM     67  CA  THR d   1       9.739   3.679 -16.961  0.00  0.00     0.113 C 
ATOM     68  H9  THR d   1       9.082   4.047 -16.159  0.00  0.00     0.091 H 
BRANCH  67  69
ATOM     69  N   THR d   1      10.026   4.791 -17.859  0.00  0.00    -0.344 N 
ATOM     70  C   SER d   1       9.549   6.011 -17.635  0.00  0.00     0.251 C 
ATOM     71  O   SER d   1       8.843   6.288 -16.665  0.00  0.00    -0.271 OA
ATOM     72  H8  THR d   1      10.597   4.632 -18.665  0.00  0.00     0.163 HD
BRANCH  70  73
ATOM     73  CA  SER d   1       9.927   7.079 -18.656  0.00  0.00     0.195 C 
ATOM     74  H4  SER d   1      10.795   7.637 -18.275  0.00  0.00     0.102 H 
BRANCH  73  75
ATOM     75  N   SER d   1      10.295   6.462 -19.956  0.00  0.00    -0.064 N 
ATOM     76  H1  SER d   1      10.540   7.185 -20.614  0.00  0.00     0.275 HD
ATOM     77  H2  SER d   1       9.512   5.936 -20.312  0.00  0.00     0.275 HD
ATOM     78  H3  SER d   1      11.082   5.846 -19.825  0.00  0.00     0.275 HD
ENDBRANCH  73  75
BRANCH  73  79
ATOM     79  CB  SER d   1       8.762   8.051 -18.845  0.00  0.00     0.051 C 
ATOM     80  H5  SER d   1       8.507   8.499 -17.873  0.00  0.00     0.077 H 
ATOM     81  H6  SER d   1       7.893   7.500 -19.234  0.00  0.00     0.077 H 
BRANCH  79  82
ATOM     82  OG  SER d   1       9.101   9.083 -19.756  0.00  0.00    -0.398 OA
ATOM     83  H7  SER d   1       8.362   9.672 -19.855  0.00  0.00     0.209 HD
ENDBRANCH  79  82
ENDBRANCH  73  79
ENDBRANCH  70  73
ENDBRANCH  67  69
BRANCH  67  84
ATOM     84  CB  THR d   1       9.018   2.533 -17.695  0.00  0.00     0.060 C 
ATOM     85  H10 THR d   1       9.700   2.114 -18.450  0.00  0.00     0.086 H 
BRANCH  84  86
ATOM     86  OG1 THR d   1       7.848   3.032 -18.353  0.00  0.00    -0.393 OA
ATOM     87  H11 THR d   1       7.410   2.319 -18.802  0.00  0.00     0.210 HD
ENDBRANCH  84  86
BRANCH  84  88
ATOM     88  CG2 THR d   1       8.625   1.428 -16.725  0.00  0.00    -0.050 C 
ATOM     89  H12 THR d   1       8.113   0.624 -17.273  0.00  0.00     0.031 H 
ATOM     90  H13 THR d   1       7.950   1.836 -15.958  0.00  0.00     0.031 H 
ATOM     91  H14 THR d   1       9.528   1.026 -16.242  0.00  0.00     0.031 H 
ENDBRANCH  84  88
ENDBRANCH  67  84
ENDBRANCH  64  67
ENDBRANCH  60  63
ENDBRANCH  57  60
ENDBRANCH  53  56
ENDBRANCH  50  53
ENDBRANCH  47  49
BRANCH  47  92
ATOM     92  CB  VAL d   1      17.455   0.094 -11.142  0.00  0.00    -0.033 C 
ATOM     93  H23 VAL d   1      17.977  -0.327 -10.270  0.00  0.00     0.042 H 
BRANCH  92  94
ATOM     94  CG1 VAL d   1      18.276  -0.219 -12.384  0.00  0.00    -0.071 C 
ATOM     95  H24 VAL d   1      19.265   0.255 -12.299  0.00  0.00     0.028 H 
ATOM     96  H25 VAL d   1      17.758   0.169 -13.273  0.00  0.00     0.028 H 
ATOM     97  H26 VAL d   1      18.399  -1.308 -12.478  0.00  0.00     0.028 H 
ENDBRANCH  92  94
BRANCH  92  98
ATOM     98  CG2 VAL d   1      17.325   1.602 -10.939  0.00  0.00    -0.071 C 
ATOM     99  H27 VAL d   1      16.728   1.800 -10.036  0.00  0.00     0.028 H 
ATOM    100  H28 VAL d   1      16.828   2.048 -11.813  0.00  0.00     0.028 H 
ATOM    101  H29 VAL d   1      18.326   2.044 -10.822  0.00  0.00     0.028 H 
ENDBRANCH  92  98
ENDBRANCH  47  92
ENDBRANCH  44  47
ENDBRANCH  21  43
ENDBRANCH  18  21
ENDBRANCH  15  17
BRANCH  15 102
ATOM    102  CB  LYS d   1      16.528   4.504  -7.096  0.00  0.00    -0.038 C 
ATOM    103  H46 LYS d   1      15.631   4.382  -6.471  0.00  0.00     0.036 H 
ATOM    104  H47 LYS d   1      16.227   4.725  -8.130  0.00  0.00     0.036 H 
BRANCH 102 105
ATOM    105  CG  LYS d   1      17.327   5.685  -6.565  0.00  0.00    -0.061 C 
ATOM    106  H48 LYS d   1      18.330   5.670  -7.017  0.00  0.00     0.033 H 
ATOM    107  H49 LYS d   1      17.415   5.594  -5.472  0.00  0.00     0.033 H 
BRANCH 105 108
ATOM    108  CD  LYS d   1      16.657   7.007  -6.897  0.00  0.00    -0.043 C 
ATOM    109  H50 LYS d   1      15.635   7.002  -6.491  0.00  0.00     0.035 H 
ATOM    110  H51 LYS d   1      16.616   7.123  -7.990  0.00  0.00     0.035 H 
BRANCH 108 111
ATOM    111  CE  LYS d   1      17.418   8.182  -6.304  0.00  0.00     0.080 C 
ATOM    112  H52 LYS d   1      17.494   8.043  -5.215  0.00  0.00     0.075 H 
ATOM    113  H53 LYS d   1      16.865   9.108  -6.518  0.00  0.00     0.075 H 
BRANCH 111 114
ATOM    114  NZ  LYS d   1      18.791   8.299  -6.871  0.00  0.00    -0.079 N 
ATOM    115  H54 LYS d   1      19.261   9.087  -6.454  0.00  0.00     0.274 HD
ATOM    116  H55 LYS d   1      18.732   8.432  -7.868  0.00  0.00     0.274 HD
ATOM    117  H56 LYS d   1      19.309   7.457  -6.675  0.00  0.00     0.274 HD
ENDBRANCH 111 114
ENDBRANCH 108 111
ENDBRANCH 105 108
ENDBRANCH 102 105
ENDBRANCH  15 102
ENDBRANCH   1  15
BRANCH   4 118
ATOM    118  C   PRO d   1      19.224   2.359  -3.229  0.00  0.00     0.241 C 
ATOM    119  O   PRO d   1      20.081   3.244  -3.254  0.00  0.00    -0.271 OA
ATOM    120  N   HIS d   1      18.302   2.266  -2.279  0.00  0.00    -0.346 N 
ATOM    121  H64 HIS d   1      17.641   1.517  -2.314  0.00  0.00     0.163 HD
BRANCH 120 122
ATOM    122  CA  HIS d   1      18.228   3.227  -1.186  0.00  0.00     0.094 C 
ATOM    123  H65 HIS d   1      18.667   4.177  -1.524  0.00  0.00     0.088 H 
BRANCH 122 124
ATOM    124  C   HIS d   1      19.013   2.734   0.027  0.00  0.00     0.241 C 
ATOM    125  O   HIS d   1      19.526   1.616   0.032  0.00  0.00    -0.271 OA
ATOM    126  N   ARG d   1      19.099   3.578   1.052  0.00  0.00    -0.346 N 
ATOM    127  H71 ARG d   1      18.657   4.473   0.986  0.00  0.00     0.163 HD
BRANCH 126 128
ATOM    128  CA  ARG d   1      19.823   3.229   2.270  0.00  0.00     0.089 C 
ATOM    129  H72 ARG d   1      19.982   2.141   2.281  0.00  0.00     0.087 H 
BRANCH 128 130
ATOM    130  C   ARG d   1      19.020   3.616   3.510  0.00  0.00     0.241 C 
ATOM    131  O   ARG d   1      19.255   4.664   4.113  0.00  0.00    -0.271 OA
ATOM    132  N   TYR d   1      18.073   2.762   3.886  0.00  0.00    -0.346 N 
ATOM    133  H84 TYR d   1      17.930   1.927   3.354  0.00  0.00     0.163 HD
BRANCH 132 134
ATOM    134  CA  TYR d   1      17.237   3.013   5.055  0.00  0.00     0.093 C 
ATOM    135  H85 TYR d   1      17.407   4.048   5.388  0.00  0.00     0.088 H 
BRANCH 134 136
ATOM    136  C   TYR d   1      17.603   2.072   6.199  0.00  0.00     0.241 C 
ATOM    137  O   TYR d   1      17.517   2.441   7.370  0.00  0.00    -0.271 OA
ATOM    138  N   LYS d   1      18.015   0.858   5.852  0.00  0.00    -0.346 N 
ATOM    139  H93 LYS d   1      18.067   0.618   4.883  0.00  0.00     0.163 HD
BRANCH 138 140
ATOM    140  CA  LYS d   1      18.394  -0.134   6.852  0.00  0.00     0.089 C 
ATOM    141  H94 LYS d   1      18.666   0.392   7.779  0.00  0.00     0.087 H 
BRANCH 140 142
ATOM    142  C   LYS d   1      19.601  -0.942   6.382  0.00  0.00     0.241 C 
ATOM    143  O   LYS d   1      19.473  -2.106   6.001  0.00  0.00    -0.271 OA
ATOM    144  N   CYS d   1      20.772  -0.313   6.411  0.00  0.00    -0.344 N 
ATOM    145 6H10 CYS d   1      20.808   0.634   6.730  0.00  0.00     0.163 HD
BRANCH 144 146
ATOM    146  CA  CYS d   1      22.006  -0.968   5.990  0.00  0.00     0.104 C 
ATOM    147 7H10 CYS d   1      21.846  -1.403   4.992  0.00  0.00     0.090 H 
BRANCH 146 148
ATOM    148  C   CYS d   1      22.384  -2.089   6.952  0.00  0.00     0.197 C 
ATOM    149  O   CYS d   1      22.003  -3.249   6.687  0.00  0.00    -0.646 OA
ATOM    150  OXT CYS d   1      23.058  -1.799   7.963  0.00  0.00    -0.646 OA
ENDBRANCH 146 148
BRANCH 146 151
ATOM    151  CB  CYS d   1      23.144   0.051   5.902  0.00  0.00     0.003 C 
ATOM    152 8H10 CYS d   1      24.052  -0.473   5.570  0.00  0.00     0.052 H 
ATOM    153 9H10 CYS d   1      23.309   0.472   6.905  0.00  0.00     0.052 H 
BRANCH 151 154
ATOM    154  SG  CYS d   1      22.827   1.415   4.759  0.00  0.00    -0.180 SA
ATOM    155 0H11 CYS d   1      23.618   2.040   4.756  0.00  0.00     0.101 HD
ENDBRANCH 151 154
ENDBRANCH 146 151
ENDBRANCH 144 146
ENDBRANCH 140 142
BRANCH 140 156
ATOM    156  CB  LYS d   1      17.214  -1.064   7.147  0.00  0.00    -0.038 C 
ATOM    157  H95 LYS d   1      17.019  -1.673   6.252  0.00  0.00     0.036 H 
ATOM    158  H96 LYS d   1      16.332  -0.446   7.370  0.00  0.00     0.036 H 
BRANCH 156 159
ATOM    159  CG  LYS d   1      17.453  -2.000   8.321  0.00  0.00    -0.061 C 
ATOM    160  H97 LYS d   1      17.701  -1.402   9.210  0.00  0.00     0.033 H 
ATOM    161  H98 LYS d   1      18.294  -2.667   8.081  0.00  0.00     0.033 H 
BRANCH 159 162
ATOM    162  CD  LYS d   1      16.223  -2.843   8.619  0.00  0.00    -0.043 C 
ATOM    163  H99 LYS d   1      15.970  -3.435   7.727  0.00  0.00     0.035 H 
ATOM    164 0H10 LYS d   1      15.384  -2.176   8.866  0.00  0.00     0.035 H 
BRANCH 162 165
ATOM    165  CE  LYS d   1      16.464  -3.787   9.786  0.00  0.00     0.080 C 
ATOM    166 1H10 LYS d   1      17.273  -4.483   9.519  0.00  0.00     0.075 H 
ATOM    167 2H10 LYS d   1      15.542  -4.354   9.980  0.00  0.00     0.075 H 
BRANCH 165 168
ATOM    168  NZ  LYS d   1      16.848  -3.056  11.024  0.00  0.00    -0.079 N 
ATOM    169 3H10 LYS d   1      16.998  -3.716  11.771  0.00  0.00     0.274 HD
ATOM    170 4H10 LYS d   1      16.110  -2.420  11.281  0.00  0.00     0.274 HD
ATOM    171 5H10 LYS d   1      17.696  -2.537  10.858  0.00  0.00     0.274 HD
ENDBRANCH 165 168
ENDBRANCH 162 165
ENDBRANCH 159 162
ENDBRANCH 156 159
ENDBRANCH 140 156
ENDBRANCH 138 140
ENDBRANCH 134 136
BRANCH 134 172
ATOM    172  CB  TYR d   1      15.756   2.854   4.694  0.00  0.00    -0.014 C 
ATOM    173  H86 TYR d   1      15.624   1.884   4.192  0.00  0.00     0.043 H 
ATOM    174  H87 TYR d   1      15.479   3.665   4.004  0.00  0.00     0.043 H 
BRANCH 172 175
ATOM    175  CG  TYR d   1      14.826   2.904   5.887  0.00  0.00    -0.056 A 
ATOM    176  CD1 TYR d   1      14.774   4.017   6.717  0.00  0.00    -0.074 A 
ATOM    177  CE1 TYR d   1      13.921   4.053   7.806  0.00  0.00    -0.051 A 
ATOM    178  H88 TYR d   1      15.411   4.869   6.508  0.00  0.00     0.084 H 
ATOM    179  CZ  TYR d   1      13.109   2.969   8.072  0.00  0.00     0.065 A 
ATOM    180  H90 TYR d   1      13.891   4.927   8.446  0.00  0.00     0.087 H 
ATOM    181  CE2 TYR d   1      13.147   1.856   7.260  0.00  0.00    -0.051 A 
ATOM    182  CD2 TYR d   1      14.002   1.831   6.180  0.00  0.00    -0.074 A 
ATOM    183  H91 TYR d   1      12.508   1.006   7.470  0.00  0.00     0.087 H 
ATOM    184  H89 TYR d   1      14.030   0.952   5.546  0.00  0.00     0.084 H 
BRANCH 179 185
ATOM    185  OH  TYR d   1      12.258   2.999   9.153  0.00  0.00    -0.361 OA
ATOM    186  H92 TYR d   1      12.352   3.829   9.606  0.00  0.00     0.217 HD
ENDBRANCH 179 185
ENDBRANCH 172 175
ENDBRANCH 134 172
ENDBRANCH 132 134
ENDBRANCH 128 130
BRANCH 128 187
ATOM    187  CB  ARG d   1      21.187   3.925   2.295  0.00  0.00    -0.036 C 
ATOM    188  H73 ARG d   1      21.710   3.630   3.217  0.00  0.00     0.036 H 
ATOM    189  H74 ARG d   1      21.021   5.012   2.299  0.00  0.00     0.036 H 
BRANCH 187 190
ATOM    190  CG  ARG d   1      22.074   3.580   1.110  0.00  0.00    -0.048 C 
ATOM    191  H75 ARG d   1      22.957   4.236   1.122  0.00  0.00     0.035 H 
ATOM    192  H76 ARG d   1      21.508   3.744   0.181  0.00  0.00     0.035 H 
BRANCH 190 193
ATOM    193  CD  ARG d   1      22.536   2.132   1.157  0.00  0.00     0.009 C 
ATOM    194  H77 ARG d   1      21.652   1.477   1.153  0.00  0.00     0.064 H 
ATOM    195  H78 ARG d   1      23.108   1.971   2.083  0.00  0.00     0.064 H 
BRANCH 193 196
ATOM    196  NE  ARG d   1      23.381   1.791   0.016  0.00  0.00    -0.227 N 
ATOM    197  CZ  ARG d   1      24.378   0.911   0.071  0.00  0.00     0.665 C 
ATOM    198  NH1 ARG d   1      24.660   0.292   1.210  0.00  0.00    -0.235 N 
ATOM    199  NH2 ARG d   1      25.096   0.652  -1.013  0.00  0.00    -0.235 N 
ATOM    200  H80 ARG d   1      25.432  -0.388   1.249  0.00  0.00     0.174 HD
ATOM    201  H81 ARG d   1      24.107   0.492   2.055  0.00  0.00     0.174 HD
ATOM    202  H82 ARG d   1      24.881   1.130  -1.900  0.00  0.00     0.174 HD
ATOM    203  H83 ARG d   1      25.869  -0.027  -0.969  0.00  0.00     0.174 HD
ATOM    204  H79 ARG d   1      23.195   2.258  -0.883  0.00  0.00     0.177 HD
ENDBRANCH 193 196
ENDBRANCH 190 193
ENDBRANCH 187 190
ENDBRANCH 128 187
ENDBRANCH 126 128
ENDBRANCH 122 124
BRANCH 122 205
ATOM    205  CB  HIS d   1      16.767   3.469  -0.801  0.00  0.00     0.004 C 
ATOM    206  H66 HIS d   1      16.652   4.525  -0.516  0.00  0.00     0.046 H 
ATOM    207  H67 HIS d   1      16.523   2.829   0.059  0.00  0.00     0.046 H 
BRANCH 205 208
ATOM    208  CG  HIS d   1      15.799   3.168  -1.906  0.00  0.00     0.053 A 
ATOM    209  ND1 HIS d   1      15.191   1.943  -2.054  0.00  0.00    -0.247 NA
ATOM    210  CE1 HIS d   1      14.405   1.967  -3.115  0.00  0.00     0.064 A 
ATOM    211  NE2 HIS d   1      14.476   3.166  -3.658  0.00  0.00    -0.359 N 
ATOM    212  H69 HIS d   1      13.801   1.137  -3.479  0.00  0.00     0.143 H 
ATOM    213  CD2 HIS d   1      15.340   3.936  -2.923  0.00  0.00     0.002 A 
ATOM    214  H70 HIS d   1      13.966   3.474  -4.498  0.00  0.00     0.166 HD
ATOM    215  H68 HIS d   1      15.608   4.973  -3.120  0.00  0.00     0.114 H 
ENDBRANCH 205 208
ENDBRANCH 122 205
ENDBRANCH 120 122
ENDBRANCH   4 118
TORSDOF 60
