REMARK WARNING: 32 MAX_TORS EXCEEDED!!!
REMARK  74 active torsions:
REMARK  status: ('A' for Active; 'I' for Inactive)
REMARK    1  A    between atoms: CA_2  and  N_1 
REMARK    2  A    between atoms: C_3  and  CA_2 
REMARK       I    between atoms: N_5  and  C_3 
REMARK    3  A    between atoms: CA_6  and  N_5 
REMARK    4  A    between atoms: C_7  and  CA_6 
REMARK       I    between atoms: N_9  and  C_7 
REMARK    5  A    between atoms: CA_10  and  N_9 
REMARK    6  A    between atoms: C_11  and  CA_10 
REMARK    7  A    between atoms: CA_10  and  CB_13 
REMARK       I    between atoms: N_14  and  C_11 
REMARK    8  A    between atoms: CA_15  and  N_14 
REMARK    9  A    between atoms: C_16  and  CA_15 
REMARK   10  A    between atoms: CA_15  and  CB_18 
REMARK       I    between atoms: N_23  and  C_16 
REMARK   11  A    between atoms: CB_18  and  CG_19 
REMARK   12  A    between atoms: CG_19  and  CD_20 
REMARK   13  A    between atoms: CD_20  and  CE_21 
REMARK   14  A    between atoms: CE_21  and  NZ_22 
REMARK   15  A    between atoms: CA_24  and  N_23 
REMARK   16  A    between atoms: C_25  and  CA_24 
REMARK   17  A    between atoms: CA_24  and  CB_27 
REMARK       I    between atoms: N_34  and  C_25 
REMARK   18  A    between atoms: CB_27  and  CG_28 
REMARK   19  A    between atoms: CG_28  and  CD_29 
REMARK   20  A    between atoms: CD_29  and  NE_30 
REMARK       I    between atoms: NE_30  and  CZ_31 
REMARK       I    between atoms: CZ_31  and  NH1_32 
REMARK       I    between atoms: CZ_31  and  NH2_33 
REMARK   21  A    between atoms: CA_35  and  N_34 
REMARK   22  A    between atoms: C_36  and  CA_35 
REMARK   23  A    between atoms: CA_35  and  CB_38 
REMARK       I    between atoms: N_44  and  C_36 
REMARK   24  A    between atoms: CB_38  and  CG_39 
REMARK   25  A    between atoms: CA_45  and  N_44 
REMARK   26  A    between atoms: C_46  and  CA_45 
REMARK   27  A    between atoms: CA_45  and  CB_48 
REMARK       I    between atoms: N_64  and  C_46 
REMARK   28  A    between atoms: CB_48  and  CG_49 
REMARK   29  A    between atoms: CG_49  and  CD_50 
REMARK   30  A    between atoms: CD_50  and  NE_51 
REMARK       I    between atoms: NE_51  and  CZ_52 
REMARK       I    between atoms: CZ_52  and  NH1_53 
REMARK       I    between atoms: CZ_52  and  NH2_54 
REMARK   31  A    between atoms: CH_56  and  CH3_57 
REMARK       I    between atoms: NZ_58  and  CH_56 
REMARK   32  A    between atoms: CE_59  and  NZ_58 
REMARK   33  A    between atoms: CD_60  and  CE_59 
REMARK   34  A    between atoms: CG_61  and  CD_60 
REMARK   35  A    between atoms: CB_62  and  CG_61 
REMARK   36  A    between atoms: CA_63  and  CB_62 
REMARK   37  A    between atoms: CA_63  and  N_64 
REMARK   38  A    between atoms: CA_63  and  C_65 
REMARK       I    between atoms: C_65  and  N_67 
REMARK   39  A    between atoms: N_67  and  CA_68 
REMARK   40  A    between atoms: CA_68  and  C_69 
REMARK   41  A    between atoms: CA_68  and  CB_71 
REMARK       I    between atoms: C_69  and  N_74 
REMARK   42  A    between atoms: CB_71  and  CG1_72 
REMARK   43  A    between atoms: CB_71  and  CG2_73 
REMARK   44  A    between atoms: N_74  and  CA_75 
REMARK   45  A    between atoms: CA_75  and  C_76 
REMARK   46  A    between atoms: CA_75  and  CB_78 
REMARK       I    between atoms: C_76  and  N_82 
REMARK   47  A    between atoms: CB_78  and  CG_79 
REMARK   48  A    between atoms: CG_79  and  CD1_80 
REMARK   49  A    between atoms: CG_79  and  CD2_81 
REMARK   50  A    between atoms: N_82  and  CA_83 
REMARK   51  A    between atoms: CA_83  and  C_84 
REMARK   52  A    between atoms: CA_83  and  CB_86 
REMARK       I    between atoms: C_84  and  N_93 
REMARK   53  A    between atoms: CB_86  and  CG_87 
REMARK   54  A    between atoms: CG_87  and  CD_88 
REMARK   55  A    between atoms: CD_88  and  NE_89 
REMARK       I    between atoms: NE_89  and  CZ_90 
REMARK       I    between atoms: CZ_90  and  NH1_91 
REMARK   56  A    between atoms: N_93  and  CA_94 
REMARK   57  A    between atoms: CA_94  and  C_95 
REMARK   58  A    between atoms: CA_94  and  CB_97 
REMARK       I    between atoms: C_95  and  N_101 
REMARK   59  A    between atoms: CB_97  and  CG_98 
REMARK   60  A    between atoms: N_101  and  CA_102 
REMARK   61  A    between atoms: CA_102  and  C_103 
REMARK   62  A    between atoms: CA_102  and  CB_105 
REMARK       I    between atoms: C_103  and  N_109 
REMARK   63  A    between atoms: CB_105  and  CG_106 
REMARK       I    between atoms: CG_106  and  ND2_108 
REMARK   64  A    between atoms: N_109  and  CA_110 
REMARK   65  A    between atoms: CA_110  and  C_111 
REMARK   66  A    between atoms: CA_110  and  CB_113 
REMARK       I    between atoms: C_111  and  N_117 
REMARK   67  A    between atoms: CB_113  and  CG1_114 
REMARK   68  A    between atoms: CB_113  and  CG2_115 
REMARK   69  A    between atoms: CG1_114  and  CD1_116 
REMARK   70  A    between atoms: N_117  and  CA_118 
REMARK   71  A    between atoms: CA_118  and  C_119 
REMARK   72  A    between atoms: CA_118  and  CB_121 
REMARK   73  A    between atoms: CB_121  and  CG_122 
REMARK   74  A    between atoms: CG_122  and  CD_123 
REMARK       I    between atoms: CD_123  and  NE2_125 
ROOT
ATOM      1  CA  ALY d   1     -13.933  -0.686  -7.085  0.00  0.00     0.089 C 
ATOM      2  H72 ALY d   1     -13.394  -0.321  -7.972  0.00  0.00     0.087 H 
ENDROOT
BRANCH   1   3
ATOM      3  CB  ALY d   1     -12.956  -0.752  -5.894  0.00  0.00    -0.038 C 
ATOM      4  H70 ALY d   1     -13.102   0.149  -5.281  0.00  0.00     0.036 H 
ATOM      5  H71 ALY d   1     -13.202  -1.644  -5.299  0.00  0.00     0.036 H 
BRANCH   3   6
ATOM      6  CG  ALY d   1     -11.495  -0.829  -6.276  0.00  0.00    -0.061 C 
ATOM      7  H68 ALY d   1     -10.897  -0.985  -5.366  0.00  0.00     0.033 H 
ATOM      8  H69 ALY d   1     -11.351  -1.678  -6.960  0.00  0.00     0.033 H 
BRANCH   6   9
ATOM      9  CD  ALY d   1     -11.022   0.439  -6.962  0.00  0.00    -0.050 C 
ATOM     10  H66 ALY d   1     -10.350   0.169  -7.790  0.00  0.00     0.035 H 
ATOM     11  H67 ALY d   1     -11.895   0.978  -7.359  0.00  0.00     0.035 H 
BRANCH   9  12
ATOM     12  CE  ALY d   1     -10.279   1.344  -5.999  0.00  0.00    -0.005 C 
ATOM     13  H64 ALY d   1      -9.341   0.852  -5.704  0.00  0.00     0.064 H 
ATOM     14  H65 ALY d   1     -10.052   2.292  -6.508  0.00  0.00     0.064 H 
BRANCH  12  15
ATOM     15  NZ  ALY d   1     -11.057   1.631  -4.798  0.00  0.00    -0.361 N 
ATOM     16  CH  ALY d   1     -10.658   2.469  -3.847  0.00  0.00     0.213 C 
ATOM     17  OH  ALY d   1     -11.389   3.359  -3.413  0.00  0.00    -0.274 OA
ATOM     18  H63 ALY d   1     -11.938   1.172  -4.685  0.00  0.00     0.162 HD
BRANCH  16  19
ATOM     19  CH3 ALY d   1      -9.228   2.353  -3.307  0.00  0.00    -0.003 C 
ATOM     20  H60 ALY d   1      -8.718   1.511  -3.798  0.00  0.00     0.040 H 
ATOM     21  H61 ALY d   1      -9.259   2.180  -2.221  0.00  0.00     0.040 H 
ATOM     22  H62 ALY d   1      -8.681   3.285  -3.514  0.00  0.00     0.040 H 
ENDBRANCH  16  19
ENDBRANCH  12  15
ENDBRANCH   9  12
ENDBRANCH   6   9
ENDBRANCH   3   6
ENDBRANCH   1   3
BRANCH   1  23
ATOM     23  N   ALY d   1     -15.008   0.245  -6.751  0.00  0.00    -0.346 N 
ATOM     24  C   ARG d   1     -16.062   0.449  -7.539  0.00  0.00     0.241 C 
ATOM     25  O   ARG d   1     -16.220  -0.127  -8.617  0.00  0.00    -0.271 OA
ATOM     26  H73 ALY d   1     -14.950   0.752  -5.891  0.00  0.00     0.163 HD
BRANCH  24  27
ATOM     27  CA  ARG d   1     -17.091   1.468  -7.034  0.00  0.00     0.089 C 
ATOM     28  H48 ARG d   1     -16.787   2.466  -7.382  0.00  0.00     0.087 H 
BRANCH  27  29
ATOM     29  N   ARG d   1     -18.423   1.182  -7.563  0.00  0.00    -0.346 N 
ATOM     30  C   HIS d   1     -18.707   1.338  -8.855  0.00  0.00     0.241 C 
ATOM     31  O   HIS d   1     -17.874   1.713  -9.673  0.00  0.00    -0.271 OA
ATOM     32  H47 ARG d   1     -19.137   0.862  -6.941  0.00  0.00     0.163 HD
BRANCH  30  33
ATOM     33  CA  HIS d   1     -20.135   1.016  -9.299  0.00  0.00     0.094 C 
ATOM     34  H41 HIS d   1     -20.504   1.858  -9.903  0.00  0.00     0.088 H 
BRANCH  33  35
ATOM     35  N   HIS d   1     -20.165  -0.186 -10.126  0.00  0.00    -0.346 N 
ATOM     36  C   ARG d   1     -19.695  -1.353  -9.694  0.00  0.00     0.241 C 
ATOM     37  O   ARG d   1     -19.199  -1.508  -8.578  0.00  0.00    -0.271 OA
ATOM     38  H40 HIS d   1     -20.551  -0.131 -11.047  0.00  0.00     0.163 HD
BRANCH  36  39
ATOM     39  CA  ARG d   1     -19.796  -2.522 -10.672  0.00  0.00     0.089 C 
ATOM     40  H28 ARG d   1     -19.532  -2.160 -11.677  0.00  0.00     0.087 H 
BRANCH  39  41
ATOM     41  N   ARG d   1     -18.871  -3.588 -10.307  0.00  0.00    -0.346 N 
ATOM     42  C   LYS d   1     -18.644  -4.621 -11.114  0.00  0.00     0.241 C 
ATOM     43  O   LYS d   1     -19.187  -4.746 -12.212  0.00  0.00    -0.271 OA
ATOM     44  H27 ARG d   1     -18.395  -3.542  -9.428  0.00  0.00     0.163 HD
BRANCH  42  45
ATOM     45  CA  LYS d   1     -17.655  -5.666 -10.612  0.00  0.00     0.089 C 
ATOM     46  H15 LYS d   1     -17.122  -5.257  -9.741  0.00  0.00     0.087 H 
BRANCH  45  47
ATOM     47  N   LYS d   1     -18.347  -6.883 -10.203  0.00  0.00    -0.346 N 
ATOM     48  C   ALA d   1     -18.742  -7.078  -8.947  0.00  0.00     0.240 C 
ATOM     49  O   ALA d   1     -18.551  -6.258  -8.049  0.00  0.00    -0.271 OA
ATOM     50  H14 LYS d   1     -18.530  -7.591 -10.885  0.00  0.00     0.163 HD
BRANCH  48  51
ATOM     51  CA  ALA d   1     -19.454  -8.399  -8.668  0.00  0.00     0.086 C 
ATOM     52  H10 ALA d   1     -18.833  -9.213  -9.070  0.00  0.00     0.086 H 
BRANCH  51  53
ATOM     53  N   ALA d   1     -19.623  -8.622  -7.233  0.00  0.00    -0.347 N 
ATOM     54  C   GLY d   1     -20.349  -7.805  -6.471  0.00  0.00     0.236 C 
ATOM     55  O   GLY d   1     -20.925  -6.808  -6.909  0.00  0.00    -0.272 OA
ATOM     56  H9  ALA d   1     -19.180  -9.412  -6.810  0.00  0.00     0.163 HD
BRANCH  54  57
ATOM     57  CA  GLY d   1     -20.437  -8.161  -4.999  0.00  0.00     0.069 C 
ATOM     58  H7  GLY d   1     -19.552  -8.755  -4.726  0.00  0.00     0.078 H 
ATOM     59  H8  GLY d   1     -20.450  -7.231  -4.411  0.00  0.00     0.078 H 
BRANCH  57  60
ATOM     60  N   GLY d   1     -21.628  -8.928  -4.684  0.00  0.00    -0.351 N 
ATOM     61  C   GLY d   1     -21.581 -10.254  -4.601  0.00  0.00     0.243 C 
ATOM     62  O   GLY d   1     -20.551 -10.903  -4.782  0.00  0.00    -0.272 OA
ATOM     63  H6  GLY d   1     -22.494  -8.454  -4.527  0.00  0.00     0.163 HD
BRANCH  61  64
ATOM     64  CA  GLY d   1     -22.884 -10.952  -4.266  0.00  0.00     0.152 C 
ATOM     65  H4  GLY d   1     -23.395 -10.384  -3.475  0.00  0.00     0.090 H 
ATOM     66  H5  GLY d   1     -23.514 -10.974  -5.167  0.00  0.00     0.090 H 
BRANCH  64  67
ATOM     67  N   GLY d   1     -22.677 -12.349  -3.793  0.00  0.00    -0.071 N 
ATOM     68  H1  GLY d   1     -23.569 -12.769  -3.584  0.00  0.00     0.274 HD
ATOM     69  H2  GLY d   1     -22.106 -12.341  -2.962  0.00  0.00     0.274 HD
ATOM     70  H3  GLY d   1     -22.215 -12.883  -4.513  0.00  0.00     0.274 HD
ENDBRANCH  64  67
ENDBRANCH  61  64
ENDBRANCH  57  60
ENDBRANCH  54  57
ENDBRANCH  51  53
BRANCH  51  71
ATOM     71  CB  ALA d   1     -20.803  -8.433  -9.373  0.00  0.00    -0.049 C 
ATOM     72  H11 ALA d   1     -20.658  -8.264 -10.450  0.00  0.00     0.030 H 
ATOM     73  H12 ALA d   1     -21.451  -7.645  -8.962  0.00  0.00     0.030 H 
ATOM     74  H13 ALA d   1     -21.274  -9.415  -9.216  0.00  0.00     0.030 H 
ENDBRANCH  51  71
ENDBRANCH  48  51
ENDBRANCH  45  47
BRANCH  45  75
ATOM     75  CB  LYS d   1     -16.638  -5.980 -11.710  0.00  0.00    -0.038 C 
ATOM     76  H16 LYS d   1     -16.180  -5.036 -12.040  0.00  0.00     0.036 H 
ATOM     77  H17 LYS d   1     -17.170  -6.444 -12.554  0.00  0.00     0.036 H 
BRANCH  75  78
ATOM     78  CG  LYS d   1     -15.531  -6.920 -11.267  0.00  0.00    -0.061 C 
ATOM     79  H18 LYS d   1     -15.981  -7.812 -10.807  0.00  0.00     0.033 H 
ATOM     80  H19 LYS d   1     -14.899  -6.406 -10.528  0.00  0.00     0.033 H 
BRANCH  78  81
ATOM     81  CD  LYS d   1     -14.668  -7.351 -12.441  0.00  0.00    -0.043 C 
ATOM     82  H20 LYS d   1     -14.288  -6.455 -12.953  0.00  0.00     0.035 H 
ATOM     83  H21 LYS d   1     -15.282  -7.939 -13.139  0.00  0.00     0.035 H 
BRANCH  81  84
ATOM     84  CE  LYS d   1     -13.490  -8.196 -11.988  0.00  0.00     0.080 C 
ATOM     85  H22 LYS d   1     -13.868  -9.058 -11.418  0.00  0.00     0.075 H 
ATOM     86  H23 LYS d   1     -12.841  -7.586 -11.343  0.00  0.00     0.075 H 
BRANCH  84  87
ATOM     87  NZ  LYS d   1     -12.691  -8.694 -13.142  0.00  0.00    -0.079 N 
ATOM     88  H24 LYS d   1     -11.921  -9.249 -12.803  0.00  0.00     0.274 HD
ATOM     89  H25 LYS d   1     -12.335  -7.911 -13.667  0.00  0.00     0.274 HD
ATOM     90  H26 LYS d   1     -13.276  -9.260 -13.737  0.00  0.00     0.274 HD
ENDBRANCH  84  87
ENDBRANCH  81  84
ENDBRANCH  78  81
ENDBRANCH  75  78
ENDBRANCH  45  75
ENDBRANCH  42  45
ENDBRANCH  39  41
BRANCH  39  91
ATOM     91  CB  ARG d   1     -21.230  -3.059 -10.706  0.00  0.00    -0.036 C 
ATOM     92  H29 ARG d   1     -21.525  -3.323  -9.680  0.00  0.00     0.036 H 
ATOM     93  H30 ARG d   1     -21.247  -3.961 -11.336  0.00  0.00     0.036 H 
BRANCH  91  94
ATOM     94  CG  ARG d   1     -22.248  -2.072 -11.257  0.00  0.00    -0.048 C 
ATOM     95  H31 ARG d   1     -22.154  -1.121 -10.713  0.00  0.00     0.035 H 
ATOM     96  H32 ARG d   1     -23.258  -2.481 -11.108  0.00  0.00     0.035 H 
BRANCH  94  97
ATOM     97  CD  ARG d   1     -22.033  -1.815 -12.740  0.00  0.00     0.009 C 
ATOM     98  H33 ARG d   1     -21.012  -1.433 -12.889  0.00  0.00     0.064 H 
ATOM     99  H34 ARG d   1     -22.759  -1.062 -13.078  0.00  0.00     0.064 H 
BRANCH  97 100
ATOM    100  NE  ARG d   1     -22.204  -3.025 -13.539  0.00  0.00    -0.227 N 
ATOM    101  CZ  ARG d   1     -22.524  -3.020 -14.830  0.00  0.00     0.665 C 
ATOM    102  NH1 ARG d   1     -22.708  -1.872 -15.466  0.00  0.00    -0.235 N 
ATOM    103  NH2 ARG d   1     -22.660  -4.165 -15.486  0.00  0.00    -0.235 N 
ATOM    104  H36 ARG d   1     -22.956  -1.871 -16.466  0.00  0.00     0.174 HD
ATOM    105  H37 ARG d   1     -22.603  -0.981 -14.960  0.00  0.00     0.174 HD
ATOM    106  H38 ARG d   1     -22.518  -5.059 -14.996  0.00  0.00     0.174 HD
ATOM    107  H39 ARG d   1     -22.908  -4.160 -16.486  0.00  0.00     0.174 HD
ATOM    108  H35 ARG d   1     -22.069  -3.935 -13.076  0.00  0.00     0.177 HD
ENDBRANCH  97 100
ENDBRANCH  94  97
ENDBRANCH  91  94
ENDBRANCH  39  91
ENDBRANCH  36  39
ENDBRANCH  33  35
BRANCH  33 109
ATOM    109  CB  HIS d   1     -21.059   0.855  -8.088  0.00  0.00     0.004 C 
ATOM    110  H42 HIS d   1     -20.599   0.138  -7.393  0.00  0.00     0.046 H 
ATOM    111  H43 HIS d   1     -22.024   0.460  -8.437  0.00  0.00     0.046 H 
BRANCH 109 112
ATOM    112  CG  HIS d   1     -21.311   2.134  -7.350  0.00  0.00     0.053 A 
ATOM    113  ND1 HIS d   1     -21.884   3.243  -7.938  0.00  0.00    -0.247 NA
ATOM    114  CE1 HIS d   1     -21.977   4.213  -7.047  0.00  0.00     0.064 A 
ATOM    115  NE2 HIS d   1     -21.486   3.775  -5.902  0.00  0.00    -0.359 N 
ATOM    116  H45 HIS d   1     -22.389   5.205  -7.226  0.00  0.00     0.143 H 
ATOM    117  CD2 HIS d   1     -21.064   2.478  -6.064  0.00  0.00     0.002 A 
ATOM    118  H46 HIS d   1     -21.429   4.318  -5.029  0.00  0.00     0.166 HD
ATOM    119  H44 HIS d   1     -20.615   1.845  -5.301  0.00  0.00     0.114 H 
ENDBRANCH 109 112
ENDBRANCH  33 109
ENDBRANCH  30  33
ENDBRANCH  27  29
BRANCH  27 120
ATOM    120  CB  ARG d   1     -17.126   1.477  -5.502  0.00  0.00    -0.036 C 
ATOM    121  H49 ARG d   1     -16.171   1.074  -5.133  0.00  0.00     0.036 H 
ATOM    122  H50 ARG d   1     -17.950   0.827  -5.173  0.00  0.00     0.036 H 
BRANCH 120 123
ATOM    123  CG  ARG d   1     -17.331   2.853  -4.888  0.00  0.00    -0.048 C 
ATOM    124  H51 ARG d   1     -18.341   3.211  -5.137  0.00  0.00     0.035 H 
ATOM    125  H52 ARG d   1     -16.584   3.546  -5.303  0.00  0.00     0.035 H 
BRANCH 123 126
ATOM    126  CD  ARG d   1     -17.179   2.806  -3.373  0.00  0.00     0.009 C 
ATOM    127  H53 ARG d   1     -16.177   2.424  -3.130  0.00  0.00     0.064 H 
ATOM    128  H54 ARG d   1     -17.940   2.127  -2.962  0.00  0.00     0.064 H 
BRANCH 126 129
ATOM    129  NE  ARG d   1     -17.342   4.121  -2.757  0.00  0.00    -0.227 N 
ATOM    130  CZ  ARG d   1     -16.621   4.549  -1.721  0.00  0.00     0.665 C 
ATOM    131  NH1 ARG d   1     -15.685   3.773  -1.188  0.00  0.00    -0.235 N 
ATOM    132  NH2 ARG d   1     -16.834   5.757  -1.219  0.00  0.00    -0.235 N 
ATOM    133  H56 ARG d   1     -15.131   4.110  -0.387  0.00  0.00     0.174 HD
ATOM    134  H57 ARG d   1     -15.512   2.834  -1.575  0.00  0.00     0.174 HD
ATOM    135  H58 ARG d   1     -17.559   6.364  -1.628  0.00  0.00     0.174 HD
ATOM    136  H59 ARG d   1     -16.275   6.089  -0.420  0.00  0.00     0.174 HD
ATOM    137  H55 ARG d   1     -18.055   4.754  -3.146  0.00  0.00     0.177 HD
ENDBRANCH 126 129
ENDBRANCH 123 126
ENDBRANCH 120 123
ENDBRANCH  27 120
ENDBRANCH  24  27
ENDBRANCH   1  23
BRANCH   1 138
ATOM    138  C   ALY d   1     -14.529  -2.056  -7.398  0.00  0.00     0.241 C 
ATOM    139  O   ALY d   1     -14.915  -2.338  -8.533  0.00  0.00    -0.271 OA
ATOM    140  N   VAL d   1     -14.587  -2.898  -6.385  0.00  0.00    -0.346 N 
ATOM    141  H74 VAL d   1     -14.195  -2.622  -5.507  0.00  0.00     0.163 HD
BRANCH 140 142
ATOM    142  CA  VAL d   1     -15.198  -4.209  -6.495  0.00  0.00     0.092 C 
ATOM    143  H75 VAL d   1     -15.625  -4.333  -7.501  0.00  0.00     0.088 H 
BRANCH 142 144
ATOM    144  C   VAL d   1     -16.309  -4.232  -5.462  0.00  0.00     0.241 C 
ATOM    145  O   VAL d   1     -16.918  -5.257  -5.156  0.00  0.00    -0.271 OA
ATOM    146  N   LEU d   1     -16.543  -3.029  -4.946  0.00  0.00    -0.346 N 
ATOM    147  H83 LEU d   1     -15.990  -2.265  -5.277  0.00  0.00     0.163 HD
BRANCH 146 148
ATOM    148  CA  LEU d   1     -17.544  -2.750  -3.938  0.00  0.00     0.089 C 
ATOM    149  H84 LEU d   1     -17.264  -3.261  -3.005  0.00  0.00     0.087 H 
BRANCH 148 150
ATOM    150  C   LEU d   1     -18.926  -3.249  -4.363  0.00  0.00     0.241 C 
ATOM    151  O   LEU d   1     -19.220  -4.441  -4.265  0.00  0.00    -0.271 OA
ATOM    152  N   ARG d   1     -19.770  -2.331  -4.835  0.00  0.00    -0.346 N 
ATOM    153  H94 ARG d   1     -19.470  -1.379  -4.889  0.00  0.00     0.163 HD
BRANCH 152 154
ATOM    154  CA  ARG d   1     -21.119  -2.674  -5.276  0.00  0.00     0.089 C 
ATOM    155  H95 ARG d   1     -21.692  -1.743  -5.399  0.00  0.00     0.087 H 
BRANCH 154 156
ATOM    156  C   ARG d   1     -21.832  -3.546  -4.244  0.00  0.00     0.241 C 
ATOM    157  O   ARG d   1     -21.949  -4.759  -4.416  0.00  0.00    -0.271 OA
ATOM    158  N   ASP d   1     -22.308  -2.920  -3.170  0.00  0.00    -0.346 N 
ATOM    159 7H10 ASP d   1     -22.182  -1.931  -3.087  0.00  0.00     0.163 HD
BRANCH 158 160
ATOM    160  CA  ASP d   1     -23.008  -3.639  -2.112  0.00  0.00     0.098 C 
ATOM    161 8H10 ASP d   1     -22.343  -4.428  -1.731  0.00  0.00     0.088 H 
BRANCH 160 162
ATOM    162  C   ASP d   1     -24.280  -4.294  -2.644  0.00  0.00     0.241 C 
ATOM    163  O   ASP d   1     -24.383  -5.521  -2.685  0.00  0.00    -0.271 OA
ATOM    164  N   ASN d   1     -25.242  -3.465  -3.048  0.00  0.00    -0.346 N 
ATOM    165 1H11 ASN d   1     -25.089  -2.479  -2.985  0.00  0.00     0.163 HD
BRANCH 164 166
ATOM    166  CA  ASN d   1     -26.514  -3.952  -3.581  0.00  0.00     0.097 C 
ATOM    167 2H11 ASN d   1     -27.115  -3.081  -3.883  0.00  0.00     0.088 H 
BRANCH 166 168
ATOM    168  C   ASN d   1     -27.295  -4.729  -2.525  0.00  0.00     0.241 C 
ATOM    169  O   ASN d   1     -26.843  -5.768  -2.040  0.00  0.00    -0.271 OA
ATOM    170  N   ILE d   1     -28.473  -4.221  -2.175  0.00  0.00    -0.346 N 
ATOM    171 7H11 ILE d   1     -28.786  -3.375  -2.607  0.00  0.00     0.163 HD
BRANCH 170 172
ATOM    172  CA  ILE d   1     -29.321  -4.864  -1.179  0.00  0.00     0.092 C 
ATOM    173 8H11 ILE d   1     -29.135  -5.947  -1.219  0.00  0.00     0.088 H 
BRANCH 172 174
ATOM    174  C   ILE d   1     -30.797  -4.615  -1.473  0.00  0.00     0.241 C 
ATOM    175  O   ILE d   1     -31.649  -5.456  -1.183  0.00  0.00    -0.271 OA
ATOM    176  N   GLN d   1     -31.092  -3.457  -2.055  0.00  0.00    -0.345 N 
ATOM    177 8H12 GLN d   1     -30.354  -2.817  -2.270  0.00  0.00     0.163 HD
BRANCH 176 178
ATOM    178  CA  GLN d   1     -32.465  -3.096  -2.388  0.00  0.00     0.096 C 
ATOM    179 9H12 GLN d   1     -33.115  -3.955  -2.166  0.00  0.00     0.089 H 
BRANCH 178 180
ATOM    180  C   GLN d   1     -32.595  -2.761  -3.872  0.00  0.00     0.196 C 
ATOM    181  O   GLN d   1     -32.340  -1.595  -4.239  0.00  0.00    -0.646 OA
ATOM    182  OXT GLN d   1     -32.947  -3.669  -4.654  0.00  0.00    -0.646 OA
ENDBRANCH 178 180
BRANCH 178 183
ATOM    183  CB  GLN d   1     -32.919  -1.906  -1.540  0.00  0.00    -0.029 C 
ATOM    184 0H13 GLN d   1     -32.285  -1.042  -1.787  0.00  0.00     0.037 H 
ATOM    185 1H13 GLN d   1     -32.789  -2.166  -0.479  0.00  0.00     0.037 H 
BRANCH 183 186
ATOM    186  CG  GLN d   1     -34.371  -1.516  -1.764  0.00  0.00     0.011 C 
ATOM    187 2H13 GLN d   1     -35.009  -2.377  -1.516  0.00  0.00     0.047 H 
ATOM    188 3H13 GLN d   1     -34.506  -1.253  -2.824  0.00  0.00     0.047 H 
BRANCH 186 189
ATOM    189  CD  GLN d   1     -34.796  -0.335  -0.913  0.00  0.00     0.215 C 
ATOM    190  OE1 GLN d   1     -34.287  -0.134   0.189  0.00  0.00    -0.274 OA
ATOM    191  NE2 GLN d   1     -35.733   0.456  -1.424  0.00  0.00    -0.370 N 
ATOM    192 4H13 GLN d   1     -36.053   1.250  -0.908  0.00  0.00     0.159 HD
ATOM    193 5H13 GLN d   1     -36.118   0.257  -2.325  0.00  0.00     0.159 HD
ENDBRANCH 186 189
ENDBRANCH 183 186
ENDBRANCH 178 183
ENDBRANCH 176 178
ENDBRANCH 172 174
BRANCH 172 194
ATOM    194  CB  ILE d   1     -28.992  -4.364   0.244  0.00  0.00    -0.030 C 
ATOM    195 9H11 ILE d   1     -27.950  -4.632   0.475  0.00  0.00     0.043 H 
BRANCH 194 196
ATOM    196  CG1 ILE d   1     -29.904  -5.039   1.274  0.00  0.00    -0.063 C 
ATOM    197 0H12 ILE d   1     -29.839  -6.128   1.134  0.00  0.00     0.033 H 
ATOM    198 1H12 ILE d   1     -30.937  -4.707   1.094  0.00  0.00     0.033 H 
BRANCH 196 199
ATOM    199  CD1 ILE d   1     -29.543  -4.719   2.709  0.00  0.00    -0.076 C 
ATOM    200 5H12 ILE d   1     -30.238  -5.237   3.386  0.00  0.00     0.027 H 
ATOM    201 6H12 ILE d   1     -29.613  -3.633   2.871  0.00  0.00     0.027 H 
ATOM    202 7H12 ILE d   1     -28.515  -5.054   2.912  0.00  0.00     0.027 H 
ENDBRANCH 196 199
ENDBRANCH 194 196
BRANCH 194 203
ATOM    203  CG2 ILE d   1     -29.127  -2.849   0.318  0.00  0.00    -0.071 C 
ATOM    204 2H12 ILE d   1     -28.465  -2.385  -0.428  0.00  0.00     0.028 H 
ATOM    205 3H12 ILE d   1     -28.844  -2.504   1.324  0.00  0.00     0.028 H 
ATOM    206 4H12 ILE d   1     -30.169  -2.563   0.112  0.00  0.00     0.028 H 
ENDBRANCH 194 203
ENDBRANCH 172 194
ENDBRANCH 170 172
ENDBRANCH 166 168
BRANCH 166 207
ATOM    207  CB  ASN d   1     -26.283  -4.831  -4.813  0.00  0.00     0.036 C 
ATOM    208 3H11 ASN d   1     -25.631  -5.670  -4.530  0.00  0.00     0.051 H 
ATOM    209 4H11 ASN d   1     -25.788  -4.228  -5.589  0.00  0.00     0.051 H 
BRANCH 207 210
ATOM    210  CG  ASN d   1     -27.575  -5.389  -5.381  0.00  0.00     0.217 C 
ATOM    211  OD1 ASN d   1     -27.603  -6.497  -5.916  0.00  0.00    -0.274 OA
ATOM    212  ND2 ASN d   1     -28.653  -4.621  -5.271  0.00  0.00    -0.370 N 
ATOM    213 5H11 ASN d   1     -29.532  -4.938  -5.628  0.00  0.00     0.159 HD
ATOM    214 6H11 ASN d   1     -28.586  -3.725  -4.831  0.00  0.00     0.159 HD
ENDBRANCH 207 210
ENDBRANCH 166 207
ENDBRANCH 164 166
ENDBRANCH 160 162
BRANCH 160 215
ATOM    215  CB  ASP d   1     -23.352  -2.692  -0.960  0.00  0.00     0.043 C 
ATOM    216 9H10 ASP d   1     -23.972  -3.233  -0.230  0.00  0.00     0.052 H 
ATOM    217 0H11 ASP d   1     -23.919  -1.839  -1.361  0.00  0.00     0.052 H 
BRANCH 215 218
ATOM    218  CG  ASP d   1     -22.115  -2.168  -0.256  0.00  0.00     0.175 C 
ATOM    219  OD1 ASP d   1     -21.656  -2.824   0.703  0.00  0.00    -0.648 OA
ATOM    220  OD2 ASP d   1     -21.606  -1.103  -0.663  0.00  0.00    -0.648 OA
ENDBRANCH 215 218
ENDBRANCH 160 215
ENDBRANCH 158 160
ENDBRANCH 154 156
BRANCH 154 221
ATOM    221  CB  ARG d   1     -21.064  -3.395  -6.625  0.00  0.00    -0.036 C 
ATOM    222  H96 ARG d   1     -20.649  -4.401  -6.463  0.00  0.00     0.036 H 
ATOM    223  H97 ARG d   1     -20.399  -2.828  -7.293  0.00  0.00     0.036 H 
BRANCH 221 224
ATOM    224  CG  ARG d   1     -22.417  -3.539  -7.305  0.00  0.00    -0.048 C 
ATOM    225  H98 ARG d   1     -23.135  -3.958  -6.585  0.00  0.00     0.035 H 
ATOM    226  H99 ARG d   1     -22.315  -4.223  -8.160  0.00  0.00     0.035 H 
BRANCH 224 227
ATOM    227  CD  ARG d   1     -22.943  -2.201  -7.804  0.00  0.00     0.009 C 
ATOM    228 0H10 ARG d   1     -23.768  -2.384  -8.508  0.00  0.00     0.064 H 
ATOM    229 1H10 ARG d   1     -22.130  -1.671  -8.322  0.00  0.00     0.064 H 
BRANCH 227 230
ATOM    230  NE  ARG d   1     -23.433  -1.362  -6.713  0.00  0.00    -0.227 N 
ATOM    231  CZ  ARG d   1     -24.052  -0.200  -6.895  0.00  0.00     0.665 C 
ATOM    232  NH1 ARG d   1     -24.263   0.259  -8.121  0.00  0.00    -0.235 N 
ATOM    233  NH2 ARG d   1     -24.464   0.503  -5.849  0.00  0.00    -0.235 N 
ATOM    234 3H10 ARG d   1     -24.743   1.160  -8.258  0.00  0.00     0.174 HD
ATOM    235 4H10 ARG d   1     -23.947  -0.285  -8.936  0.00  0.00     0.174 HD
ATOM    236 5H10 ARG d   1     -24.302   0.150  -4.895  0.00  0.00     0.174 HD
ATOM    237 6H10 ARG d   1     -24.946   1.402  -5.990  0.00  0.00     0.174 HD
ATOM    238 2H10 ARG d   1     -23.291  -1.690  -5.747  0.00  0.00     0.177 HD
ENDBRANCH 227 230
ENDBRANCH 224 227
ENDBRANCH 221 224
ENDBRANCH 154 221
ENDBRANCH 152 154
ENDBRANCH 148 150
BRANCH 148 239
ATOM    239  CB  LEU d   1     -17.556  -1.235  -3.696  0.00  0.00    -0.035 C 
ATOM    240  H85 LEU d   1     -18.522  -0.975  -3.238  0.00  0.00     0.037 H 
ATOM    241  H86 LEU d   1     -17.468  -0.737  -4.673  0.00  0.00     0.037 H 
BRANCH 239 242
ATOM    242  CG  LEU d   1     -16.446  -0.691  -2.791  0.00  0.00    -0.059 C 
ATOM    243  H87 LEU d   1     -16.665   0.366  -2.580  0.00  0.00     0.038 H 
BRANCH 242 244
ATOM    244  CD1 LEU d   1     -16.413  -1.442  -1.471  0.00  0.00    -0.073 C 
ATOM    245  H88 LEU d   1     -15.610  -1.036  -0.838  0.00  0.00     0.028 H 
ATOM    246  H89 LEU d   1     -16.226  -2.509  -1.661  0.00  0.00     0.028 H 
ATOM    247  H90 LEU d   1     -17.379  -1.325  -0.958  0.00  0.00     0.028 H 
ENDBRANCH 242 244
BRANCH 242 248
ATOM    248  CD2 LEU d   1     -15.091  -0.766  -3.481  0.00  0.00    -0.073 C 
ATOM    249  H91 LEU d   1     -15.134  -0.218  -4.434  0.00  0.00     0.028 H 
ATOM    250  H92 LEU d   1     -14.836  -1.818  -3.675  0.00  0.00     0.028 H 
ATOM    251  H93 LEU d   1     -14.324  -0.316  -2.833  0.00  0.00     0.028 H 
ENDBRANCH 242 248
ENDBRANCH 239 242
ENDBRANCH 148 239
ENDBRANCH 146 148
ENDBRANCH 142 144
BRANCH 142 252
ATOM    252  CB  VAL d   1     -14.183  -5.343  -6.253  0.00  0.00    -0.033 C 
ATOM    253  H76 VAL d   1     -13.814  -5.263  -5.220  0.00  0.00     0.042 H 
BRANCH 252 254
ATOM    254  CG1 VAL d   1     -14.834  -6.709  -6.423  0.00  0.00    -0.071 C 
ATOM    255  H77 VAL d   1     -14.087  -7.496  -6.245  0.00  0.00     0.028 H 
ATOM    256  H78 VAL d   1     -15.228  -6.803  -7.446  0.00  0.00     0.028 H 
ATOM    257  H79 VAL d   1     -15.658  -6.815  -5.702  0.00  0.00     0.028 H 
ENDBRANCH 252 254
BRANCH 252 258
ATOM    258  CG2 VAL d   1     -13.001  -5.194  -7.200  0.00  0.00    -0.071 C 
ATOM    259  H80 VAL d   1     -12.544  -4.203  -7.063  0.00  0.00     0.028 H 
ATOM    260  H81 VAL d   1     -13.348  -5.298  -8.239  0.00  0.00     0.028 H 
ATOM    261  H82 VAL d   1     -12.256  -5.974  -6.983  0.00  0.00     0.028 H 
ENDBRANCH 252 258
ENDBRANCH 142 252
ENDBRANCH 140 142
ENDBRANCH   1 138
TORSDOF 74
