REMARK  19 active torsions:
REMARK  status: ('A' for Active; 'I' for Inactive)
REMARK    1  A    between atoms: P_1  and  O5'_4 
REMARK    2  A    between atoms: O3B_28  and  P_1 
REMARK    3  A    between atoms: O5'_4  and  C5'_5 
REMARK    4  A    between atoms: C5'_5  and  C4'_6 
REMARK    5  A    between atoms: C3'_8  and  O3'_9 
REMARK    6  A    between atoms: C2'_10  and  O2'_11 
REMARK    7  A    between atoms: C1'_12  and  N9_13 
REMARK    8  A    between atoms: N7_15  and  CM7_24 
REMARK    9  A    between atoms: C2_20  and  N2_21 
REMARK   10  A    between atoms: PB_25  and  O3B_28 
REMARK   11  A    between atoms: PB_25  and  O3A_29 
REMARK   12  A    between atoms: O3A_29  and  PA_30 
REMARK   13  A    between atoms: PA_30  and  O5'_33 
REMARK   14  A    between atoms: O5'_33  and  C5'_34 
REMARK   15  A    between atoms: C5'_34  and  C4'_35 
REMARK   16  A    between atoms: C3'_37  and  O3'_38 
REMARK   17  A    between atoms: C2'_39  and  O2'_40 
REMARK   18  A    between atoms: C1'_41  and  N9_42 
REMARK   19  A    between atoms: C2_49  and  N2_50 
ROOT
ATOM      1  P   7MG d   1      -9.703  -3.222  11.640  0.00  0.00     0.417 P 
ATOM      2  OP1 7MG d   1     -10.826  -2.311  11.965  0.00  0.00    -0.624 OA
ATOM      3  OP2 7MG d   1      -9.542  -3.666  10.234  0.00  0.00    -0.624 OA
ENDROOT
BRANCH   1   4
ATOM      4  O5' 7MG d   1      -8.330  -2.509  12.095  0.00  0.00    -0.287 OA
BRANCH   4   5
ATOM      5  C5' 7MG d   1      -7.074  -3.155  11.954  0.00  0.00     0.058 C 
ATOM      6  H1  7MG d   1      -6.957  -3.474  10.908  0.00  0.00     0.079 H 
ATOM      7  H2  7MG d   1      -7.056  -4.037  12.610  0.00  0.00     0.079 H 
BRANCH   5   8
ATOM      8  C4' 7MG d   1      -5.894  -2.241  12.325  0.00  0.00     0.089 C 
ATOM      9  O4' 7MG d   1      -5.772  -1.124  11.460  0.00  0.00    -0.354 OA
ATOM     10  C1' 7MG d   1      -5.340   0.013  12.197  0.00  0.00     0.136 C 
ATOM     11  C2' 7MG d   1      -5.033  -0.455  13.624  0.00  0.00     0.104 C 
ATOM     12  H8  7MG d   1      -4.430   0.442  11.752  0.00  0.00     0.122 H 
ATOM     13  C3' 7MG d   1      -5.951  -1.680  13.753  0.00  0.00     0.091 C 
ATOM     14  H6  7MG d   1      -5.281   0.311  14.373  0.00  0.00     0.093 H 
ATOM     15  H4  7MG d   1      -6.978  -1.375  14.004  0.00  0.00     0.091 H 
ATOM     16  H3  7MG d   1      -4.982  -2.849  12.235  0.00  0.00     0.090 H 
BRANCH  10  17
ATOM     17  N9  7MG d   1      -6.437   1.004  12.126  0.00  0.00    -0.313 N 
ATOM     18  C8  7MG d   1      -7.794   0.758  12.165  0.00  0.00     0.147 A 
ATOM     19  N7  7MG d   1      -8.480   1.928  11.773  0.00  0.00    -0.039 N 
ATOM     20  H9  7MG d   1      -8.090   0.481  13.187  0.00  0.00     0.108 H 
ATOM     21  H10 7MG d   1      -8.041  -0.063  11.476  0.00  0.00     0.108 H 
ATOM     22  C5  7MG d   1      -7.502   2.863  11.579  0.00  0.00     0.238 A 
ATOM     23  H11 7MG d   1      -8.607   2.243  12.722  0.00  0.00     0.282 HD
ATOM     24  C6  7MG d   1      -7.608   4.198  11.156  0.00  0.00     0.274 A 
ATOM     25  C4  7MG d   1      -6.267   2.341  11.825  0.00  0.00     0.165 A 
ATOM     26  H12 7MG d   1      -7.617   3.208  12.617  0.00  0.00     0.112 H 
ATOM     27  O6  7MG d   1      -8.607   4.822  10.832  0.00  0.00    -0.270 OA
ATOM     28  N1  7MG d   1      -6.422   4.836  11.106  0.00  0.00    -0.154 N 
ATOM     29  C2  7MG d   1      -5.273   4.245  11.350  0.00  0.00     0.723 A 
ATOM     30  H13 7MG d   1      -6.415   5.808  10.871  0.00  0.00     0.187 HD
ATOM     31  N3  7MG d   1      -5.090   3.007  11.738  0.00  0.00    -0.047 NA
BRANCH  19  32
ATOM     32  CM7 7MG d   1      -9.972   1.939  11.638  0.00  0.00     0.070 C 
ATOM     33  H15 7MG d   1     -10.371   0.948  11.900  0.00  0.00     0.068 H 
ATOM     34  H16 7MG d   1     -10.245   2.182  10.600  0.00  0.00     0.068 H 
ATOM     35  H17 7MG d   1     -10.396   2.696  12.315  0.00  0.00     0.068 H 
ENDBRANCH  19  32
BRANCH  29  36
ATOM     36  N2  7MG d   1      -4.261   5.017  11.216  0.00  0.00    -0.116 NA
ATOM     37  H14 7MG d   1      -3.332   4.663  11.380  0.00  0.00     0.206 HD
ENDBRANCH  29  36
ENDBRANCH  10  17
BRANCH  11  38
ATOM     38  O2' 7MG d   1      -3.648  -0.794  13.715  0.00  0.00    -0.388 OA
ATOM     39  H7  7MG d   1      -3.477  -1.200  14.557  0.00  0.00     0.210 HD
ENDBRANCH  11  38
BRANCH  13  40
ATOM     40  O3' 7MG d   1      -5.497  -2.588  14.756  0.00  0.00    -0.390 OA
ATOM     41  H5  7MG d   1      -4.593  -2.822  14.584  0.00  0.00     0.210 HD
ENDBRANCH  13  40
ENDBRANCH   5   8
ENDBRANCH   4   5
ENDBRANCH   1   4
BRANCH   1  42
ATOM     42  O3B GDP d   1      -9.816  -4.529  12.487  0.00  0.00    -0.180 OA
BRANCH  42  43
ATOM     43  PB  GDP d   1     -10.278  -4.752  13.958  0.00  0.00     0.427 P 
ATOM     44  O1B GDP d   1      -9.452  -5.896  14.425  0.00  0.00    -0.624 OA
ATOM     45  O2B GDP d   1     -11.753  -4.936  13.885  0.00  0.00    -0.624 OA
BRANCH  43  46
ATOM     46  O3A GDP d   1      -9.927  -3.467  14.726  0.00  0.00    -0.180 OA
BRANCH  46  47
ATOM     47  PA  GDP d   1      -9.811  -3.418  16.262  0.00  0.00     0.417 P 
ATOM     48  O1A GDP d   1      -8.395  -3.634  16.667  0.00  0.00    -0.624 OA
ATOM     49  O2A GDP d   1     -10.875  -4.205  16.947  0.00  0.00    -0.624 OA
BRANCH  47  50
ATOM     50  O5' GDP d   1     -10.141  -1.866  16.600  0.00  0.00    -0.287 OA
BRANCH  50  51
ATOM     51  C5' GDP d   1      -9.558  -0.783  15.875  0.00  0.00     0.058 C 
ATOM     52  H18 GDP d   1     -10.189   0.108  16.014  0.00  0.00     0.079 H 
ATOM     53  H19 GDP d   1      -9.533  -1.052  14.809  0.00  0.00     0.079 H 
BRANCH  51  54
ATOM     54  C4' GDP d   1      -8.127  -0.440  16.324  0.00  0.00     0.089 C 
ATOM     55  O4' GDP d   1      -7.625   0.560  15.440  0.00  0.00    -0.353 OA
ATOM     56  C1' GDP d   1      -7.323   1.725  16.188  0.00  0.00     0.139 C 
ATOM     57  C2' GDP d   1      -8.141   1.629  17.478  0.00  0.00     0.105 C 
ATOM     58  H25 GDP d   1      -6.252   1.739  16.437  0.00  0.00     0.122 H 
ATOM     59  C3' GDP d   1      -8.069   0.122  17.755  0.00  0.00     0.091 C 
ATOM     60  H23 GDP d   1      -9.181   1.940  17.301  0.00  0.00     0.093 H 
ATOM     61  H21 GDP d   1      -8.916  -0.223  18.366  0.00  0.00     0.091 H 
ATOM     62  H20 GDP d   1      -7.504  -1.345  16.267  0.00  0.00     0.090 H 
BRANCH  56  63
ATOM     63  N9  GDP d   1      -7.638   2.938  15.404  0.00  0.00    -0.295 N 
ATOM     64  C8  GDP d   1      -8.858   3.366  14.948  0.00  0.00     0.071 A 
ATOM     65  N7  GDP d   1      -8.839   4.554  14.396  0.00  0.00    -0.234 NA
ATOM     66  H26 GDP d   1      -9.765   2.770  15.037  0.00  0.00     0.144 H 
ATOM     67  C5  GDP d   1      -7.490   4.933  14.470  0.00  0.00     0.171 A 
ATOM     68  C6  GDP d   1      -6.795   6.119  14.029  0.00  0.00     0.292 A 
ATOM     69  C4  GDP d   1      -6.748   3.924  15.049  0.00  0.00     0.161 A 
ATOM     70  O6  GDP d   1      -7.243   7.138  13.501  0.00  0.00    -0.265 OA
ATOM     71  N1  GDP d   1      -5.427   6.056  14.219  0.00  0.00    -0.154 N 
ATOM     72  C2  GDP d   1      -4.794   4.999  14.784  0.00  0.00     0.680 A 
ATOM     73  H27 GDP d   1      -4.873   6.834  13.923  0.00  0.00     0.187 HD
ATOM     74  N3  GDP d   1      -5.396   3.903  15.239  0.00  0.00    -0.174 N 
ATOM     75  H30 GDP d   1      -4.896   3.122  15.687  0.00  0.00     0.186 HD
BRANCH  72  76
ATOM     76  N2  GDP d   1      -3.493   5.055  14.852  0.00  0.00    -0.234 N 
ATOM     77  H28 GDP d   1      -2.965   4.277  15.273  0.00  0.00     0.174 HD
ATOM     78  H29 GDP d   1      -2.993   5.877  14.485  0.00  0.00     0.174 HD
ENDBRANCH  72  76
ENDBRANCH  56  63
BRANCH  57  79
ATOM     79  O2' GDP d   1      -7.612   2.426  18.534  0.00  0.00    -0.388 OA
ATOM     80  H24 GDP d   1      -6.698   2.204  18.669  0.00  0.00     0.210 HD
ENDBRANCH  57  79
BRANCH  59  81
ATOM     81  O3' GDP d   1      -6.836  -0.227  18.392  0.00  0.00    -0.390 OA
ATOM     82  H22 GDP d   1      -6.823   0.130  19.272  0.00  0.00     0.210 HD
ENDBRANCH  59  81
ENDBRANCH  51  54
ENDBRANCH  50  51
ENDBRANCH  47  50
ENDBRANCH  46  47
ENDBRANCH  43  46
ENDBRANCH  42  43
ENDBRANCH   1  42
TORSDOF 19
