REMARK WARNING: 32 MAX_TORS EXCEEDED!!!
REMARK  40 active torsions:
REMARK  status: ('A' for Active; 'I' for Inactive)
REMARK    1  A    between atoms: CA_2  and  C_3 
REMARK       I    between atoms: C_3  and  N_8 
REMARK    2  A    between atoms: CA_9  and  C_10 
REMARK       I    between atoms: C_10  and  N_15 
REMARK    3  A    between atoms: N_15  and  CA_16 
REMARK    4  A    between atoms: CA_16  and  C_17 
REMARK    5  A    between atoms: CA_16  and  CB_19 
REMARK       I    between atoms: C_17  and  N_22 
REMARK    6  A    between atoms: CB_19  and  CG1_20 
REMARK    7  A    between atoms: CB_19  and  CG2_21 
REMARK    8  A    between atoms: CA_23  and  C_24 
REMARK       I    between atoms: C_24  and  N_29 
REMARK    9  A    between atoms: N_29  and  CA_30 
REMARK   10  A    between atoms: CA_30  and  C_31 
REMARK   11  A    between atoms: CA_30  and  CB_33 
REMARK       I    between atoms: C_31  and  N_37 
REMARK   12  A    between atoms: CB_33  and  CG_34 
REMARK       I    between atoms: CG_34  and  ND2_36 
REMARK   13  A    between atoms: CA_38  and  C_39 
REMARK       I    between atoms: C_39  and  N_44 
REMARK   14  A    between atoms: N_44  and  CA_45 
REMARK   15  A    between atoms: CA_45  and  C_46 
REMARK   16  A    between atoms: CA_45  and  CB_48 
REMARK       I    between atoms: C_46  and  N_52 
REMARK   17  A    between atoms: CB_48  and  CG_49 
REMARK   18  A    between atoms: N_52  and  CA_53 
REMARK   19  A    between atoms: CA_53  and  C_54 
REMARK   20  A    between atoms: CA_53  and  CB_56 
REMARK       I    between atoms: C_54  and  N_64 
REMARK   21  A    between atoms: CB_56  and  CG_57 
REMARK   22  A    between atoms: CZ_62  and  OH_63 
REMARK   23  A    between atoms: N_64  and  CA_65 
REMARK   24  A    between atoms: CA_65  and  C_66 
REMARK   25  A    between atoms: CA_65  and  CB_68 
REMARK       I    between atoms: C_66  and  N_73 
REMARK   26  A    between atoms: CB_68  and  CG_69 
REMARK   27  A    between atoms: CG_69  and  CD_70 
REMARK   28  A    between atoms: CA_74  and  C_75 
REMARK       I    between atoms: C_75  and  N_80 
REMARK   29  A    between atoms: N_80  and  CA_81 
REMARK   30  A    between atoms: CA_81  and  C_82 
REMARK   31  A    between atoms: CA_81  and  CB_84 
REMARK       I    between atoms: C_82  and  N_88 
REMARK   32  A    between atoms: CB_84  and  CG1_85 
REMARK   33  A    between atoms: CB_84  and  CG2_86 
REMARK   34  A    between atoms: CG1_85  and  CD1_87 
REMARK   35  A    between atoms: N_88  and  CA_89 
REMARK   36  A    between atoms: CA_89  and  C_90 
REMARK   37  A    between atoms: CA_89  and  CB_92 
REMARK   38  A    between atoms: CB_92  and  CG_93 
REMARK   39  A    between atoms: CG_93  and  CD_94 
REMARK   40  A    between atoms: CD_94  and  NE_95 
REMARK       I    between atoms: NE_95  and  CZ_96 
REMARK       I    between atoms: CZ_96  and  NH1_97 
ROOT
ATOM      1  CA  ASP d   1      20.934  20.113  10.563  0.00  0.00     0.098 C 
ATOM      2  H47 ASP d   1      21.839  19.504  10.704  0.00  0.00     0.088 H 
ENDROOT
BRANCH   1   3
ATOM      3  N   ASP d   1      20.730  20.908  11.778  0.00  0.00    -0.346 N 
ATOM      4  C   PRO d   1      21.728  21.453  12.476  0.00  0.00     0.241 C 
ATOM      5  O   PRO d   1      22.905  21.383  12.108  0.00  0.00    -0.271 OA
ATOM      6  H46 ASP d   1      19.794  21.049  12.100  0.00  0.00     0.163 HD
BRANCH   4   7
ATOM      7  CA  PRO d   1      21.334  22.190  13.765  0.00  0.00     0.091 C 
ATOM      8  N   PRO d   1      22.241  21.886  14.875  0.00  0.00    -0.337 N 
ATOM      9  C   ASN d   1      22.354  20.660  15.432  0.00  0.00     0.243 C 
ATOM     10  CD  PRO d   1      22.954  23.092  15.280  0.00  0.00    -0.001 C 
ATOM     11  O   ASN d   1      21.800  19.667  14.942  0.00  0.00    -0.271 OA
ATOM     12  CG  PRO d   1      22.753  24.097  14.147  0.00  0.00    -0.048 C 
ATOM     13  H44 PRO d   1      24.024  22.877  15.415  0.00  0.00     0.064 H 
ATOM     14  H45 PRO d   1      22.538  23.486  16.219  0.00  0.00     0.064 H 
ATOM     15  CB  PRO d   1      21.385  23.712  13.588  0.00  0.00    -0.036 C 
ATOM     16  H42 PRO d   1      22.748  25.128  14.529  0.00  0.00     0.035 H 
ATOM     17  H43 PRO d   1      23.537  23.993  13.382  0.00  0.00     0.035 H 
ATOM     18  H40 PRO d   1      20.578  24.200  14.155  0.00  0.00     0.036 H 
ATOM     19  H41 PRO d   1      21.304  23.986  12.526  0.00  0.00     0.036 H 
ATOM     20  H39 PRO d   1      20.312  21.887  14.036  0.00  0.00     0.087 H 
BRANCH   9  21
ATOM     21  CA  ASN d   1      23.224  20.497  16.710  0.00  0.00     0.097 C 
ATOM     22  H34 ASN d   1      23.210  21.469  17.225  0.00  0.00     0.088 H 
BRANCH  21  23
ATOM     23  N   ASN d   1      22.704  19.499  17.660  0.00  0.00    -0.346 N 
ATOM     24  C   PRO d   1      21.429  19.421  18.072  0.00  0.00     0.241 C 
ATOM     25  O   PRO d   1      20.564  20.205  17.669  0.00  0.00    -0.271 OA
ATOM     26  H33 ASN d   1      23.350  18.829  18.026  0.00  0.00     0.163 HD
BRANCH  24  27
ATOM     27  CA  PRO d   1      21.083  18.291  19.070  0.00  0.00     0.091 C 
ATOM     28  N   PRO d   1      19.637  18.165  19.301  0.00  0.00    -0.337 N 
ATOM     29  C   VAL d   1      18.860  19.072  19.940  0.00  0.00     0.243 C 
ATOM     30  CD  PRO d   1      19.158  16.954  18.653  0.00  0.00    -0.001 C 
ATOM     31  O   VAL d   1      19.351  20.063  20.494  0.00  0.00    -0.271 OA
ATOM     32  CG  PRO d   1      20.298  16.448  17.786  0.00  0.00    -0.048 C 
ATOM     33  H31 PRO d   1      18.279  17.178  18.031  0.00  0.00     0.064 H 
ATOM     34  H32 PRO d   1      18.891  16.200  19.408  0.00  0.00     0.064 H 
ATOM     35  CB  PRO d   1      21.517  16.910  18.564  0.00  0.00    -0.036 C 
ATOM     36  H29 PRO d   1      20.274  15.352  17.695  0.00  0.00     0.035 H 
ATOM     37  H30 PRO d   1      20.269  16.900  16.784  0.00  0.00     0.035 H 
ATOM     38  H27 PRO d   1      21.736  16.230  19.401  0.00  0.00     0.036 H 
ATOM     39  H28 PRO d   1      22.400  16.985  17.912  0.00  0.00     0.036 H 
ATOM     40  H26 PRO d   1      21.590  18.511  20.021  0.00  0.00     0.087 H 
BRANCH  29  41
ATOM     41  CA  VAL d   1      17.334  18.796  20.021  0.00  0.00     0.092 C 
ATOM     42  H18 VAL d   1      17.025  18.476  19.015  0.00  0.00     0.088 H 
BRANCH  41  43
ATOM     43  N   VAL d   1      17.052  17.666  20.937  0.00  0.00    -0.346 N 
ATOM     44  C   PRO d   1      17.371  17.631  22.240  0.00  0.00     0.241 C 
ATOM     45  O   PRO d   1      17.835  18.610  22.831  0.00  0.00    -0.271 OA
ATOM     46  H17 VAL d   1      16.588  16.867  20.554  0.00  0.00     0.163 HD
BRANCH  44  47
ATOM     47  CA  PRO d   1      17.111  16.303  22.982  0.00  0.00     0.091 C 
ATOM     48  N   PRO d   1      17.551  16.349  24.381  0.00  0.00    -0.337 N 
ATOM     49  C   PRO d   1      18.847  16.405  24.757  0.00  0.00     0.251 C 
ATOM     50  CD  PRO d   1      16.391  16.390  25.268  0.00  0.00    -0.001 C 
ATOM     51  O   PRO d   1      19.758  16.358  23.924  0.00  0.00    -0.271 OA
ATOM     52  CG  PRO d   1      15.172  16.571  24.363  0.00  0.00    -0.048 C 
ATOM     53  H15 PRO d   1      16.475  17.234  25.968  0.00  0.00     0.064 H 
ATOM     54  H16 PRO d   1      16.310  15.450  25.834  0.00  0.00     0.064 H 
ATOM     55  CB  PRO d   1      15.622  15.939  23.049  0.00  0.00    -0.036 C 
ATOM     56  H13 PRO d   1      14.295  16.049  24.773  0.00  0.00     0.035 H 
ATOM     57  H14 PRO d   1      14.935  17.637  24.228  0.00  0.00     0.035 H 
ATOM     58  H11 PRO d   1      15.482  14.848  23.067  0.00  0.00     0.036 H 
ATOM     59  H12 PRO d   1      15.072  16.365  22.197  0.00  0.00     0.036 H 
ATOM     60  H10 PRO d   1      17.657  15.508  22.453  0.00  0.00     0.087 H 
BRANCH  49  61
ATOM     61  CA  PRO d   1      19.175  16.510  26.268  0.00  0.00     0.178 C 
ATOM     62  N   PRO d   1      19.032  15.199  26.967  0.00  0.00    -0.062 N 
ATOM     63  CD  PRO d   1      20.387  14.843  27.461  0.00  0.00     0.083 C 
ATOM     64  H1  PRO d   1      18.698  14.496  26.326  0.00  0.00     0.278 HD
ATOM     65  H2  PRO d   1      18.390  15.283  27.739  0.00  0.00     0.278 HD
ATOM     66  CG  PRO d   1      21.396  15.706  26.708  0.00  0.00    -0.040 C 
ATOM     67  H8  PRO d   1      20.588  13.778  27.270  0.00  0.00     0.075 H 
ATOM     68  H9  PRO d   1      20.456  15.041  28.541  0.00  0.00     0.075 H 
ATOM     69  CB  PRO d   1      20.605  17.007  26.553  0.00  0.00    -0.028 C 
ATOM     70  H6  PRO d   1      22.314  15.858  27.294  0.00  0.00     0.035 H 
ATOM     71  H7  PRO d   1      21.652  15.270  25.731  0.00  0.00     0.035 H 
ATOM     72  H4  PRO d   1      20.640  17.603  27.477  0.00  0.00     0.036 H 
ATOM     73  H5  PRO d   1      20.990  17.606  25.715  0.00  0.00     0.036 H 
ATOM     74  H3  PRO d   1      18.464  17.224  26.709  0.00  0.00     0.099 H 
ENDBRANCH  49  61
ENDBRANCH  44  47
ENDBRANCH  41  43
BRANCH  41  75
ATOM     75  CB  VAL d   1      16.467  20.037  20.363  0.00  0.00    -0.033 C 
ATOM     76  H19 VAL d   1      16.793  20.402  21.348  0.00  0.00     0.042 H 
BRANCH  75  77
ATOM     77  CG1 VAL d   1      16.569  21.198  19.363  0.00  0.00    -0.071 C 
ATOM     78  H20 VAL d   1      15.921  22.024  19.693  0.00  0.00     0.028 H 
ATOM     79  H21 VAL d   1      16.248  20.855  18.369  0.00  0.00     0.028 H 
ATOM     80  H22 VAL d   1      17.611  21.547  19.311  0.00  0.00     0.028 H 
ENDBRANCH  75  77
BRANCH  75  81
ATOM     81  CG2 VAL d   1      14.975  19.667  20.433  0.00  0.00    -0.071 C 
ATOM     82  H23 VAL d   1      14.836  18.835  21.139  0.00  0.00     0.028 H 
ATOM     83  H24 VAL d   1      14.625  19.364  19.435  0.00  0.00     0.028 H 
ATOM     84  H25 VAL d   1      14.397  20.538  20.775  0.00  0.00     0.028 H 
ENDBRANCH  75  81
ENDBRANCH  41  75
ENDBRANCH  29  41
ENDBRANCH  24  27
ENDBRANCH  21  23
BRANCH  21  85
ATOM     85  CB  ASN d   1      24.696  20.178  16.369  0.00  0.00     0.036 C 
ATOM     86  H35 ASN d   1      24.861  20.379  15.300  0.00  0.00     0.051 H 
ATOM     87  H36 ASN d   1      24.882  19.114  16.575  0.00  0.00     0.051 H 
BRANCH  85  88
ATOM     88  CG  ASN d   1      25.681  21.010  17.178  0.00  0.00     0.217 C 
ATOM     89  OD1 ASN d   1      26.403  21.845  16.650  0.00  0.00    -0.274 OA
ATOM     90  ND2 ASN d   1      25.736  20.836  18.481  0.00  0.00    -0.370 N 
ATOM     91  H37 ASN d   1      26.376  21.373  19.030  0.00  0.00     0.159 HD
ATOM     92  H38 ASN d   1      25.137  20.167  18.922  0.00  0.00     0.159 HD
ENDBRANCH  85  88
ENDBRANCH  21  85
ENDBRANCH   9  21
ENDBRANCH   4   7
ENDBRANCH   1   3
BRANCH   1  93
ATOM     93  C   ASP d   1      21.147  20.980   9.306  0.00  0.00     0.241 C 
ATOM     94  O   ASP d   1      20.595  22.080   9.184  0.00  0.00    -0.271 OA
ATOM     95  N   TYR d   1      21.939  20.474   8.358  0.00  0.00    -0.346 N 
ATOM     96  H50 TYR d   1      22.378  19.593   8.536  0.00  0.00     0.163 HD
BRANCH  95  97
ATOM     97  CA  TYR d   1      22.207  21.127   7.070  0.00  0.00     0.093 C 
ATOM     98  H51 TYR d   1      22.300  22.209   7.246  0.00  0.00     0.088 H 
BRANCH  97  99
ATOM     99  C   TYR d   1      21.060  20.915   6.056  0.00  0.00     0.241 C 
ATOM    100  O   TYR d   1      20.271  19.975   6.173  0.00  0.00    -0.271 OA
ATOM    101  N   GLU d   1      20.995  21.769   5.027  0.00  0.00    -0.346 N 
ATOM    102  H59 GLU d   1      21.696  22.480   4.981  0.00  0.00     0.163 HD
BRANCH 101 103
ATOM    103  CA  GLU d   1      19.980  21.755   3.952  0.00  0.00     0.090 C 
ATOM    104  H60 GLU d   1      20.059  22.726   3.442  0.00  0.00     0.087 H 
BRANCH 103 105
ATOM    105  C   GLU d   1      18.506  21.673   4.450  0.00  0.00     0.243 C 
ATOM    106  O   GLU d   1      17.830  20.651   4.260  0.00  0.00    -0.271 OA
ATOM    107  N   PRO d   1      17.991  22.731   5.117  0.00  0.00    -0.337 N 
ATOM    108  CA  PRO d   1      16.615  22.790   5.625  0.00  0.00     0.091 C 
ATOM    109  CD  PRO d   1      18.687  23.978   5.415  0.00  0.00    -0.001 C 
ATOM    110  CB  PRO d   1      16.582  24.024   6.539  0.00  0.00    -0.036 C 
ATOM    111  H65 PRO d   1      16.414  21.888   6.221  0.00  0.00     0.087 H 
ATOM    112  CG  PRO d   1      17.619  24.951   5.913  0.00  0.00    -0.048 C 
ATOM    113  H66 PRO d   1      16.861  23.759   7.569  0.00  0.00     0.036 H 
ATOM    114  H67 PRO d   1      15.585  24.489   6.537  0.00  0.00     0.036 H 
ATOM    115  H68 PRO d   1      18.032  25.645   6.660  0.00  0.00     0.035 H 
ATOM    116  H69 PRO d   1      17.186  25.524   5.080  0.00  0.00     0.035 H 
ATOM    117  H70 PRO d   1      19.169  24.372   4.508  0.00  0.00     0.064 H 
ATOM    118  H71 PRO d   1      19.447  23.814   6.193  0.00  0.00     0.064 H 
BRANCH 108 119
ATOM    119  C   PRO d   1      15.544  22.866   4.513  0.00  0.00     0.241 C 
ATOM    120  O   PRO d   1      15.838  23.037   3.326  0.00  0.00    -0.271 OA
ATOM    121  N   ILE d   1      14.271  22.782   4.924  0.00  0.00    -0.346 N 
ATOM    122  H72 ILE d   1      14.115  22.755   5.911  0.00  0.00     0.163 HD
BRANCH 121 123
ATOM    123  CA  ILE d   1      13.072  22.725   4.054  0.00  0.00     0.092 C 
ATOM    124  H73 ILE d   1      13.411  22.499   3.032  0.00  0.00     0.088 H 
BRANCH 123 125
ATOM    125  C   ILE d   1      12.354  24.100   4.009  0.00  0.00     0.241 C 
ATOM    126  O   ILE d   1      11.124  24.197   3.948  0.00  0.00    -0.271 OA
ATOM    127  N   ARG d   1      13.128  25.187   4.117  0.00  0.00    -0.348 N 
ATOM    128  H83 ARG d   1      14.117  25.038   4.127  0.00  0.00     0.163 HD
BRANCH 127 129
ATOM    129  CA  ARG d   1      12.663  26.587   4.223  0.00  0.00     0.062 C 
ATOM    130  H84 ARG d   1      11.668  26.645   3.757  0.00  0.00     0.083 H 
BRANCH 129 131
ATOM    131  C   ARG d   1      13.584  27.559   3.477  0.00  0.00     0.109 C 
ATOM    132  O   ARG d   1      14.823  27.443   3.598  0.00  0.00    -0.305 OA
ATOM    133  H85 ARG d   1      13.164  28.342   2.848  0.00  0.00     0.146 H 
ENDBRANCH 129 131
BRANCH 129 134
ATOM    134  CB  ARG d   1      12.521  27.004   5.702  0.00  0.00    -0.039 C 
ATOM    135  H86 ARG d   1      12.213  28.059   5.741  0.00  0.00     0.036 H 
ATOM    136  H87 ARG d   1      13.498  26.889   6.194  0.00  0.00     0.036 H 
BRANCH 134 137
ATOM    137  CG  ARG d   1      11.484  26.162   6.466  0.00  0.00    -0.048 C 
ATOM    138  H88 ARG d   1      11.911  25.165   6.647  0.00  0.00     0.035 H 
ATOM    139  H89 ARG d   1      10.584  26.067   5.841  0.00  0.00     0.035 H 
BRANCH 137 140
ATOM    140  CD  ARG d   1      11.076  26.766   7.813  0.00  0.00     0.009 C 
ATOM    141  H90 ARG d   1      10.245  26.174   8.225  0.00  0.00     0.064 H 
ATOM    142  H91 ARG d   1      10.742  27.800   7.646  0.00  0.00     0.064 H 
BRANCH 140 143
ATOM    143  NE  ARG d   1      12.178  26.781   8.799  0.00  0.00    -0.227 N 
ATOM    144  CZ  ARG d   1      12.860  27.832   9.222  0.00  0.00     0.665 C 
ATOM    145  NH1 ARG d   1      12.749  29.010   8.679  0.00  0.00    -0.235 N 
ATOM    146  NH2 ARG d   1      13.687  27.714  10.220  0.00  0.00    -0.235 N 
ATOM    147  H93 ARG d   1      13.301  29.799   9.043  0.00  0.00     0.174 HD
ATOM    148  H94 ARG d   1      12.109  29.153   7.885  0.00  0.00     0.174 HD
ATOM    149  H95 ARG d   1      13.809  26.802  10.682  0.00  0.00     0.174 HD
ATOM    150  H96 ARG d   1      14.219  28.533  10.547  0.00  0.00     0.174 HD
ATOM    151  H92 ARG d   1      12.444  25.871   9.201  0.00  0.00     0.177 HD
ENDBRANCH 140 143
ENDBRANCH 137 140
ENDBRANCH 134 137
ENDBRANCH 129 134
ENDBRANCH 127 129
ENDBRANCH 123 125
BRANCH 123 152
ATOM    152  CB  ILE d   1      12.130  21.571   4.495  0.00  0.00    -0.030 C 
ATOM    153  H74 ILE d   1      11.519  21.951   5.327  0.00  0.00     0.043 H 
BRANCH 152 154
ATOM    154  CG1 ILE d   1      12.888  20.316   5.011  0.00  0.00    -0.063 C 
ATOM    155  H75 ILE d   1      13.399  20.593   5.945  0.00  0.00     0.033 H 
ATOM    156  H76 ILE d   1      13.635  20.040   4.252  0.00  0.00     0.033 H 
BRANCH 154 157
ATOM    157  CD1 ILE d   1      12.029  19.073   5.298  0.00  0.00    -0.076 C 
ATOM    158  H80 ILE d   1      12.674  18.256   5.655  0.00  0.00     0.027 H 
ATOM    159  H81 ILE d   1      11.517  18.760   4.376  0.00  0.00     0.027 H 
ATOM    160  H82 ILE d   1      11.282  19.314   6.069  0.00  0.00     0.027 H 
ENDBRANCH 154 157
ENDBRANCH 152 154
BRANCH 152 161
ATOM    161  CG2 ILE d   1      11.180  21.175   3.355  0.00  0.00    -0.071 C 
ATOM    162  H77 ILE d   1      10.647  22.067   2.995  0.00  0.00     0.028 H 
ATOM    163  H78 ILE d   1      10.452  20.437   3.724  0.00  0.00     0.028 H 
ATOM    164  H79 ILE d   1      11.760  20.737   2.530  0.00  0.00     0.028 H 
ENDBRANCH 152 161
ENDBRANCH 123 152
ENDBRANCH 121 123
ENDBRANCH 108 119
ENDBRANCH 103 105
BRANCH 103 165
ATOM    165  CB  GLU d   1      20.358  20.684   2.906  0.00  0.00    -0.029 C 
ATOM    166  H61 GLU d   1      20.099  19.696   3.314  0.00  0.00     0.037 H 
ATOM    167  H62 GLU d   1      21.443  20.737   2.734  0.00  0.00     0.037 H 
BRANCH 165 168
ATOM    168  CG  GLU d   1      19.647  20.849   1.554  0.00  0.00     0.018 C 
ATOM    169  H63 GLU d   1      18.560  20.864   1.724  0.00  0.00     0.049 H 
ATOM    170  H64 GLU d   1      19.905  19.995   0.911  0.00  0.00     0.049 H 
BRANCH 168 171
ATOM    171  CD  GLU d   1      20.056  22.151   0.839  0.00  0.00     0.172 C 
ATOM    172  OE1 GLU d   1      21.190  22.230   0.308  0.00  0.00    -0.648 OA
ATOM    173  OE2 GLU d   1      19.248  23.110   0.806  0.00  0.00    -0.648 OA
ENDBRANCH 168 171
ENDBRANCH 165 168
ENDBRANCH 103 165
ENDBRANCH 101 103
ENDBRANCH  97  99
BRANCH  97 174
ATOM    174  CB  TYR d   1      23.548  20.609   6.522  0.00  0.00    -0.014 C 
ATOM    175  H52 TYR d   1      23.681  20.999   5.502  0.00  0.00     0.043 H 
ATOM    176  H53 TYR d   1      23.510  19.510   6.492  0.00  0.00     0.043 H 
BRANCH 174 177
ATOM    177  CG  TYR d   1      24.751  21.026   7.357  0.00  0.00    -0.056 A 
ATOM    178  CD1 TYR d   1      25.189  20.225   8.431  0.00  0.00    -0.074 A 
ATOM    179  CE1 TYR d   1      26.286  20.629   9.218  0.00  0.00    -0.051 A 
ATOM    180  H54 TYR d   1      24.680  19.294   8.653  0.00  0.00     0.084 H 
ATOM    181  CZ  TYR d   1      26.951  21.841   8.933  0.00  0.00     0.065 A 
ATOM    182  H56 TYR d   1      26.619  20.009  10.042  0.00  0.00     0.087 H 
ATOM    183  CE2 TYR d   1      26.516  22.644   7.856  0.00  0.00    -0.051 A 
ATOM    184  CD2 TYR d   1      25.417  22.236   7.072  0.00  0.00    -0.074 A 
ATOM    185  H57 TYR d   1      27.027  23.574   7.632  0.00  0.00     0.087 H 
ATOM    186  H55 TYR d   1      25.083  22.855   6.247  0.00  0.00     0.084 H 
BRANCH 181 187
ATOM    187  OH  TYR d   1      28.007  22.229   9.700  0.00  0.00    -0.361 OA
ATOM    188  H58 TYR d   1      28.164  21.578  10.374  0.00  0.00     0.217 HD
ENDBRANCH 181 187
ENDBRANCH 174 177
ENDBRANCH  97 174
ENDBRANCH  95  97
ENDBRANCH   1  93
BRANCH   1 189
ATOM    189  CB  ASP d   1      19.741  19.169  10.377  0.00  0.00     0.043 C 
ATOM    190  H48 ASP d   1      18.953  19.689   9.813  0.00  0.00     0.052 H 
ATOM    191  H49 ASP d   1      19.354  18.877  11.364  0.00  0.00     0.052 H 
BRANCH 189 192
ATOM    192  CG  ASP d   1      20.165  17.909   9.608  0.00  0.00     0.175 C 
ATOM    193  OD1 ASP d   1      21.046  17.179  10.118  0.00  0.00    -0.648 OA
ATOM    194  OD2 ASP d   1      19.631  17.654   8.503  0.00  0.00    -0.648 OA
ENDBRANCH 189 192
ENDBRANCH   1 189
TORSDOF 40
