REMARK  7 active torsions:
REMARK  status: ('A' for Active; 'I' for Inactive)
REMARK    1  A    between atoms: C1_1  and  C7_7 
REMARK    2  A    between atoms: O4_17  and  C4_4 
REMARK    3  A    between atoms: C7_7  and  C8_8 
REMARK    4  A    between atoms: C8_8  and  C9_9 
REMARK    5  A    between atoms: C8_8  and  N8_16 
REMARK    6  A    between atoms: C1'_10  and  O4_17 
REMARK    7  A    between atoms: C4'_13  and  O4'_18 
ROOT
ATOM      1  C1  T44 d   1      21.055  44.046   0.743  0.00  0.00    -0.053 A 
ATOM      2  C2  T44 d   1      22.281  44.381   1.338  0.00  0.00    -0.058 A 
ATOM      3  C3  T44 d   1      22.641  43.786   2.532  0.00  0.00     0.042 A 
ATOM      4  C4  T44 d   1      21.865  42.868   3.211  0.00  0.00     0.109 A 
ATOM      5  C5  T44 d   1      20.661  42.553   2.593  0.00  0.00     0.042 A 
ATOM      6  C6  T44 d   1      20.279  43.139   1.392  0.00  0.00    -0.058 A 
ATOM      7  I3  T44 d   1      24.475  44.341   3.368  0.00  0.00    -0.042 I 
ATOM      8  I5  T44 d   1      19.266  41.219   3.330  0.00  0.00    -0.042 I 
ATOM      9  H1  T44 d   1      22.940  45.100   0.865  0.00  0.00     0.086 H 
ATOM     10  H2  T44 d   1      19.326  42.862   0.957  0.00  0.00     0.086 H 
ENDROOT
BRANCH   4  11
ATOM     11  O4  T44 d   1      22.256  42.237   4.380  0.00  0.00    -0.308 OA
BRANCH  11  12
ATOM     12  C1' T44 d   1      21.788  42.594   5.643  0.00  0.00     0.078 A 
ATOM     13  C2' T44 d   1      21.119  43.722   5.903  0.00  0.00    -0.032 A 
ATOM     14  C3' T44 d   1      20.715  43.998   7.209  0.00  0.00     0.043 A 
ATOM     15  H6  T44 d   1      20.892  44.418   5.104  0.00  0.00     0.089 H 
ATOM     16  C4' T44 d   1      20.951  43.164   8.301  0.00  0.00     0.098 A 
ATOM     17  I3' T44 d   1      19.706  45.815   7.395  0.00  0.00    -0.042 I 
ATOM     18  C5' T44 d   1      21.652  41.985   7.993  0.00  0.00     0.043 A 
ATOM     19  C6' T44 d   1      22.078  41.674   6.679  0.00  0.00    -0.032 A 
ATOM     20  I5' T44 d   1      21.997  40.712   9.644  0.00  0.00    -0.042 I 
ATOM     21  H7  T44 d   1      22.613  40.754   6.471  0.00  0.00     0.089 H 
BRANCH  16  22
ATOM     22  O4' T44 d   1      20.530  43.500   9.512  0.00  0.00    -0.358 OA
ATOM     23  H11 T44 d   1      20.084  44.337   9.470  0.00  0.00     0.217 HD
ENDBRANCH  16  22
ENDBRANCH  11  12
ENDBRANCH   4  11
BRANCH   1  24
ATOM     24  C7  T44 d   1      20.584  44.619  -0.514  0.00  0.00    -0.005 C 
ATOM     25  H3  T44 d   1      21.094  45.577  -0.691  0.00  0.00     0.044 H 
ATOM     26  H4  T44 d   1      19.499  44.787  -0.454  0.00  0.00     0.044 H 
BRANCH  24  27
ATOM     27  C8  T44 d   1      20.873  43.703  -1.621  0.00  0.00     0.186 C 
ATOM     28  H5  T44 d   1      21.694  43.033  -1.326  0.00  0.00     0.101 H 
BRANCH  27  29
ATOM     29  C9  T44 d   1      19.658  42.877  -2.156  0.00  0.00     0.204 C 
ATOM     30  O9  T44 d   1      18.528  43.352  -2.104  0.00  0.00    -0.646 OA
ATOM     31  O10 T44 d   1      19.980  41.760  -2.603  0.00  0.00    -0.646 OA
ENDBRANCH  27  29
BRANCH  27  32
ATOM     32  N8  T44 d   1      21.213  44.505  -2.829  0.00  0.00    -0.065 N 
ATOM     33  H8  T44 d   1      21.414  43.885  -3.598  0.00  0.00     0.275 HD
ATOM     34  H9  T44 d   1      22.022  45.075  -2.637  0.00  0.00     0.275 HD
ATOM     35  H10 T44 d   1      20.433  45.097  -3.070  0.00  0.00     0.275 HD
ENDBRANCH  27  32
ENDBRANCH  24  27
ENDBRANCH   1  24
TORSDOF 7
