REMARK WARNING: 32 MAX_TORS EXCEEDED!!!
REMARK  89 active torsions:
REMARK  status: ('A' for Active; 'I' for Inactive)
REMARK    1  A    between atoms: N_1  and  CA_2 
REMARK    2  A    between atoms: CA_2  and  C_3 
REMARK    3  A    between atoms: CA_2  and  CB_5 
REMARK       I    between atoms: C_3  and  N_7 
REMARK    4  A    between atoms: CB_5  and  SG_6 
REMARK    5  A    between atoms: N_7  and  CA_8 
REMARK    6  A    between atoms: CA_8  and  C_9 
REMARK    7  A    between atoms: CA_8  and  CB_11 
REMARK       I    between atoms: C_9  and  N_15 
REMARK    8  A    between atoms: CB_11  and  CG1_12 
REMARK    9  A    between atoms: CB_11  and  CG2_13 
REMARK   10  A    between atoms: CG1_12  and  CD1_14 
REMARK   11  A    between atoms: N_15  and  CA_16 
REMARK   12  A    between atoms: CA_16  and  C_17 
REMARK   13  A    between atoms: CA_16  and  CB_19 
REMARK       I    between atoms: C_17  and  N_23 
REMARK   14  A    between atoms: CB_19  and  CG1_20 
REMARK   15  A    between atoms: CB_19  and  CG2_21 
REMARK   16  A    between atoms: CG1_20  and  CD1_22 
REMARK   17  A    between atoms: N_23  and  CA_24 
REMARK   18  A    between atoms: CA_24  and  C_25 
REMARK   19  A    between atoms: CA_24  and  CB_27 
REMARK       I    between atoms: C_25  and  N_29 
REMARK   20  A    between atoms: CB_27  and  OG_28 
REMARK   21  A    between atoms: N_29  and  CA_30 
REMARK   22  A    between atoms: CA_30  and  C_31 
REMARK   23  A    between atoms: CA_30  and  CB_33 
REMARK       I    between atoms: C_31  and  N_34 
REMARK   24  A    between atoms: N_34  and  CA_35 
REMARK   25  A    between atoms: CA_35  and  C_36 
REMARK   26  A    between atoms: CA_35  and  CB_38 
REMARK       I    between atoms: C_36  and  N_42 
REMARK   27  A    between atoms: CB_38  and  CG_39 
REMARK   28  A    between atoms: CG_39  and  SD_40 
REMARK   29  A    between atoms: SD_40  and  CE_41 
REMARK   30  A    between atoms: CA_43  and  C_44 
REMARK       I    between atoms: C_44  and  N_49 
REMARK   31  A    between atoms: N_49  and  CA_50 
REMARK   32  A    between atoms: CA_50  and  C_51 
REMARK   33  A    between atoms: CA_50  and  CB_53 
REMARK       I    between atoms: C_51  and  N_56 
REMARK   34  A    between atoms: CB_53  and  OG1_54 
REMARK   35  A    between atoms: CB_53  and  CG2_55 
REMARK   36  A    between atoms: N_56  and  CA_57 
REMARK   37  A    between atoms: CA_57  and  C_58 
REMARK   38  A    between atoms: CA_57  and  CB_60 
REMARK       I    between atoms: C_58  and  N_65 
REMARK   39  A    between atoms: CB_60  and  CG_61 
REMARK   40  A    between atoms: CG_61  and  CD_62 
REMARK   41  A    between atoms: CD_62  and  CE_63 
REMARK   42  A    between atoms: CE_63  and  NZ_64 
REMARK   43  A    between atoms: N_65  and  CA_66 
REMARK   44  A    between atoms: CA_66  and  C_67 
REMARK   45  A    between atoms: CA_66  and  CB_69 
REMARK       I    between atoms: C_67  and  N_71 
REMARK   46  A    between atoms: CB_69  and  OG_70 
REMARK   47  A    between atoms: N_71  and  CA_72 
REMARK   48  A    between atoms: CA_72  and  C_73 
REMARK   49  A    between atoms: CA_72  and  CB_75 
REMARK       I    between atoms: C_73  and  N_77 
REMARK   50  A    between atoms: CB_75  and  OG_76 
REMARK   51  A    between atoms: N_77  and  CA_78 
REMARK   52  A    between atoms: CA_78  and  C_79 
REMARK   53  A    between atoms: CA_78  and  CB_81 
REMARK       I    between atoms: C_79  and  N_88 
REMARK   54  A    between atoms: CB_81  and  CG_82 
REMARK   55  A    between atoms: CG_82  and  CD_83 
REMARK   56  A    between atoms: CD_83  and  NE_84 
REMARK       I    between atoms: NE_84  and  CZ_85 
REMARK       I    between atoms: CZ_85  and  NH1_86 
REMARK   57  A    between atoms: N_88  and  CA_89 
REMARK   58  A    between atoms: CA_89  and  C_90 
REMARK   59  A    between atoms: CA_89  and  CB_92 
REMARK       I    between atoms: C_90  and  N_97 
REMARK   60  A    between atoms: CB_92  and  CG_93 
REMARK   61  A    between atoms: CG_93  and  CD_94 
REMARK   62  A    between atoms: CD_94  and  CE_95 
REMARK   63  A    between atoms: CE_95  and  NZ_96 
REMARK   64  A    between atoms: N_97  and  CA_98 
REMARK   65  A    between atoms: CA_98  and  C_99 
REMARK   66  A    between atoms: CA_98  and  CB_101 
REMARK       I    between atoms: C_99  and  N_102 
REMARK   67  A    between atoms: N_102  and  CA_103 
REMARK   68  A    between atoms: CA_103  and  C_104 
REMARK   69  A    between atoms: CA_103  and  CB_106 
REMARK       I    between atoms: C_104  and  N_111 
REMARK   70  A    between atoms: CB_106  and  CG_107 
REMARK   71  A    between atoms: CG_107  and  CD_108 
REMARK   72  A    between atoms: CD_108  and  CE_109 
REMARK   73  A    between atoms: CE_109  and  NZ_110 
REMARK   74  A    between atoms: N_111  and  CA_112 
REMARK   75  A    between atoms: CA_112  and  C_113 
REMARK   76  A    between atoms: CA_112  and  CB_115 
REMARK       I    between atoms: C_113  and  N_120 
REMARK   77  A    between atoms: CB_115  and  CG_116 
REMARK   78  A    between atoms: CG_116  and  CD_117 
REMARK   79  A    between atoms: CD_117  and  CE_118 
REMARK   80  A    between atoms: CE_118  and  NZ_119 
REMARK   81  A    between atoms: CA_121  and  C_122 
REMARK       I    between atoms: C_122  and  N_127 
REMARK   82  A    between atoms: N_127  and  CA_128 
REMARK   83  A    between atoms: CA_128  and  C_129 
REMARK   84  A    between atoms: CA_128  and  CB_131 
REMARK       I    between atoms: C_129  and  N_132 
REMARK   85  A    between atoms: N_132  and  CA_133 
REMARK   86  A    between atoms: CA_133  and  C_134 
REMARK   87  A    between atoms: CA_133  and  CB_136 
REMARK   88  A    between atoms: CB_136  and  CG_137 
REMARK   89  A    between atoms: CG_137  and  CD_138 
REMARK       I    between atoms: CD_138  and  NE2_140 
ROOT
ATOM      1  C   SER d   1       2.199  23.819   5.440  0.00  0.00     0.243 C 
ATOM      2  O   SER d   1       1.761  24.615   4.608  0.00  0.00    -0.271 OA
ATOM      3  N   SER d   1       1.469  23.300   6.427  0.00  0.00    -0.344 N 
ATOM      4  H81 SER d   1       1.929  22.747   7.122  0.00  0.00     0.163 HD
ENDROOT
BRANCH   3   5
ATOM      5  CA  SER d   1       0.029  23.502   6.539  0.00  0.00     0.109 C 
ATOM      6  H82 SER d   1      -0.309  23.048   7.482  0.00  0.00     0.090 H 
BRANCH   5   7
ATOM      7  C   SER d   1      -0.685  22.808   5.391  0.00  0.00     0.243 C 
ATOM      8  O   SER d   1      -0.486  23.135   4.223  0.00  0.00    -0.271 OA
ATOM      9  N   ARG d   1      -1.504  21.835   5.726  0.00  0.00    -0.346 N 
ATOM     10  H86 ARG d   1      -1.681  21.653   6.693  0.00  0.00     0.163 HD
BRANCH   9  11
ATOM     11  CA  ARG d   1      -2.153  21.023   4.719  0.00  0.00     0.089 C 
ATOM     12  H87 ARG d   1      -1.382  20.650   4.029  0.00  0.00     0.087 H 
BRANCH  11  13
ATOM     13  C   ARG d   1      -3.147  21.842   3.910  0.00  0.00     0.241 C 
ATOM     14  O   ARG d   1      -4.239  22.157   4.376  0.00  0.00    -0.271 OA
ATOM     15  N   LYS d   1      -2.743  22.170   2.686  0.00  0.00    -0.346 N 
ATOM     16  H99 LYS d   1      -1.859  21.826   2.369  0.00  0.00     0.163 HD
BRANCH  15  17
ATOM     17  CA  LYS d   1      -3.527  23.008   1.783  0.00  0.00     0.089 C 
ATOM     18 0H10 LYS d   1      -3.684  23.986   2.260  0.00  0.00     0.087 H 
BRANCH  17  19
ATOM     19  C   LYS d   1      -4.886  22.375   1.502  0.00  0.00     0.241 C 
ATOM     20  O   LYS d   1      -5.883  23.070   1.288  0.00  0.00    -0.271 OA
ATOM     21  N   ALA d   1      -4.908  21.050   1.506  0.00  0.00    -0.346 N 
ATOM     22 2H11 ALA d   1      -4.056  20.553   1.672  0.00  0.00     0.163 HD
BRANCH  21  23
ATOM     23  CA  ALA d   1      -6.129  20.294   1.277  0.00  0.00     0.086 C 
ATOM     24 3H11 ALA d   1      -6.528  20.571   0.290  0.00  0.00     0.086 H 
BRANCH  23  25
ATOM     25  C   ALA d   1      -7.189  20.609   2.329  0.00  0.00     0.240 C 
ATOM     26  O   ALA d   1      -8.370  20.743   2.010  0.00  0.00    -0.271 OA
ATOM     27  N   LYS d   1      -6.769  20.747   3.580  0.00  0.00    -0.346 N 
ATOM     28 7H11 LYS d   1      -5.789  20.720   3.777  0.00  0.00     0.163 HD
BRANCH  27  29
ATOM     29  CA  LYS d   1      -7.715  20.937   4.669  0.00  0.00     0.089 C 
ATOM     30 8H11 LYS d   1      -8.692  20.549   4.346  0.00  0.00     0.087 H 
BRANCH  29  31
ATOM     31  C   LYS d   1      -7.869  22.414   4.998  0.00  0.00     0.241 C 
ATOM     32  O   LYS d   1      -6.919  23.191   4.896  0.00  0.00    -0.271 OA
ATOM     33  N   LYS d   1      -9.076  22.799   5.365  0.00  0.00    -0.346 N 
ATOM     34 0H13 LYS d   1      -9.822  22.133   5.357  0.00  0.00     0.163 HD
BRANCH  33  35
ATOM     35  CA  LYS d   1      -9.351  24.159   5.779  0.00  0.00     0.089 C 
ATOM     36 1H13 LYS d   1      -8.466  24.777   5.569  0.00  0.00     0.087 H 
BRANCH  35  37
ATOM     37  C   LYS d   1      -9.621  24.185   7.272  0.00  0.00     0.243 C 
ATOM     38  O   LYS d   1     -10.300  23.300   7.796  0.00  0.00    -0.271 OA
ATOM     39  N   PRO d   1      -9.057  25.169   7.982  0.00  0.00    -0.337 N 
ATOM     40  CA  PRO d   1      -9.260  25.322   9.423  0.00  0.00     0.091 C 
ATOM     41  CD  PRO d   1      -8.166  26.206   7.443  0.00  0.00    -0.001 C 
ATOM     42  CB  PRO d   1      -8.372  26.517   9.798  0.00  0.00    -0.036 C 
ATOM     43 3H14 PRO d   1      -8.938  24.415   9.956  0.00  0.00     0.087 H 
ATOM     44  CG  PRO d   1      -7.420  26.665   8.659  0.00  0.00    -0.048 C 
ATOM     45 4H14 PRO d   1      -7.828  26.316  10.733  0.00  0.00     0.036 H 
ATOM     46 5H14 PRO d   1      -8.978  27.427   9.915  0.00  0.00     0.036 H 
ATOM     47 6H14 PRO d   1      -6.529  26.040   8.820  0.00  0.00     0.035 H 
ATOM     48 7H14 PRO d   1      -7.116  27.716   8.548  0.00  0.00     0.035 H 
ATOM     49 8H14 PRO d   1      -8.741  27.030   6.996  0.00  0.00     0.064 H 
ATOM     50 9H14 PRO d   1      -7.480  25.788   6.691  0.00  0.00     0.064 H 
BRANCH  40  51
ATOM     51  C   PRO d   1     -10.720  25.609   9.758  0.00  0.00     0.241 C 
ATOM     52  O   PRO d   1     -11.159  26.761   9.731  0.00  0.00    -0.271 OA
ATOM     53  N   ALA d   1     -11.467  24.548  10.047  0.00  0.00    -0.346 N 
ATOM     54 0H15 ALA d   1     -11.045  23.642  10.030  0.00  0.00     0.163 HD
BRANCH  53  55
ATOM     55  CA  ALA d   1     -12.879  24.659  10.388  0.00  0.00     0.086 C 
ATOM     56 1H15 ALA d   1     -13.408  25.110   9.535  0.00  0.00     0.086 H 
BRANCH  55  57
ATOM     57  C   ALA d   1     -13.080  25.556  11.609  0.00  0.00     0.240 C 
ATOM     58  O   ALA d   1     -12.631  25.229  12.709  0.00  0.00    -0.271 OA
ATOM     59  N   GLN d   1     -13.735  26.691  11.411  0.00  0.00    -0.345 N 
ATOM     60 5H15 GLN d   1     -14.061  26.911  10.492  0.00  0.00     0.163 HD
BRANCH  59  61
ATOM     61  CA  GLN d   1     -13.992  27.622  12.493  0.00  0.00     0.096 C 
ATOM     62 6H15 GLN d   1     -13.467  27.271  13.394  0.00  0.00     0.089 H 
BRANCH  61  63
ATOM     63  C   GLN d   1     -15.483  27.672  12.782  0.00  0.00     0.196 C 
ATOM     64  O   GLN d   1     -16.224  28.275  11.981  0.00  0.00    -0.646 OA
ATOM     65  OXT GLN d   1     -15.910  27.108  13.808  0.00  0.00    -0.646 OA
ENDBRANCH  61  63
BRANCH  61  66
ATOM     66  CB  GLN d   1     -13.474  29.019  12.137  0.00  0.00    -0.029 C 
ATOM     67 7H15 GLN d   1     -13.844  29.728  12.892  0.00  0.00     0.037 H 
ATOM     68 8H15 GLN d   1     -13.872  29.294  11.149  0.00  0.00     0.037 H 
BRANCH  66  69
ATOM     69  CG  GLN d   1     -11.957  29.122  12.087  0.00  0.00     0.011 C 
ATOM     70 9H15 GLN d   1     -11.684  30.113  11.696  0.00  0.00     0.047 H 
ATOM     71 0H16 GLN d   1     -11.574  28.343  11.411  0.00  0.00     0.047 H 
BRANCH  69  72
ATOM     72  CD  GLN d   1     -11.311  28.943  13.449  0.00  0.00     0.215 C 
ATOM     73  OE1 GLN d   1     -10.977  27.830  13.857  0.00  0.00    -0.274 OA
ATOM     74  NE2 GLN d   1     -11.125  30.042  14.164  0.00  0.00    -0.370 N 
ATOM     75 1H16 GLN d   1     -10.704  29.984  15.069  0.00  0.00     0.159 HD
ATOM     76 2H16 GLN d   1     -11.406  30.930  13.799  0.00  0.00     0.159 HD
ENDBRANCH  69  72
ENDBRANCH  66  69
ENDBRANCH  61  66
ENDBRANCH  59  61
ENDBRANCH  55  57
BRANCH  55  77
ATOM     77  CB  ALA d   1     -13.465  23.279  10.647  0.00  0.00    -0.049 C 
ATOM     78 2H15 ALA d   1     -14.530  23.375  10.903  0.00  0.00     0.030 H 
ATOM     79 3H15 ALA d   1     -12.929  22.804  11.482  0.00  0.00     0.030 H 
ATOM     80 4H15 ALA d   1     -13.360  22.660   9.743  0.00  0.00     0.030 H 
ENDBRANCH  55  77
ENDBRANCH  53  55
ENDBRANCH  40  51
ENDBRANCH  35  37
BRANCH  35  81
ATOM     81  CB  LYS d   1     -10.543  24.741   5.007  0.00  0.00    -0.038 C 
ATOM     82 2H13 LYS d   1     -10.942  25.592   5.578  0.00  0.00     0.036 H 
ATOM     83 3H13 LYS d   1     -11.315  23.962   4.923  0.00  0.00     0.036 H 
BRANCH  81  84
ATOM     84  CG  LYS d   1     -10.197  25.225   3.604  0.00  0.00    -0.061 C 
ATOM     85 4H13 LYS d   1      -9.408  25.987   3.677  0.00  0.00     0.033 H 
ATOM     86 5H13 LYS d   1     -11.095  25.670   3.151  0.00  0.00     0.033 H 
BRANCH  84  87
ATOM     87  CD  LYS d   1      -9.706  24.096   2.710  0.00  0.00    -0.043 C 
ATOM     88 6H13 LYS d   1     -10.521  23.371   2.571  0.00  0.00     0.035 H 
ATOM     89 7H13 LYS d   1      -8.853  23.600   3.197  0.00  0.00     0.035 H 
BRANCH  87  90
ATOM     90  CE  LYS d   1      -9.267  24.610   1.352  0.00  0.00     0.080 C 
ATOM     91 8H13 LYS d   1      -8.509  25.394   1.497  0.00  0.00     0.075 H 
ATOM     92 9H13 LYS d   1     -10.139  25.034   0.833  0.00  0.00     0.075 H 
BRANCH  90  93
ATOM     93  NZ  LYS d   1      -8.686  23.530   0.511  0.00  0.00    -0.079 N 
ATOM     94 0H14 LYS d   1      -8.408  23.911  -0.380  0.00  0.00     0.274 HD
ATOM     95 1H14 LYS d   1      -9.375  22.808   0.367  0.00  0.00     0.274 HD
ATOM     96 2H14 LYS d   1      -7.881  23.139   0.975  0.00  0.00     0.274 HD
ENDBRANCH  90  93
ENDBRANCH  87  90
ENDBRANCH  84  87
ENDBRANCH  81  84
ENDBRANCH  35  81
ENDBRANCH  33  35
ENDBRANCH  29  31
BRANCH  29  97
ATOM     97  CB  LYS d   1      -7.280  20.165   5.922  0.00  0.00    -0.038 C 
ATOM     98 9H11 LYS d   1      -6.936  19.168   5.609  0.00  0.00     0.036 H 
ATOM     99 0H12 LYS d   1      -8.154  20.061   6.582  0.00  0.00     0.036 H 
BRANCH  97 100
ATOM    100  CG  LYS d   1      -6.161  20.827   6.715  0.00  0.00    -0.061 C 
ATOM    101 1H12 LYS d   1      -6.452  21.861   6.950  0.00  0.00     0.033 H 
ATOM    102 2H12 LYS d   1      -5.245  20.833   6.105  0.00  0.00     0.033 H 
BRANCH 100 103
ATOM    103  CD  LYS d   1      -5.886  20.084   8.012  0.00  0.00    -0.043 C 
ATOM    104 3H12 LYS d   1      -5.138  20.643   8.594  0.00  0.00     0.035 H 
ATOM    105 4H12 LYS d   1      -5.493  19.084   7.776  0.00  0.00     0.035 H 
BRANCH 103 106
ATOM    106  CE  LYS d   1      -7.154  19.935   8.846  0.00  0.00     0.080 C 
ATOM    107 5H12 LYS d   1      -7.924  19.441   8.235  0.00  0.00     0.075 H 
ATOM    108 6H12 LYS d   1      -7.505  20.936   9.139  0.00  0.00     0.075 H 
BRANCH 106 109
ATOM    109  NZ  LYS d   1      -6.929  19.132  10.070  0.00  0.00    -0.079 N 
ATOM    110 7H12 LYS d   1      -7.791  19.060  10.588  0.00  0.00     0.274 HD
ATOM    111 8H12 LYS d   1      -6.230  19.579  10.642  0.00  0.00     0.274 HD
ATOM    112 9H12 LYS d   1      -6.613  18.210   9.813  0.00  0.00     0.274 HD
ENDBRANCH 106 109
ENDBRANCH 103 106
ENDBRANCH 100 103
ENDBRANCH  97 100
ENDBRANCH  29  97
ENDBRANCH  27  29
ENDBRANCH  23  25
BRANCH  23 113
ATOM    113  CB  ALA d   1      -5.823  18.805   1.278  0.00  0.00    -0.049 C 
ATOM    114 4H11 ALA d   1      -6.751  18.240   1.104  0.00  0.00     0.030 H 
ATOM    115 5H11 ALA d   1      -5.396  18.519   2.251  0.00  0.00     0.030 H 
ATOM    116 6H11 ALA d   1      -5.101  18.578   0.480  0.00  0.00     0.030 H 
ENDBRANCH  23 113
ENDBRANCH  21  23
ENDBRANCH  17  19
BRANCH  17 117
ATOM    117  CB  LYS d   1      -2.776  23.217   0.457  0.00  0.00    -0.038 C 
ATOM    118 1H10 LYS d   1      -3.357  23.922  -0.156  0.00  0.00     0.036 H 
ATOM    119 2H10 LYS d   1      -2.716  22.247  -0.057  0.00  0.00     0.036 H 
BRANCH 117 120
ATOM    120  CG  LYS d   1      -1.355  23.769   0.597  0.00  0.00    -0.061 C 
ATOM    121 3H10 LYS d   1      -1.361  24.578   1.342  0.00  0.00     0.033 H 
ATOM    122 4H10 LYS d   1      -1.032  24.168  -0.376  0.00  0.00     0.033 H 
BRANCH 120 123
ATOM    123  CD  LYS d   1      -0.363  22.697   1.043  0.00  0.00    -0.043 C 
ATOM    124 5H10 LYS d   1      -0.366  21.882   0.304  0.00  0.00     0.035 H 
ATOM    125 6H10 LYS d   1      -0.680  22.306   2.021  0.00  0.00     0.035 H 
BRANCH 123 126
ATOM    126  CE  LYS d   1       1.055  23.239   1.168  0.00  0.00     0.080 C 
ATOM    127 7H10 LYS d   1       1.682  22.482   1.662  0.00  0.00     0.075 H 
ATOM    128 8H10 LYS d   1       1.033  24.153   1.779  0.00  0.00     0.075 H 
BRANCH 126 129
ATOM    129  NZ  LYS d   1       1.648  23.562  -0.156  0.00  0.00    -0.079 N 
ATOM    130 9H10 LYS d   1       2.583  23.916  -0.028  0.00  0.00     0.274 HD
ATOM    131 0H11 LYS d   1       1.084  24.260  -0.615  0.00  0.00     0.274 HD
ATOM    132 1H11 LYS d   1       1.679  22.729  -0.723  0.00  0.00     0.274 HD
ENDBRANCH 126 129
ENDBRANCH 123 126
ENDBRANCH 120 123
ENDBRANCH 117 120
ENDBRANCH  17 117
ENDBRANCH  15  17
ENDBRANCH  11  13
BRANCH  11 133
ATOM    133  CB  ARG d   1      -2.823  19.823   5.374  0.00  0.00    -0.036 C 
ATOM    134  H88 ARG d   1      -3.622  20.190   6.036  0.00  0.00     0.036 H 
ATOM    135  H89 ARG d   1      -2.070  19.288   5.970  0.00  0.00     0.036 H 
BRANCH 133 136
ATOM    136  CG  ARG d   1      -3.430  18.850   4.387  0.00  0.00    -0.048 C 
ATOM    137  H90 ARG d   1      -2.819  18.835   3.472  0.00  0.00     0.035 H 
ATOM    138  H91 ARG d   1      -4.452  19.175   4.141  0.00  0.00     0.035 H 
BRANCH 136 139
ATOM    139  CD  ARG d   1      -3.480  17.455   4.975  0.00  0.00     0.009 C 
ATOM    140  H92 ARG d   1      -2.478  17.195   5.347  0.00  0.00     0.064 H 
ATOM    141  H93 ARG d   1      -3.772  16.750   4.183  0.00  0.00     0.064 H 
BRANCH 139 142
ATOM    142  NE  ARG d   1      -4.431  17.337   6.077  0.00  0.00    -0.227 N 
ATOM    143  CZ  ARG d   1      -5.686  16.918   5.929  0.00  0.00     0.665 C 
ATOM    144  NH1 ARG d   1      -6.174  16.677   4.717  0.00  0.00    -0.235 N 
ATOM    145  NH2 ARG d   1      -6.450  16.748   6.994  0.00  0.00    -0.235 N 
ATOM    146  H95 ARG d   1      -7.146  16.353   4.608  0.00  0.00     0.174 HD
ATOM    147  H96 ARG d   1      -5.581  16.814   3.886  0.00  0.00     0.174 HD
ATOM    148  H97 ARG d   1      -6.072  16.935   7.934  0.00  0.00     0.174 HD
ATOM    149  H98 ARG d   1      -7.423  16.429   6.884  0.00  0.00     0.174 HD
ATOM    150  H94 ARG d   1      -4.113  17.593   7.023  0.00  0.00     0.177 HD
ENDBRANCH 139 142
ENDBRANCH 136 139
ENDBRANCH 133 136
ENDBRANCH  11 133
ENDBRANCH   9  11
ENDBRANCH   5   7
BRANCH   5 151
ATOM    151  CB  SER d   1      -0.327  24.987   6.575  0.00  0.00     0.044 C 
ATOM    152  H83 SER d   1      -1.422  25.093   6.586  0.00  0.00     0.077 H 
ATOM    153  H84 SER d   1       0.080  25.475   5.677  0.00  0.00     0.077 H 
BRANCH 151 154
ATOM    154  OG  SER d   1       0.211  25.619   7.730  0.00  0.00    -0.398 OA
ATOM    155  H85 SER d   1      -0.026  26.539   7.726  0.00  0.00     0.209 HD
ENDBRANCH 151 154
ENDBRANCH   5 151
ENDBRANCH   3   5
BRANCH   1 156
ATOM    156  CA  SER d   1       3.660  23.384   5.388  0.00  0.00     0.109 C 
ATOM    157  H77 SER d   1       4.287  24.288   5.408  0.00  0.00     0.090 H 
BRANCH 156 158
ATOM    158  N   SER d   1       4.040  22.542   6.517  0.00  0.00    -0.344 N 
ATOM    159  C   LYS d   1       4.098  23.000   7.751  0.00  0.00     0.241 C 
ATOM    160  O   LYS d   1       3.720  24.125   8.073  0.00  0.00    -0.271 OA
ATOM    161  H76 SER d   1       4.265  21.582   6.348  0.00  0.00     0.163 HD
BRANCH 159 162
ATOM    162  CA  LYS d   1       4.700  22.055   8.776  0.00  0.00     0.089 C 
ATOM    163  H64 LYS d   1       4.808  21.056   8.328  0.00  0.00     0.087 H 
BRANCH 162 164
ATOM    164  N   LYS d   1       6.002  22.555   9.146  0.00  0.00    -0.346 N 
ATOM    165  C   THR d   1       6.961  22.706   8.248  0.00  0.00     0.243 C 
ATOM    166  O   THR d   1       6.878  22.285   7.092  0.00  0.00    -0.271 OA
ATOM    167  H63 LYS d   1       6.183  22.792  10.101  0.00  0.00     0.163 HD
BRANCH 165 168
ATOM    168  CA  THR d   1       8.222  23.393   8.729  0.00  0.00     0.113 C 
ATOM    169  H57 THR d   1       8.209  23.437   9.828  0.00  0.00     0.091 H 
BRANCH 168 170
ATOM    170  N   THR d   1       9.380  22.647   8.311  0.00  0.00    -0.344 N 
ATOM    171  C   PRO d   1      10.104  21.983   9.177  0.00  0.00     0.241 C 
ATOM    172  O   PRO d   1       9.803  21.892  10.372  0.00  0.00    -0.271 OA
ATOM    173  H56 THR d   1       9.636  22.636   7.344  0.00  0.00     0.163 HD
BRANCH 171 174
ATOM    174  CA  PRO d   1      11.350  21.311   8.632  0.00  0.00     0.091 C 
ATOM    175  N   PRO d   1      12.015  20.537   9.659  0.00  0.00    -0.337 N 
ATOM    176  C   MET d   1      12.865  21.074  10.550  0.00  0.00     0.243 C 
ATOM    177  CD  PRO d   1      11.619  19.119   9.600  0.00  0.00    -0.001 C 
ATOM    178  O   MET d   1      13.173  22.267  10.534  0.00  0.00    -0.271 OA
ATOM    179  CG  PRO d   1      10.762  19.018   8.367  0.00  0.00    -0.048 C 
ATOM    180  H54 PRO d   1      11.046  18.838  10.496  0.00  0.00     0.064 H 
ATOM    181  H55 PRO d   1      12.504  18.471   9.512  0.00  0.00     0.064 H 
ATOM    182  CB  PRO d   1      10.990  20.261   7.586  0.00  0.00    -0.036 C 
ATOM    183  H52 PRO d   1      11.053  18.139   7.774  0.00  0.00     0.035 H 
ATOM    184  H53 PRO d   1       9.702  18.936   8.648  0.00  0.00     0.035 H 
ATOM    185  H50 PRO d   1      11.816  20.125   6.872  0.00  0.00     0.036 H 
ATOM    186  H51 PRO d   1      10.079  20.551   7.042  0.00  0.00     0.036 H 
ATOM    187  H49 PRO d   1      12.024  22.072   8.212  0.00  0.00     0.087 H 
BRANCH 176 188
ATOM    188  CA  MET d   1      13.434  20.132  11.606  0.00  0.00     0.090 C 
ATOM    189  H41 MET d   1      13.221  19.101  11.288  0.00  0.00     0.087 H 
BRANCH 188 190
ATOM    190  N   MET d   1      14.883  20.266  11.748  0.00  0.00    -0.346 N 
ATOM    191  C   ALA d   1      15.709  20.155  10.715  0.00  0.00     0.240 C 
ATOM    192  O   ALA d   1      15.323  20.013   9.553  0.00  0.00    -0.271 OA
ATOM    193  H40 MET d   1      15.265  20.448  12.654  0.00  0.00     0.163 HD
BRANCH 191 194
ATOM    194  CA  ALA d   1      17.200  20.213  11.022  0.00  0.00     0.086 C 
ATOM    195  H36 ALA d   1      17.384  19.763  12.009  0.00  0.00     0.086 H 
BRANCH 194 196
ATOM    196  N   ALA d   1      17.913  19.458  10.013  0.00  0.00    -0.346 N 
ATOM    197  C   SER d   1      18.457  18.275  10.250  0.00  0.00     0.243 C 
ATOM    198  O   SER d   1      18.599  17.802  11.386  0.00  0.00    -0.271 OA
ATOM    199  H35 ALA d   1      17.998  19.848   9.096  0.00  0.00     0.163 HD
BRANCH 197 200
ATOM    200  CA  SER d   1      18.956  17.528   9.006  0.00  0.00     0.109 C 
ATOM    201  H31 SER d   1      20.037  17.704   8.906  0.00  0.00     0.090 H 
BRANCH 200 202
ATOM    202  N   SER d   1      18.724  16.090   9.099  0.00  0.00    -0.344 N 
ATOM    203  C   ILE d   1      17.570  15.567   9.486  0.00  0.00     0.241 C 
ATOM    204  O   ILE d   1      16.655  16.219   9.959  0.00  0.00    -0.271 OA
ATOM    205  H30 SER d   1      19.471  15.470   8.859  0.00  0.00     0.163 HD
BRANCH 203 206
ATOM    206  CA  ILE d   1      17.464  14.053   9.400  0.00  0.00     0.092 C 
ATOM    207  H20 ILE d   1      18.473  13.642   9.248  0.00  0.00     0.088 H 
BRANCH 206 208
ATOM    208  N   ILE d   1      16.941  13.535  10.644  0.00  0.00    -0.346 N 
ATOM    209  C   ILE d   1      17.715  13.340  11.688  0.00  0.00     0.241 C 
ATOM    210  O   ILE d   1      18.941  13.484  11.658  0.00  0.00    -0.271 OA
ATOM    211  H19 ILE d   1      15.967  13.320  10.712  0.00  0.00     0.163 HD
BRANCH 209 212
ATOM    212  CA  ILE d   1      17.008  12.901  12.957  0.00  0.00     0.092 C 
ATOM    213  H9  ILE d   1      15.976  12.616  12.707  0.00  0.00     0.088 H 
BRANCH 212 214
ATOM    214  N   ILE d   1      17.670  11.739  13.525  0.00  0.00    -0.346 N 
ATOM    215  C   CYS d   1      17.635  10.561  12.914  0.00  0.00     0.249 C 
ATOM    216  O   CYS d   1      16.990  10.357  11.885  0.00  0.00    -0.271 OA
ATOM    217  H8  ILE d   1      18.161  11.828  14.392  0.00  0.00     0.163 HD
BRANCH 215 218
ATOM    218  CA  CYS d   1      18.430   9.436  13.558  0.00  0.00     0.183 C 
ATOM    219  H4  CYS d   1      19.029   9.844  14.385  0.00  0.00     0.100 H 
BRANCH 218 220
ATOM    220  N   CYS d   1      17.520   8.401  14.086  0.00  0.00    -0.066 N 
ATOM    221  H1  CYS d   1      18.060   7.663  14.509  0.00  0.00     0.275 HD
ATOM    222  H2  CYS d   1      16.968   8.023  13.332  0.00  0.00     0.275 HD
ATOM    223  H3  CYS d   1      16.911   8.810  14.777  0.00  0.00     0.275 HD
ENDBRANCH 218 220
BRANCH 218 224
ATOM    224  CB  CYS d   1      19.362   8.819  12.515  0.00  0.00     0.009 C 
ATOM    225  H5  CYS d   1      20.109   9.574  12.229  0.00  0.00     0.052 H 
ATOM    226  H6  CYS d   1      18.762   8.545  11.635  0.00  0.00     0.052 H 
BRANCH 224 227
ATOM    227  SG  CYS d   1      20.236   7.345  13.087  0.00  0.00    -0.180 SA
ATOM    228  H7  CYS d   1      20.827   6.998  12.348  0.00  0.00     0.101 HD
ENDBRANCH 224 227
ENDBRANCH 218 224
ENDBRANCH 215 218
ENDBRANCH 212 214
BRANCH 212 229
ATOM    229  CB  ILE d   1      16.958  14.096  13.936  0.00  0.00    -0.030 C 
ATOM    230  H10 ILE d   1      17.969  14.253  14.339  0.00  0.00     0.043 H 
BRANCH 229 231
ATOM    231  CG1 ILE d   1      16.016  13.802  15.101  0.00  0.00    -0.063 C 
ATOM    232  H11 ILE d   1      16.459  13.006  15.718  0.00  0.00     0.033 H 
ATOM    233  H12 ILE d   1      15.053  13.459  14.695  0.00  0.00     0.033 H 
BRANCH 231 234
ATOM    234  CD1 ILE d   1      15.767  15.009  15.978  0.00  0.00    -0.076 C 
ATOM    235  H16 ILE d   1      15.084  14.734  16.795  0.00  0.00     0.027 H 
ATOM    236  H17 ILE d   1      15.315  15.812  15.377  0.00  0.00     0.027 H 
ATOM    237  H18 ILE d   1      16.721  15.359  16.399  0.00  0.00     0.027 H 
ENDBRANCH 231 234
ENDBRANCH 229 231
BRANCH 229 238
ATOM    238  CG2 ILE d   1      16.526  15.370  13.216  0.00  0.00    -0.071 C 
ATOM    239  H13 ILE d   1      17.213  15.569  12.380  0.00  0.00     0.028 H 
ATOM    240  H14 ILE d   1      16.550  16.215  13.920  0.00  0.00     0.028 H 
ATOM    241  H15 ILE d   1      15.504  15.244  12.829  0.00  0.00     0.028 H 
ENDBRANCH 229 238
ENDBRANCH 212 229
ENDBRANCH 209 212
ENDBRANCH 206 208
BRANCH 206 242
ATOM    242  CB  ILE d   1      16.579  13.620   8.201  0.00  0.00    -0.030 C 
ATOM    243  H21 ILE d   1      15.555  13.474   8.575  0.00  0.00     0.043 H 
BRANCH 242 244
ATOM    244  CG1 ILE d   1      17.074  12.291   7.635  0.00  0.00    -0.063 C 
ATOM    245  H22 ILE d   1      18.117  12.415   7.309  0.00  0.00     0.033 H 
ATOM    246  H23 ILE d   1      16.449  12.024   6.770  0.00  0.00     0.033 H 
BRANCH 244 247
ATOM    247  CD1 ILE d   1      17.014  11.169   8.635  0.00  0.00    -0.076 C 
ATOM    248  H27 ILE d   1      17.382  10.243   8.169  0.00  0.00     0.027 H 
ATOM    249  H28 ILE d   1      15.974  11.026   8.964  0.00  0.00     0.027 H 
ATOM    250  H29 ILE d   1      17.642  11.418   9.503  0.00  0.00     0.027 H 
ENDBRANCH 244 247
ENDBRANCH 242 244
BRANCH 242 251
ATOM    251  CG2 ILE d   1      16.527  14.675   7.110  0.00  0.00    -0.071 C 
ATOM    252  H24 ILE d   1      16.169  15.624   7.535  0.00  0.00     0.028 H 
ATOM    253  H25 ILE d   1      15.841  14.347   6.315  0.00  0.00     0.028 H 
ATOM    254  H26 ILE d   1      17.534  14.818   6.690  0.00  0.00     0.028 H 
ENDBRANCH 242 251
ENDBRANCH 206 242
ENDBRANCH 203 206
ENDBRANCH 200 202
BRANCH 200 255
ATOM    255  CB  SER d   1      18.245  18.059   7.757  0.00  0.00     0.044 C 
ATOM    256  H32 SER d   1      17.169  18.143   7.969  0.00  0.00     0.077 H 
ATOM    257  H33 SER d   1      18.402  17.351   6.930  0.00  0.00     0.077 H 
BRANCH 255 258
ATOM    258  OG  SER d   1      18.739  19.335   7.370  0.00  0.00    -0.398 OA
ATOM    259  H34 SER d   1      18.276  19.631   6.595  0.00  0.00     0.209 HD
ENDBRANCH 255 258
ENDBRANCH 200 255
ENDBRANCH 197 200
ENDBRANCH 194 196
BRANCH 194 260
ATOM    260  CB  ALA d   1      17.681  21.652  11.041  0.00  0.00    -0.049 C 
ATOM    261  H37 ALA d   1      17.131  22.212  11.811  0.00  0.00     0.030 H 
ATOM    262  H38 ALA d   1      17.504  22.111  10.057  0.00  0.00     0.030 H 
ATOM    263  H39 ALA d   1      18.757  21.676  11.268  0.00  0.00     0.030 H 
ENDBRANCH 194 260
ENDBRANCH 191 194
ENDBRANCH 188 190
BRANCH 188 264
ATOM    264  CB  MET d   1      12.743  20.372  12.952  0.00  0.00    -0.030 C 
ATOM    265  H42 MET d   1      13.172  21.277  13.406  0.00  0.00     0.037 H 
ATOM    266  H43 MET d   1      12.940  19.507  13.602  0.00  0.00     0.037 H 
BRANCH 264 267
ATOM    267  CG  MET d   1      11.238  20.558  12.843  0.00  0.00    -0.021 C 
ATOM    268  H44 MET d   1      10.896  20.113  11.897  0.00  0.00     0.049 H 
ATOM    269  H45 MET d   1      11.015  21.635  12.843  0.00  0.00     0.049 H 
BRANCH 267 270
ATOM    270  SD  MET d   1      10.345  19.785  14.200  0.00  0.00    -0.173 SA
BRANCH 270 271
ATOM    271  CE  MET d   1      10.685  18.066  13.843  0.00  0.00    -0.035 C 
ATOM    272  H46 MET d   1      10.199  17.431  14.599  0.00  0.00     0.041 H 
ATOM    273  H47 MET d   1      11.771  17.895  13.865  0.00  0.00     0.041 H 
ATOM    274  H48 MET d   1      10.294  17.814  12.846  0.00  0.00     0.041 H 
ENDBRANCH 270 271
ENDBRANCH 267 270
ENDBRANCH 264 267
ENDBRANCH 188 264
ENDBRANCH 176 188
ENDBRANCH 171 174
ENDBRANCH 168 170
BRANCH 168 275
ATOM    275  CB  THR d   1       8.262  24.827   8.176  0.00  0.00     0.060 C 
ATOM    276  H58 THR d   1       8.010  24.802   7.106  0.00  0.00     0.086 H 
BRANCH 275 277
ATOM    277  OG1 THR d   1       9.579  25.366   8.336  0.00  0.00    -0.393 OA
ATOM    278  H59 THR d   1       9.601  26.252   7.994  0.00  0.00     0.210 HD
ENDBRANCH 275 277
BRANCH 275 279
ATOM    279  CG2 THR d   1       7.259  25.717   8.897  0.00  0.00    -0.050 C 
ATOM    280  H60 THR d   1       7.308  26.735   8.483  0.00  0.00     0.031 H 
ATOM    281  H61 THR d   1       7.499  25.746   9.970  0.00  0.00     0.031 H 
ATOM    282  H62 THR d   1       6.245  25.314   8.759  0.00  0.00     0.031 H 
ENDBRANCH 275 279
ENDBRANCH 168 275
ENDBRANCH 165 168
ENDBRANCH 162 164
BRANCH 162 283
ATOM    283  CB  LYS d   1       3.803  21.949  10.002  0.00  0.00    -0.038 C 
ATOM    284  H65 LYS d   1       3.495  22.963  10.298  0.00  0.00     0.036 H 
ATOM    285  H66 LYS d   1       4.379  21.488  10.818  0.00  0.00     0.036 H 
BRANCH 283 286
ATOM    286  CG  LYS d   1       2.560  21.120   9.764  0.00  0.00    -0.061 C 
ATOM    287  H67 LYS d   1       2.850  20.067   9.634  0.00  0.00     0.033 H 
ATOM    288  H68 LYS d   1       2.059  21.477   8.852  0.00  0.00     0.033 H 
BRANCH 286 289
ATOM    289  CD  LYS d   1       1.599  21.227  10.929  0.00  0.00    -0.043 C 
ATOM    290  H69 LYS d   1       0.679  20.677  10.683  0.00  0.00     0.035 H 
ATOM    291  H70 LYS d   1       1.359  22.287  11.096  0.00  0.00     0.035 H 
BRANCH 289 292
ATOM    292  CE  LYS d   1       2.191  20.649  12.205  0.00  0.00     0.080 C 
ATOM    293  H71 LYS d   1       3.210  21.042  12.335  0.00  0.00     0.075 H 
ATOM    294  H72 LYS d   1       2.229  19.553  12.116  0.00  0.00     0.075 H 
BRANCH 292 295
ATOM    295  NZ  LYS d   1       1.381  21.007  13.399  0.00  0.00    -0.079 N 
ATOM    296  H73 LYS d   1       1.803  20.608  14.223  0.00  0.00     0.274 HD
ATOM    297  H74 LYS d   1       0.446  20.646  13.291  0.00  0.00     0.274 HD
ATOM    298  H75 LYS d   1       1.345  22.010  13.492  0.00  0.00     0.274 HD
ENDBRANCH 292 295
ENDBRANCH 289 292
ENDBRANCH 286 289
ENDBRANCH 283 286
ENDBRANCH 162 283
ENDBRANCH 159 162
ENDBRANCH 156 158
BRANCH 156 299
ATOM    299  CB  SER d   1       3.923  22.632   4.091  0.00  0.00     0.044 C 
ATOM    300  H78 SER d   1       5.006  22.610   3.898  0.00  0.00     0.077 H 
ATOM    301  H79 SER d   1       3.413  23.148   3.264  0.00  0.00     0.077 H 
BRANCH 299 302
ATOM    302  OG  SER d   1       3.439  21.304   4.181  0.00  0.00    -0.398 OA
ATOM    303  H80 SER d   1       3.611  20.849   3.365  0.00  0.00     0.209 HD
ENDBRANCH 299 302
ENDBRANCH 156 299
ENDBRANCH   1 156
TORSDOF 89
