REMARK WARNING: 32 MAX_TORS EXCEEDED!!!
REMARK  54 active torsions:
REMARK  status: ('A' for Active; 'I' for Inactive)
REMARK    1  A    between atoms: N_1  and  CA_2 
REMARK    2  A    between atoms: CA_2  and  C_3 
REMARK    3  A    between atoms: CA_2  and  CB_5 
REMARK       I    between atoms: C_3  and  N_6 
REMARK    4  A    between atoms: N_6  and  CA_7 
REMARK    5  A    between atoms: CA_7  and  C_8 
REMARK    6  A    between atoms: CA_7  and  CB_10 
REMARK       I    between atoms: C_8  and  N_17 
REMARK    7  A    between atoms: CB_10  and  CG_11 
REMARK    8  A    between atoms: CG_11  and  CD_12 
REMARK    9  A    between atoms: CD_12  and  NE_13 
REMARK       I    between atoms: NE_13  and  CZ_14 
REMARK       I    between atoms: CZ_14  and  NH1_15 
REMARK       I    between atoms: CZ_14  and  NH2_16 
REMARK   10  A    between atoms: N_17  and  CA_18 
REMARK   11  A    between atoms: CA_18  and  C_19 
REMARK   12  A    between atoms: CA_18  and  CB_21 
REMARK       I    between atoms: C_19  and  N_24 
REMARK   13  A    between atoms: CB_21  and  OG1_22 
REMARK   14  A    between atoms: CB_21  and  CG2_23 
REMARK   15  A    between atoms: N_24  and  CA_25 
REMARK   16  A    between atoms: CA_25  and  CB_26 
REMARK   17  A    between atoms: CA_25  and  C_31 
REMARK   18  A    between atoms: CB_26  and  CG_27 
REMARK   19  A    between atoms: CG_27  and  CD_28 
REMARK   20  A    between atoms: CD_28  and  CE_29 
REMARK   21  A    between atoms: CE_29  and  NZ_30 
REMARK   22  A    between atoms: NZ_30  and  CM1_33 
REMARK   23  A    between atoms: NZ_30  and  CM2_34 
REMARK   24  A    between atoms: NZ_30  and  CM3_35 
REMARK       I    between atoms: C_31  and  N_36 
REMARK   25  A    between atoms: N_36  and  CA_37 
REMARK   26  A    between atoms: CA_37  and  C_38 
REMARK   27  A    between atoms: CA_37  and  CB_40 
REMARK       I    between atoms: C_38  and  N_45 
REMARK   28  A    between atoms: CB_40  and  CG_41 
REMARK   29  A    between atoms: CG_41  and  CD_42 
REMARK       I    between atoms: CD_42  and  NE2_44 
REMARK   30  A    between atoms: N_45  and  CA_46 
REMARK   31  A    between atoms: CA_46  and  C_47 
REMARK   32  A    between atoms: CA_46  and  CB_49 
REMARK       I    between atoms: C_47  and  N_52 
REMARK   33  A    between atoms: CB_49  and  OG1_50 
REMARK   34  A    between atoms: CB_49  and  CG2_51 
REMARK   35  A    between atoms: N_52  and  CA_53 
REMARK   36  A    between atoms: CA_53  and  C_54 
REMARK   37  A    between atoms: CA_53  and  CB_56 
REMARK       I    between atoms: C_54  and  N_57 
REMARK   38  A    between atoms: N_57  and  CA_58 
REMARK   39  A    between atoms: CA_58  and  C_59 
REMARK   40  A    between atoms: CA_58  and  CB_61 
REMARK       I    between atoms: C_59  and  N_68 
REMARK   41  A    between atoms: CB_61  and  CG_62 
REMARK   42  A    between atoms: CG_62  and  CD_63 
REMARK   43  A    between atoms: CD_63  and  NE_64 
REMARK       I    between atoms: NE_64  and  CZ_65 
REMARK       I    between atoms: CZ_65  and  NH1_66 
REMARK   44  A    between atoms: N_68  and  CA_69 
REMARK   45  A    between atoms: CA_69  and  C_70 
REMARK   46  A    between atoms: CA_69  and  CB_72 
REMARK       I    between atoms: C_70  and  N_77 
REMARK   47  A    between atoms: CB_72  and  CG_73 
REMARK   48  A    between atoms: CG_73  and  CD_74 
REMARK   49  A    between atoms: CD_74  and  CE_75 
REMARK   50  A    between atoms: CE_75  and  NZ_76 
REMARK   51  A    between atoms: N_77  and  CA_78 
REMARK   52  A    between atoms: CA_78  and  C_79 
REMARK   53  A    between atoms: CA_78  and  CB_81 
REMARK   54  A    between atoms: CB_81  and  OG_82 
ROOT
ATOM      1  CA  GLN d   1       1.407   5.256  -4.903  0.00  0.00     0.090 C 
ATOM      2  H   GLN d   1       1.372   4.228  -4.541  0.00  0.00     0.087 H 
ENDROOT
BRANCH   1   3
ATOM      3  N   GLN d   1       0.258   5.992  -4.383  0.00  0.00    -0.346 N 
ATOM      4  C   M3L d   1      -0.826   5.438  -3.854  0.00  0.00     0.241 C 
ATOM      5  O   M3L d   1      -1.023   4.222  -3.839  0.00  0.00    -0.271 OA
ATOM      6  H   GLN d   1       0.291   7.010  -4.430  0.00  0.00     0.163 HD
BRANCH   4   7
ATOM      7  CA  M3L d   1      -1.784   6.414  -3.157  0.00  0.00     0.089 C 
ATOM      8  H   M3L d   1      -2.081   7.145  -3.909  0.00  0.00     0.087 H 
BRANCH   7   9
ATOM      9  N   M3L d   1      -2.993   5.729  -2.673  0.00  0.00    -0.346 N 
ATOM     10  C   THR d   1      -4.204   6.273  -2.574  0.00  0.00     0.243 C 
ATOM     11  O   THR d   1      -4.433   7.466  -2.785  0.00  0.00    -0.271 OA
ATOM     12  H   M3L d   1      -2.895   4.754  -2.389  0.00  0.00     0.163 HD
BRANCH  10  13
ATOM     13  CA  THR d   1      -5.316   5.313  -2.179  0.00  0.00     0.113 C 
ATOM     14  H   THR d   1      -4.907   4.508  -1.568  0.00  0.00     0.091 H 
BRANCH  13  15
ATOM     15  N   THR d   1      -6.321   6.023  -1.379  0.00  0.00    -0.344 N 
ATOM     16  C   ARG d   1      -6.917   5.582  -0.272  0.00  0.00     0.241 C 
ATOM     17  O   ARG d   1      -6.673   4.490   0.251  0.00  0.00    -0.271 OA
ATOM     18  H   THR d   1      -6.591   6.951  -1.704  0.00  0.00     0.163 HD
BRANCH  16  19
ATOM     19  CA  ARG d   1      -7.912   6.562   0.357  0.00  0.00     0.089 C 
ATOM     20  H   ARG d   1      -8.414   7.117  -0.436  0.00  0.00     0.087 H 
BRANCH  19  21
ATOM     21  N   ARG d   1      -8.979   5.857   1.089  0.00  0.00    -0.346 N 
ATOM     22  C   ALA d   1      -9.951   5.183   0.452  0.00  0.00     0.248 C 
ATOM     23  O   ALA d   1     -10.057   5.203  -0.777  0.00  0.00    -0.271 OA
ATOM     24  H   ARG d   1      -8.980   5.881   2.109  0.00  0.00     0.163 HD
BRANCH  22  25
ATOM     25  CA  ALA d   1     -10.964   4.390   1.284  0.00  0.00     0.172 C 
ATOM     26  H   ALA d   1     -10.648   4.393   2.327  0.00  0.00     0.098 H 
BRANCH  25  27
ATOM     27  N   ALA d   1     -12.298   5.034   1.199  0.00  0.00    -0.067 N 
ATOM     28  H   ALA d   1     -12.227   6.003   1.508  0.00  0.00     0.275 HD
ATOM     29  H   ALA d   1     -12.626   5.007   0.234  0.00  0.00     0.275 HD
ATOM     30  H   ALA d   1     -12.955   4.532   1.797  0.00  0.00     0.275 HD
ENDBRANCH  25  27
BRANCH  25  31
ATOM     31  CB  ALA d   1     -11.017   2.916   0.825  0.00  0.00    -0.042 C 
ATOM     32  H   ALA d   1     -11.313   2.874  -0.223  0.00  0.00     0.030 H 
ATOM     33  H   ALA d   1     -10.033   2.464   0.945  0.00  0.00     0.030 H 
ATOM     34  H   ALA d   1     -11.743   2.374   1.431  0.00  0.00     0.030 H 
ENDBRANCH  25  31
ENDBRANCH  22  25
ENDBRANCH  19  21
BRANCH  19  35
ATOM     35  CB  ARG d   1      -7.158   7.574   1.235  0.00  0.00    -0.036 C 
ATOM     36  H   ARG d   1      -6.260   7.884   0.701  0.00  0.00     0.036 H 
ATOM     37  H   ARG d   1      -6.926   7.093   2.185  0.00  0.00     0.036 H 
BRANCH  35  38
ATOM     38  CG  ARG d   1      -7.996   8.825   1.526  0.00  0.00    -0.048 C 
ATOM     39  H   ARG d   1      -8.843   8.540   2.150  0.00  0.00     0.035 H 
ATOM     40  H   ARG d   1      -8.331   9.249   0.579  0.00  0.00     0.035 H 
BRANCH  38  41
ATOM     41  CD  ARG d   1      -7.171   9.881   2.272  0.00  0.00     0.009 C 
ATOM     42  H   ARG d   1      -6.334  10.176   1.639  0.00  0.00     0.064 H 
ATOM     43  H   ARG d   1      -6.828   9.450   3.213  0.00  0.00     0.064 H 
BRANCH  41  44
ATOM     44  NE  ARG d   1      -7.974  11.081   2.573  0.00  0.00    -0.227 N 
ATOM     45  CZ  ARG d   1      -8.172  12.133   1.783  0.00  0.00     0.665 C 
ATOM     46  NH1 ARG d   1      -7.649  12.215   0.576  0.00  0.00    -0.235 N 
ATOM     47  NH2 ARG d   1      -8.913  13.133   2.206  0.00  0.00    -0.235 N 
ATOM     48  H   ARG d   1      -7.070  11.455   0.218  0.00  0.00     0.174 HD
ATOM     49  H   ARG d   1      -7.824  13.038  -0.001  0.00  0.00     0.174 HD
ATOM     50  H   ARG d   1      -9.332  13.100   3.135  0.00  0.00     0.174 HD
ATOM     51  H   ARG d   1      -9.069  13.942   1.605  0.00  0.00     0.174 HD
ATOM     52  H   ARG d   1      -8.427  11.107   3.486  0.00  0.00     0.177 HD
ENDBRANCH  41  44
ENDBRANCH  38  41
ENDBRANCH  35  38
ENDBRANCH  19  35
ENDBRANCH  16  19
ENDBRANCH  13  15
BRANCH  13  53
ATOM     53  CB  THR d   1      -5.933   4.674  -3.432  0.00  0.00     0.060 C 
ATOM     54  H   THR d   1      -5.101   4.426  -4.091  0.00  0.00     0.086 H 
BRANCH  53  55
ATOM     55  OG1 THR d   1      -6.801   5.570  -4.093  0.00  0.00    -0.393 OA
ATOM     56  H   THR d   1      -7.170   5.143  -4.870  0.00  0.00     0.210 HD
ENDBRANCH  53  55
BRANCH  53  57
ATOM     57  CG2 THR d   1      -6.698   3.395  -3.099  0.00  0.00    -0.050 C 
ATOM     58  H   THR d   1      -6.018   2.674  -2.646  0.00  0.00     0.031 H 
ATOM     59  H   THR d   1      -7.502   3.626  -2.401  0.00  0.00     0.031 H 
ATOM     60  H   THR d   1      -7.118   2.976  -4.013  0.00  0.00     0.031 H 
ENDBRANCH  53  57
ENDBRANCH  13  53
ENDBRANCH  10  13
ENDBRANCH   7   9
BRANCH   7  61
ATOM     61  CB  M3L d   1      -1.098   7.188  -2.002  0.00  0.00    -0.038 C 
ATOM     62  H   M3L d   1      -1.879   7.680  -1.423  0.00  0.00     0.036 H 
ATOM     63  H   M3L d   1      -0.391   7.888  -2.446  0.00  0.00     0.036 H 
BRANCH  61  64
ATOM     64  CG  M3L d   1      -0.314   6.274  -1.047  0.00  0.00    -0.061 C 
ATOM     65  H   M3L d   1       0.443   5.763  -1.643  0.00  0.00     0.033 H 
ATOM     66  H   M3L d   1      -1.038   5.612  -0.573  0.00  0.00     0.033 H 
BRANCH  64  67
ATOM     67  CD  M3L d   1       0.422   7.012   0.076  0.00  0.00    -0.042 C 
ATOM     68  H   M3L d   1      -0.285   7.365   0.827  0.00  0.00     0.035 H 
ATOM     69  H   M3L d   1       0.944   7.883  -0.320  0.00  0.00     0.035 H 
BRANCH  67  70
ATOM     70  CE  M3L d   1       1.428   6.020   0.706  0.00  0.00     0.084 C 
ATOM     71  H   M3L d   1       2.218   5.875  -0.030  0.00  0.00     0.076 H 
ATOM     72  H   M3L d   1       0.857   5.131   0.972  0.00  0.00     0.076 H 
BRANCH  70  73
ATOM     73  NZ  M3L d   1       2.090   6.473   1.941  0.00  0.00    -0.079 N 
BRANCH  73  74
ATOM     74  CM1 M3L d   1       3.014   5.421   2.351  0.00  0.00     0.067 C 
ATOM     75  H   M3L d   1       2.458   4.501   2.530  0.00  0.00     0.068 H 
ATOM     76  H   M3L d   1       3.748   5.256   1.562  0.00  0.00     0.068 H 
ATOM     77  H   M3L d   1       3.524   5.723   3.266  0.00  0.00     0.068 H 
ENDBRANCH  73  74
BRANCH  73  78
ATOM     78  CM2 M3L d   1       1.138   6.665   3.033  0.00  0.00     0.067 C 
ATOM     79  H   M3L d   1       0.403   7.416   2.745  0.00  0.00     0.068 H 
ATOM     80  H   M3L d   1       0.633   5.722   3.243  0.00  0.00     0.068 H 
ATOM     81  H   M3L d   1       1.671   6.999   3.923  0.00  0.00     0.068 H 
ENDBRANCH  73  78
BRANCH  73  82
ATOM     82  CM3 M3L d   1       2.856   7.702   1.734  0.00  0.00     0.067 C 
ATOM     83  H   M3L d   1       3.624   7.527   0.980  0.00  0.00     0.068 H 
ATOM     84  H   M3L d   1       2.187   8.493   1.396  0.00  0.00     0.068 H 
ATOM     85  H   M3L d   1       3.326   7.998   2.672  0.00  0.00     0.068 H 
ENDBRANCH  73  82
ENDBRANCH  70  73
ENDBRANCH  67  70
ENDBRANCH  64  67
ENDBRANCH  61  64
ENDBRANCH   7  61
ENDBRANCH   4   7
ENDBRANCH   1   3
BRANCH   1  86
ATOM     86  C   GLN d   1       2.701   5.912  -4.408  0.00  0.00     0.241 C 
ATOM     87  O   GLN d   1       2.749   7.131  -4.211  0.00  0.00    -0.271 OA
ATOM     88  N   THR d   1       3.753   5.102  -4.230  0.00  0.00    -0.344 N 
ATOM     89  H   THR d   1       3.602   4.099  -4.338  0.00  0.00     0.163 HD
BRANCH  88  90
ATOM     90  CA  THR d   1       5.111   5.555  -3.890  0.00  0.00     0.113 C 
ATOM     91  H   THR d   1       5.147   6.632  -4.054  0.00  0.00     0.091 H 
BRANCH  90  92
ATOM     92  C   THR d   1       6.129   4.871  -4.804  0.00  0.00     0.243 C 
ATOM     93  O   THR d   1       5.813   3.890  -5.482  0.00  0.00    -0.271 OA
ATOM     94  N   ALA d   1       7.358   5.387  -4.833  0.00  0.00    -0.346 N 
ATOM     95  H   ALA d   1       7.515   6.285  -4.376  0.00  0.00     0.163 HD
BRANCH  94  96
ATOM     96  CA  ALA d   1       8.494   4.733  -5.486  0.00  0.00     0.086 C 
ATOM     97  H   ALA d   1       8.157   4.136  -6.333  0.00  0.00     0.086 H 
BRANCH  96  98
ATOM     98  C   ALA d   1       9.187   3.762  -4.512  0.00  0.00     0.240 C 
ATOM     99  O   ALA d   1       9.325   4.069  -3.323  0.00  0.00    -0.271 OA
ATOM    100  N   ARG d   1       9.656   2.609  -5.012  0.00  0.00    -0.346 N 
ATOM    101  H   ARG d   1       9.469   2.396  -5.992  0.00  0.00     0.163 HD
BRANCH 100 102
ATOM    102  CA  ARG d   1      10.426   1.634  -4.222  0.00  0.00     0.089 C 
ATOM    103  H   ARG d   1       9.961   1.522  -3.242  0.00  0.00     0.087 H 
BRANCH 102 104
ATOM    104  C   ARG d   1      11.860   2.149  -3.995  0.00  0.00     0.241 C 
ATOM    105  O   ARG d   1      12.774   1.853  -4.768  0.00  0.00    -0.271 OA
ATOM    106  N   LYS d   1      12.042   2.958  -2.947  0.00  0.00    -0.346 N 
ATOM    107  H   LYS d   1      11.265   3.037  -2.290  0.00  0.00     0.163 HD
BRANCH 106 108
ATOM    108  CA  LYS d   1      13.250   3.749  -2.641  0.00  0.00     0.089 C 
ATOM    109  H   LYS d   1      14.107   3.251  -3.094  0.00  0.00     0.087 H 
BRANCH 108 110
ATOM    110  C   LYS d   1      13.527   3.832  -1.119  0.00  0.00     0.241 C 
ATOM    111  O   LYS d   1      12.653   3.528  -0.300  0.00  0.00    -0.271 OA
ATOM    112  N   SER d   1      14.735   4.288  -0.754  0.00  0.00    -0.343 N 
ATOM    113  H   SER d   1      15.398   4.478  -1.506  0.00  0.00     0.163 HD
BRANCH 112 114
ATOM    114  CA  SER d   1      15.206   4.544   0.627  0.00  0.00     0.116 C 
ATOM    115  H   SER d   1      14.328   4.505   1.272  0.00  0.00     0.093 H 
BRANCH 114 116
ATOM    116  C   SER d   1      15.857   5.927   0.749  0.00  0.00     0.198 C 
ATOM    117  O   SER d   1      15.487   6.680   1.677  0.00  0.00    -0.646 OA
ATOM    118  OXT SER d   1      16.724   6.258  -0.093  0.00  0.00    -0.646 OA
ENDBRANCH 114 116
BRANCH 114 119
ATOM    119  CB  SER d   1      16.212   3.479   1.075  0.00  0.00     0.045 C 
ATOM    120  H   SER d   1      16.551   3.713   2.084  0.00  0.00     0.077 H 
ATOM    121  H   SER d   1      17.055   3.473   0.384  0.00  0.00     0.077 H 
BRANCH 119 122
ATOM    122  OG  SER d   1      15.605   2.197   1.076  0.00  0.00    -0.398 OA
ATOM    123  H   SER d   1      16.246   1.541   1.358  0.00  0.00     0.209 HD
ENDBRANCH 119 122
ENDBRANCH 114 119
ENDBRANCH 112 114
ENDBRANCH 108 110
BRANCH 108 124
ATOM    124  CB  LYS d   1      13.075   5.174  -3.226  0.00  0.00    -0.038 C 
ATOM    125  H   LYS d   1      13.970   5.729  -2.943  0.00  0.00     0.036 H 
ATOM    126  H   LYS d   1      12.128   5.546  -2.835  0.00  0.00     0.036 H 
BRANCH 124 127
ATOM    127  CG  LYS d   1      12.975   5.280  -4.761  0.00  0.00    -0.061 C 
ATOM    128  H   LYS d   1      12.775   6.327  -4.990  0.00  0.00     0.033 H 
ATOM    129  H   LYS d   1      12.200   4.580  -5.073  0.00  0.00     0.033 H 
BRANCH 127 130
ATOM    130  CD  LYS d   1      14.253   4.895  -5.530  0.00  0.00    -0.043 C 
ATOM    131  H   LYS d   1      14.025   4.986  -6.592  0.00  0.00     0.035 H 
ATOM    132  H   LYS d   1      14.527   3.890  -5.210  0.00  0.00     0.035 H 
BRANCH 130 133
ATOM    133  CE  LYS d   1      15.465   5.802  -5.251  0.00  0.00     0.080 C 
ATOM    134  H   LYS d   1      16.329   5.372  -5.758  0.00  0.00     0.075 H 
ATOM    135  H   LYS d   1      15.598   5.860  -4.171  0.00  0.00     0.075 H 
BRANCH 133 136
ATOM    136  NZ  LYS d   1      15.275   7.187  -5.764  0.00  0.00    -0.079 N 
ATOM    137  H   LYS d   1      16.104   7.743  -5.553  0.00  0.00     0.274 HD
ATOM    138  H   LYS d   1      15.131   7.158  -6.773  0.00  0.00     0.274 HD
ATOM    139  H   LYS d   1      14.460   7.606  -5.315  0.00  0.00     0.274 HD
ENDBRANCH 133 136
ENDBRANCH 130 133
ENDBRANCH 127 130
ENDBRANCH 124 127
ENDBRANCH 108 124
ENDBRANCH 106 108
ENDBRANCH 102 104
BRANCH 102 140
ATOM    140  CB  ARG d   1      10.396   0.242  -4.884  0.00  0.00    -0.036 C 
ATOM    141  H   ARG d   1      11.019  -0.422  -4.285  0.00  0.00     0.036 H 
ATOM    142  H   ARG d   1      10.750   0.356  -5.909  0.00  0.00     0.036 H 
BRANCH 140 143
ATOM    143  CG  ARG d   1       8.985  -0.371  -4.944  0.00  0.00    -0.048 C 
ATOM    144  H   ARG d   1       8.398   0.190  -5.671  0.00  0.00     0.035 H 
ATOM    145  H   ARG d   1       8.547  -0.322  -3.947  0.00  0.00     0.035 H 
BRANCH 143 146
ATOM    146  CD  ARG d   1       9.022  -1.843  -5.385  0.00  0.00     0.009 C 
ATOM    147  H   ARG d   1       9.650  -1.924  -6.272  0.00  0.00     0.064 H 
ATOM    148  H   ARG d   1       8.003  -2.170  -5.591  0.00  0.00     0.064 H 
BRANCH 146 149
ATOM    149  NE  ARG d   1       9.587  -2.704  -4.328  0.00  0.00    -0.227 N 
ATOM    150  CZ  ARG d   1      10.067  -3.936  -4.460  0.00  0.00     0.665 C 
ATOM    151  NH1 ARG d   1      10.117  -4.566  -5.615  0.00  0.00    -0.235 N 
ATOM    152  NH2 ARG d   1      10.521  -4.571  -3.401  0.00  0.00    -0.235 N 
ATOM    153  H   ARG d   1       9.778  -4.108  -6.461  0.00  0.00     0.174 HD
ATOM    154  H   ARG d   1      10.495  -5.512  -5.664  0.00  0.00     0.174 HD
ATOM    155  H   ARG d   1      10.503  -4.117  -2.488  0.00  0.00     0.174 HD
ATOM    156  H   ARG d   1      10.891  -5.517  -3.493  0.00  0.00     0.174 HD
ATOM    157  H   ARG d   1       9.612  -2.308  -3.388  0.00  0.00     0.177 HD
ENDBRANCH 146 149
ENDBRANCH 143 146
ENDBRANCH 140 143
ENDBRANCH 102 140
ENDBRANCH 100 102
ENDBRANCH  96  98
BRANCH  96 158
ATOM    158  CB  ALA d   1       9.449   5.820  -5.999  0.00  0.00    -0.049 C 
ATOM    159  H   ALA d   1       8.924   6.456  -6.712  0.00  0.00     0.030 H 
ATOM    160  H   ALA d   1       9.796   6.422  -5.160  0.00  0.00     0.030 H 
ATOM    161  H   ALA d   1      10.302   5.351  -6.489  0.00  0.00     0.030 H 
ENDBRANCH  96 158
ENDBRANCH  94  96
ENDBRANCH  90  92
BRANCH  90 162
ATOM    162  CB  THR d   1       5.461   5.345  -2.407  0.00  0.00     0.060 C 
ATOM    163  H   THR d   1       6.436   5.810  -2.260  0.00  0.00     0.086 H 
BRANCH 162 164
ATOM    164  OG1 THR d   1       5.519   3.970  -2.102  0.00  0.00    -0.393 OA
ATOM    165  H   THR d   1       5.738   3.858  -1.174  0.00  0.00     0.210 HD
ENDBRANCH 162 164
BRANCH 162 166
ATOM    166  CG2 THR d   1       4.475   6.021  -1.456  0.00  0.00    -0.050 C 
ATOM    167  H   THR d   1       4.468   7.095  -1.645  0.00  0.00     0.031 H 
ATOM    168  H   THR d   1       3.477   5.615  -1.621  0.00  0.00     0.031 H 
ATOM    169  H   THR d   1       4.779   5.834  -0.426  0.00  0.00     0.031 H 
ENDBRANCH 162 166
ENDBRANCH  90 162
ENDBRANCH  88  90
ENDBRANCH   1  86
BRANCH   1 170
ATOM    170  CB  GLN d   1       1.366   5.222  -6.439  0.00  0.00    -0.030 C 
ATOM    171  H   GLN d   1       2.275   4.731  -6.788  0.00  0.00     0.037 H 
ATOM    172  H   GLN d   1       1.280   6.249  -6.795  0.00  0.00     0.037 H 
BRANCH 170 173
ATOM    173  CG  GLN d   1       0.164   4.432  -6.982  0.00  0.00     0.011 C 
ATOM    174  H   GLN d   1      -0.702   5.094  -7.002  0.00  0.00     0.047 H 
ATOM    175  H   GLN d   1      -0.002   3.571  -6.335  0.00  0.00     0.047 H 
BRANCH 173 176
ATOM    176  CD  GLN d   1       0.416   3.926  -8.401  0.00  0.00     0.215 C 
ATOM    177  OE1 GLN d   1      -0.088   4.450  -9.387  0.00  0.00    -0.274 OA
ATOM    178  NE2 GLN d   1       1.215   2.889  -8.548  0.00  0.00    -0.370 N 
ATOM    179  H   GLN d   1       1.412   2.525  -9.480  0.00  0.00     0.159 HD
ATOM    180  H   GLN d   1       1.637   2.450  -7.729  0.00  0.00     0.159 HD
ENDBRANCH 173 176
ENDBRANCH 170 173
ENDBRANCH   1 170
TORSDOF 54
