REMARK WARNING: 32 MAX_TORS EXCEEDED!!!
REMARK  40 active torsions:
REMARK  status: ('A' for Active; 'I' for Inactive)
REMARK    1  A    between atoms: N_1  and  CA_2 
REMARK    2  A    between atoms: CA_2  and  C_3 
REMARK    3  A    between atoms: CA_2  and  CB_5 
REMARK       I    between atoms: C_3  and  N_13 
REMARK    4  A    between atoms: CB_5  and  CG_6 
REMARK    5  A    between atoms: CZ_11  and  OH_12 
REMARK    6  A    between atoms: N_13  and  CA_14 
REMARK    7  A    between atoms: CA_14  and  C_15 
REMARK    8  A    between atoms: CA_14  and  CB_17 
REMARK       I    between atoms: C_15  and  N_22 
REMARK    9  A    between atoms: CB_17  and  CG_18 
REMARK   10  A    between atoms: CG_18  and  CD_19 
REMARK   11  A    between atoms: N_22  and  CA_23 
REMARK   12  A    between atoms: CA_23  and  C_24 
REMARK   13  A    between atoms: CA_23  and  CB_26 
REMARK       I    between atoms: C_24  and  N_29 
REMARK   14  A    between atoms: CB_26  and  OG1_27 
REMARK   15  A    between atoms: CB_26  and  CG2_28 
REMARK   16  A    between atoms: N_29  and  CA_30 
REMARK   17  A    between atoms: CA_30  and  C_31 
REMARK   18  A    between atoms: CA_30  and  CB_33 
REMARK       I    between atoms: C_31  and  N_37 
REMARK   19  A    between atoms: CB_33  and  CG_34 
REMARK   20  A    between atoms: CG_34  and  CD1_35 
REMARK   21  A    between atoms: CG_34  and  CD2_36 
REMARK   22  A    between atoms: N_37  and  CA_38 
REMARK   23  A    between atoms: CA_38  and  CB_39 
REMARK   24  A    between atoms: CA_38  and  C_41 
REMARK   25  A    between atoms: CB_39  and  OG_40 
REMARK   26  A    between atoms: OG_40  and  P_43 
REMARK       I    between atoms: C_41  and  N_47 
REMARK   27  A    between atoms: N_47  and  CA_48 
REMARK   28  A    between atoms: CA_48  and  C_49 
REMARK   29  A    between atoms: CA_48  and  CB_51 
REMARK       I    between atoms: C_49  and  N_55 
REMARK   30  A    between atoms: CB_51  and  CG_52 
REMARK   31  A    between atoms: N_55  and  CA_56 
REMARK   32  A    between atoms: CA_56  and  CB_57 
REMARK   33  A    between atoms: CA_56  and  C_59 
REMARK   34  A    between atoms: CB_57  and  OG_58 
REMARK   35  A    between atoms: OG_58  and  P_61 
REMARK       I    between atoms: C_59  and  N_65 
REMARK   36  A    between atoms: N_65  and  CA_66 
REMARK   37  A    between atoms: CA_66  and  C_67 
REMARK   38  A    between atoms: CA_66  and  CB_69 
REMARK   39  A    between atoms: CB_69  and  CG_70 
REMARK   40  A    between atoms: CG_70  and  CD_71 
ROOT
ATOM      1  CA  LEU d   1     287.824  -2.128  -9.388  0.00  0.00     0.089 C 
ATOM      2  H26 LEU d   1     288.782  -2.092  -8.848  0.00  0.00     0.087 H 
ENDROOT
BRANCH   1   3
ATOM      3  N   LEU d   1     287.742  -0.944 -10.223  0.00  0.00    -0.346 N 
ATOM      4  C   THR d   1     288.804  -0.522 -10.902  0.00  0.00     0.243 C 
ATOM      5  O   THR d   1     289.886  -1.108 -10.875  0.00  0.00    -0.271 OA
ATOM      6  H25 LEU d   1     286.880  -0.442 -10.288  0.00  0.00     0.163 HD
BRANCH   4   7
ATOM      7  CA  THR d   1     288.663   0.764 -11.697  0.00  0.00     0.113 C 
ATOM      8  H19 THR d   1     287.624   1.121 -11.644  0.00  0.00     0.091 H 
BRANCH   7   9
ATOM      9  N   THR d   1     289.534   1.750 -11.096  0.00  0.00    -0.344 N 
ATOM     10  C   GLU d   1     289.229   3.033 -11.031  0.00  0.00     0.241 C 
ATOM     11  O   GLU d   1     288.330   3.555 -11.695  0.00  0.00    -0.271 OA
ATOM     12  H18 THR d   1     290.406   1.446 -10.713  0.00  0.00     0.163 HD
BRANCH  10  13
ATOM     13  CA  GLU d   1     290.111   3.851 -10.091  0.00  0.00     0.090 C 
ATOM     14  H13 GLU d   1     291.036   4.129 -10.618  0.00  0.00     0.087 H 
BRANCH  13  15
ATOM     15  N   GLU d   1     289.433   5.079  -9.655  0.00  0.00    -0.346 N 
ATOM     16  C   TYR d   1     288.219   5.047  -9.098  0.00  0.00     0.249 C 
ATOM     17  O   TYR d   1     287.591   4.005  -8.944  0.00  0.00    -0.271 OA
ATOM     18  H12 GLU d   1     289.891   5.960  -9.778  0.00  0.00     0.163 HD
BRANCH  16  19
ATOM     19  CA  TYR d   1     287.620   6.370  -8.625  0.00  0.00     0.179 C 
ATOM     20  H4  TYR d   1     287.944   6.552  -7.590  0.00  0.00     0.099 H 
BRANCH  19  21
ATOM     21  N   TYR d   1     288.080   7.501  -9.461  0.00  0.00    -0.066 N 
ATOM     22  H1  TYR d   1     287.668   8.357  -9.124  0.00  0.00     0.275 HD
ATOM     23  H2  TYR d   1     287.801   7.347 -10.417  0.00  0.00     0.275 HD
ATOM     24  H3  TYR d   1     289.084   7.569  -9.411  0.00  0.00     0.275 HD
ENDBRANCH  19  21
BRANCH  19  25
ATOM     25  CB  TYR d   1     286.088   6.262  -8.652  0.00  0.00    -0.006 C 
ATOM     26  H5  TYR d   1     285.806   5.279  -8.248  0.00  0.00     0.043 H 
ATOM     27  H6  TYR d   1     285.757   6.337  -9.698  0.00  0.00     0.043 H 
BRANCH  25  28
ATOM     28  CG  TYR d   1     285.367   7.326  -7.851  0.00  0.00    -0.056 A 
ATOM     29  CD1 TYR d   1     285.182   7.188  -6.480  0.00  0.00    -0.074 A 
ATOM     30  CE1 TYR d   1     284.516   8.149  -5.748  0.00  0.00    -0.051 A 
ATOM     31  H7  TYR d   1     285.568   6.309  -5.977  0.00  0.00     0.084 H 
ATOM     32  CZ  TYR d   1     284.024   9.272  -6.380  0.00  0.00     0.065 A 
ATOM     33  H9  TYR d   1     284.380   8.022  -4.680  0.00  0.00     0.087 H 
ATOM     34  CE2 TYR d   1     284.195   9.434  -7.739  0.00  0.00    -0.051 A 
ATOM     35  CD2 TYR d   1     284.862   8.464  -8.466  0.00  0.00    -0.074 A 
ATOM     36  H10 TYR d   1     283.809  10.317  -8.235  0.00  0.00     0.087 H 
ATOM     37  H8  TYR d   1     284.993   8.595  -9.534  0.00  0.00     0.084 H 
BRANCH  32  38
ATOM     38  OH  TYR d   1     283.350  10.233  -5.656  0.00  0.00    -0.361 OA
ATOM     39  H11 TYR d   1     283.318   9.975  -4.742  0.00  0.00     0.217 HD
ENDBRANCH  32  38
ENDBRANCH  25  28
ENDBRANCH  19  25
ENDBRANCH  16  19
ENDBRANCH  13  15
BRANCH  13  40
ATOM     40  CB  GLU d   1     290.465   2.977  -8.875  0.00  0.00    -0.029 C 
ATOM     41  H14 GLU d   1     290.793   1.993  -9.242  0.00  0.00     0.037 H 
ATOM     42  H15 GLU d   1     289.559   2.857  -8.263  0.00  0.00     0.037 H 
BRANCH  40  43
ATOM     43  CG  GLU d   1     291.560   3.542  -7.994  0.00  0.00     0.018 C 
ATOM     44  H16 GLU d   1     291.288   4.573  -7.724  0.00  0.00     0.049 H 
ATOM     45  H17 GLU d   1     292.497   3.549  -8.570  0.00  0.00     0.049 H 
BRANCH  43  46
ATOM     46  CD  GLU d   1     291.793   2.763  -6.717  0.00  0.00     0.172 C 
ATOM     47  OE1 GLU d   1     292.503   1.733  -6.752  0.00  0.00    -0.648 OA
ATOM     48  OE2 GLU d   1     291.290   3.196  -5.662  0.00  0.00    -0.648 OA
ENDBRANCH  43  46
ENDBRANCH  40  43
ENDBRANCH  13  40
ENDBRANCH  10  13
ENDBRANCH   7   9
BRANCH   7  49
ATOM     49  CB  THR d   1     289.022   0.496 -13.172  0.00  0.00     0.060 C 
ATOM     50  H20 THR d   1     290.018   0.030 -13.212  0.00  0.00     0.086 H 
BRANCH  49  51
ATOM     51  OG1 THR d   1     289.056   1.729 -13.901  0.00  0.00    -0.393 OA
ATOM     52  H21 THR d   1     288.203   2.145 -13.857  0.00  0.00     0.210 HD
ENDBRANCH  49  51
BRANCH  49  53
ATOM     53  CG2 THR d   1     288.015  -0.448 -13.814  0.00  0.00    -0.050 C 
ATOM     54  H22 THR d   1     288.293  -0.622 -14.864  0.00  0.00     0.031 H 
ATOM     55  H23 THR d   1     287.012   0.001 -13.771  0.00  0.00     0.031 H 
ATOM     56  H24 THR d   1     288.012  -1.405 -13.272  0.00  0.00     0.031 H 
ENDBRANCH  49  53
ENDBRANCH   7  49
ENDBRANCH   4   7
ENDBRANCH   1   3
BRANCH   1  57
ATOM     57  C   LEU d   1     287.826  -3.368 -10.266  0.00  0.00     0.241 C 
ATOM     58  O   LEU d   1     288.603  -3.456 -11.218  0.00  0.00    -0.271 OA
ATOM     59  N   SEP d   1     286.948  -4.310  -9.990  0.00  0.00    -0.344 N 
ATOM     60  H36 SEP d   1     286.147  -4.098  -9.431  0.00  0.00     0.163 HD
BRANCH  59  61
ATOM     61  CA  SEP d   1     287.143  -5.650 -10.496  0.00  0.00     0.110 C 
ATOM     62  H37 SEP d   1     287.402  -5.600 -11.564  0.00  0.00     0.090 H 
BRANCH  61  63
ATOM     63  CB  SEP d   1     288.311  -6.299  -9.727  0.00  0.00     0.059 C 
ATOM     64  H38 SEP d   1     288.502  -7.308 -10.122  0.00  0.00     0.079 H 
ATOM     65  H39 SEP d   1     288.062  -6.365  -8.658  0.00  0.00     0.079 H 
BRANCH  63  66
ATOM     66  OG  SEP d   1     289.477  -5.478  -9.905  0.00  0.00    -0.280 OA
BRANCH  66  67
ATOM     67  P   SEP d   1     290.731  -6.104  -9.114  0.00  0.00     0.422 P 
ATOM     68  O1P SEP d   1     291.023  -7.457  -9.638  0.00  0.00    -0.617 OA
ATOM     69  O2P SEP d   1     292.014  -5.147  -9.331  0.00  0.00    -0.617 OA
ATOM     70  O3P SEP d   1     290.385  -6.207  -7.549  0.00  0.00    -0.617 OA
ENDBRANCH  66  67
ENDBRANCH  63  66
ENDBRANCH  61  63
BRANCH  61  71
ATOM     71  C   SEP d   1     285.865  -6.455 -10.344  0.00  0.00     0.243 C 
ATOM     72  O   SEP d   1     285.596  -7.005  -9.278  0.00  0.00    -0.271 OA
ATOM     73  N   ASP d   1     285.053  -6.479 -11.387  0.00  0.00    -0.345 N 
ATOM     74  H40 ASP d   1     285.356  -6.089 -12.257  0.00  0.00     0.163 HD
BRANCH  73  75
ATOM     75  CA  ASP d   1     283.727  -7.063 -11.289  0.00  0.00     0.098 C 
ATOM     76  H41 ASP d   1     283.646  -7.537 -10.300  0.00  0.00     0.088 H 
BRANCH  75  77
ATOM     77  C   ASP d   1     283.510  -8.157 -12.337  0.00  0.00     0.241 C 
ATOM     78  O   ASP d   1     284.093  -9.237 -12.234  0.00  0.00    -0.271 OA
ATOM     79  N   SEP d   1     282.693  -7.882 -13.342  0.00  0.00    -0.344 N 
ATOM     80  H44 SEP d   1     282.317  -6.959 -13.425  0.00  0.00     0.163 HD
BRANCH  79  81
ATOM     81  CA  SEP d   1     282.328  -8.886 -14.327  0.00  0.00     0.110 C 
ATOM     82  H45 SEP d   1     283.121  -9.647 -14.366  0.00  0.00     0.090 H 
BRANCH  81  83
ATOM     83  CB  SEP d   1     281.013  -9.557 -13.920  0.00  0.00     0.059 C 
ATOM     84  H46 SEP d   1     280.762 -10.342 -14.649  0.00  0.00     0.079 H 
ATOM     85  H47 SEP d   1     280.210  -8.805 -13.899  0.00  0.00     0.079 H 
BRANCH  83  86
ATOM     86  OG  SEP d   1     281.151 -10.141 -12.622  0.00  0.00    -0.280 OA
BRANCH  86  87
ATOM     87  P   SEP d   1     279.741 -10.827 -12.246  0.00  0.00     0.422 P 
ATOM     88  O1P SEP d   1     279.402 -11.857 -13.254  0.00  0.00    -0.617 OA
ATOM     89  O2P SEP d   1     279.842 -11.503 -10.789  0.00  0.00    -0.617 OA
ATOM     90  O3P SEP d   1     278.589  -9.704 -12.225  0.00  0.00    -0.617 OA
ENDBRANCH  86  87
ENDBRANCH  83  86
ENDBRANCH  81  83
BRANCH  81  91
ATOM     91  C   SEP d   1     282.178  -8.263 -15.714  0.00  0.00     0.243 C 
ATOM     92  O   SEP d   1     282.313  -8.959 -16.719  0.00  0.00    -0.271 OA
ATOM     93  N   GLU d   1     281.928  -6.950 -15.758  0.00  0.00    -0.345 N 
ATOM     94  H48 GLU d   1     281.932  -6.429 -14.905  0.00  0.00     0.163 HD
BRANCH  93  95
ATOM     95  CA  GLU d   1     281.649  -6.249 -17.014  0.00  0.00     0.097 C 
ATOM     96  H49 GLU d   1     281.340  -5.221 -16.772  0.00  0.00     0.089 H 
BRANCH  95  97
ATOM     97  C   GLU d   1     280.509  -6.929 -17.770  0.00  0.00     0.196 C 
ATOM     98  O   GLU d   1     280.758  -7.493 -18.857  0.00  0.00    -0.646 OA
ATOM     99  OXT GLU d   1     279.369  -6.919 -17.257  0.00  0.00    -0.646 OA
ENDBRANCH  95  97
BRANCH  95 100
ATOM    100  CB  GLU d   1     282.904  -6.179 -17.896  0.00  0.00    -0.028 C 
ATOM    101  H50 GLU d   1     282.596  -5.905 -18.916  0.00  0.00     0.037 H 
ATOM    102  H51 GLU d   1     283.373  -7.174 -17.910  0.00  0.00     0.037 H 
BRANCH 100 103
ATOM    103  CG  GLU d   1     283.937  -5.169 -17.421  0.00  0.00     0.018 C 
ATOM    104  H52 GLU d   1     284.876  -5.344 -17.966  0.00  0.00     0.049 H 
ATOM    105  H53 GLU d   1     284.104  -5.317 -16.344  0.00  0.00     0.049 H 
BRANCH 103 106
ATOM    106  CD  GLU d   1     283.504  -3.733 -17.651  0.00  0.00     0.172 C 
ATOM    107  OE1 GLU d   1     282.782  -3.176 -16.802  0.00  0.00    -0.648 OA
ATOM    108  OE2 GLU d   1     283.897  -3.143 -18.681  0.00  0.00    -0.648 OA
ENDBRANCH 103 106
ENDBRANCH 100 103
ENDBRANCH  95 100
ENDBRANCH  93  95
ENDBRANCH  81  91
ENDBRANCH  79  81
ENDBRANCH  75  77
BRANCH  75 109
ATOM    109  CB  ASP d   1     282.643  -5.968 -11.369  0.00  0.00     0.043 C 
ATOM    110  H42 ASP d   1     282.751  -5.308 -10.496  0.00  0.00     0.052 H 
ATOM    111  H43 ASP d   1     281.656  -6.454 -11.341  0.00  0.00     0.052 H 
BRANCH 109 112
ATOM    112  CG  ASP d   1     282.723  -5.116 -12.627  0.00  0.00     0.175 C 
ATOM    113  OD1 ASP d   1     283.582  -4.213 -12.697  0.00  0.00    -0.648 OA
ATOM    114  OD2 ASP d   1     281.922  -5.361 -13.556  0.00  0.00    -0.648 OA
ENDBRANCH 109 112
ENDBRANCH  75 109
ENDBRANCH  73  75
ENDBRANCH  61  71
ENDBRANCH  59  61
ENDBRANCH   1  57
BRANCH   1 115
ATOM    115  CB  LEU d   1     286.701  -2.190  -8.330  0.00  0.00    -0.035 C 
ATOM    116  H27 LEU d   1     285.792  -2.571  -8.819  0.00  0.00     0.037 H 
ATOM    117  H28 LEU d   1     286.520  -1.169  -7.964  0.00  0.00     0.037 H 
BRANCH 115 118
ATOM    118  CG  LEU d   1     287.003  -3.091  -7.109  0.00  0.00    -0.059 C 
ATOM    119  H29 LEU d   1     288.055  -3.405  -7.176  0.00  0.00     0.038 H 
BRANCH 118 120
ATOM    120  CD1 LEU d   1     286.816  -2.330  -5.803  0.00  0.00    -0.073 C 
ATOM    121  H30 LEU d   1     287.038  -2.996  -4.956  0.00  0.00     0.028 H 
ATOM    122  H31 LEU d   1     285.777  -1.977  -5.730  0.00  0.00     0.028 H 
ATOM    123  H32 LEU d   1     287.499  -1.468  -5.780  0.00  0.00     0.028 H 
ENDBRANCH 118 120
BRANCH 118 124
ATOM    124  CD2 LEU d   1     286.134  -4.344  -7.102  0.00  0.00    -0.073 C 
ATOM    125  H33 LEU d   1     286.272  -4.891  -8.046  0.00  0.00     0.028 H 
ATOM    126  H34 LEU d   1     285.077  -4.057  -6.995  0.00  0.00     0.028 H 
ATOM    127  H35 LEU d   1     286.426  -4.988  -6.260  0.00  0.00     0.028 H 
ENDBRANCH 118 124
ENDBRANCH 115 118
ENDBRANCH   1 115
TORSDOF 40
