REMARK WARNING: 32 MAX_TORS EXCEEDED!!!
REMARK  85 active torsions:
REMARK  status: ('A' for Active; 'I' for Inactive)
REMARK    1  A    between atoms: N_1  and  CA_2 
REMARK    2  A    between atoms: CA_2  and  C_3 
REMARK    3  A    between atoms: CA_2  and  CB_5 
REMARK       I    between atoms: C_3  and  N_6 
REMARK    4  A    between atoms: N_6  and  CA_7 
REMARK    5  A    between atoms: CA_7  and  C_8 
REMARK    6  A    between atoms: CA_7  and  CB_10 
REMARK       I    between atoms: C_8  and  N_17 
REMARK    7  A    between atoms: CB_10  and  CG_11 
REMARK    8  A    between atoms: CG_11  and  CD_12 
REMARK    9  A    between atoms: CD_12  and  NE_13 
REMARK       I    between atoms: NE_13  and  CZ_14 
REMARK       I    between atoms: CZ_14  and  NH1_15 
REMARK       I    between atoms: CZ_14  and  NH2_16 
REMARK   10  A    between atoms: N_17  and  CA_18 
REMARK   11  A    between atoms: CA_18  and  C_19 
REMARK   12  A    between atoms: CA_18  and  CB_21 
REMARK       I    between atoms: C_19  and  N_24 
REMARK   13  A    between atoms: CB_21  and  OG1_22 
REMARK   14  A    between atoms: CB_21  and  CG2_23 
REMARK   15  A    between atoms: N_24  and  CA_25 
REMARK   16  A    between atoms: CA_25  and  C_26 
REMARK   17  A    between atoms: CA_25  and  CB_28 
REMARK       I    between atoms: C_26  and  N_33 
REMARK   18  A    between atoms: CB_28  and  CG_29 
REMARK   19  A    between atoms: CG_29  and  CD_30 
REMARK   20  A    between atoms: CD_30  and  CE_31 
REMARK   21  A    between atoms: CE_31  and  NZ_32 
REMARK   22  A    between atoms: N_33  and  CA_34 
REMARK   23  A    between atoms: CA_34  and  C_35 
REMARK   24  A    between atoms: CA_34  and  CB_37 
REMARK       I    between atoms: C_35  and  N_42 
REMARK   25  A    between atoms: CB_37  and  CG_38 
REMARK   26  A    between atoms: CG_38  and  CD_39 
REMARK       I    between atoms: CD_39  and  NE2_41 
REMARK   27  A    between atoms: N_42  and  CA_43 
REMARK   28  A    between atoms: CA_43  and  C_44 
REMARK   29  A    between atoms: CA_43  and  CB_46 
REMARK       I    between atoms: C_44  and  N_49 
REMARK   30  A    between atoms: CB_46  and  OG1_47 
REMARK   31  A    between atoms: CB_46  and  CG2_48 
REMARK   32  A    between atoms: N_49  and  CA_50 
REMARK   33  A    between atoms: CA_50  and  C_51 
REMARK   34  A    between atoms: CA_50  and  CB_53 
REMARK       I    between atoms: C_51  and  N_54 
REMARK   35  A    between atoms: N_54  and  CA_55 
REMARK   36  A    between atoms: CA_55  and  C_56 
REMARK   37  A    between atoms: CA_55  and  CB_58 
REMARK       I    between atoms: C_56  and  N_65 
REMARK   38  A    between atoms: CB_58  and  CG_59 
REMARK   39  A    between atoms: CG_59  and  CD_60 
REMARK   40  A    between atoms: CD_60  and  NE_61 
REMARK       I    between atoms: NE_61  and  CZ_62 
REMARK       I    between atoms: CZ_62  and  NH1_63 
REMARK       I    between atoms: CZ_62  and  NH2_64 
REMARK   41  A    between atoms: N_65  and  CA_66 
REMARK   42  A    between atoms: CA_66  and  CB_67 
REMARK   43  A    between atoms: CA_66  and  C_72 
REMARK   44  A    between atoms: CB_67  and  CG_68 
REMARK   45  A    between atoms: CG_68  and  CD_69 
REMARK   46  A    between atoms: CD_69  and  CE_70 
REMARK   47  A    between atoms: CE_70  and  NZ_71 
REMARK   48  A    between atoms: NZ_71  and  CM1_74 
REMARK   49  A    between atoms: NZ_71  and  CM2_75 
REMARK   50  A    between atoms: NZ_71  and  CM3_76 
REMARK       I    between atoms: C_72  and  N_77 
REMARK   51  A    between atoms: N_77  and  CA_78 
REMARK   52  A    between atoms: CA_78  and  C_79 
REMARK   53  A    between atoms: CA_78  and  CB_81 
REMARK       I    between atoms: C_79  and  N_83 
REMARK   54  A    between atoms: CB_81  and  OG_82 
REMARK   55  A    between atoms: N_83  and  CA_84 
REMARK   56  A    between atoms: CA_84  and  C_85 
REMARK   57  A    between atoms: CA_84  and  CB_87 
REMARK       I    between atoms: C_85  and  N_90 
REMARK   58  A    between atoms: CB_87  and  OG1_88 
REMARK   59  A    between atoms: CB_87  and  CG2_89 
REMARK   60  A    between atoms: N_90  and  CA_91 
REMARK   61  A    between atoms: CA_91  and  C_92 
REMARK       I    between atoms: C_92  and  N_94 
REMARK   62  A    between atoms: N_94  and  CA_95 
REMARK   63  A    between atoms: CA_95  and  C_96 
REMARK       I    between atoms: C_96  and  N_98 
REMARK   64  A    between atoms: N_98  and  CA_99 
REMARK   65  A    between atoms: CA_99  and  C_100 
REMARK   66  A    between atoms: CA_99  and  CB_102 
REMARK       I    between atoms: C_100  and  N_107 
REMARK   67  A    between atoms: CB_102  and  CG_103 
REMARK   68  A    between atoms: CG_103  and  CD_104 
REMARK   69  A    between atoms: CD_104  and  CE_105 
REMARK   70  A    between atoms: CE_105  and  NZ_106 
REMARK   71  A    between atoms: N_107  and  CA_108 
REMARK   72  A    between atoms: CA_108  and  C_109 
REMARK   73  A    between atoms: CA_108  and  CB_111 
REMARK       I    between atoms: C_109  and  N_112 
REMARK   74  A    between atoms: CA_113  and  C_114 
REMARK       I    between atoms: C_114  and  N_119 
REMARK   75  A    between atoms: N_119  and  CA_120 
REMARK   76  A    between atoms: CA_120  and  C_121 
REMARK   77  A    between atoms: CA_120  and  CB_123 
REMARK       I    between atoms: C_121  and  N_130 
REMARK   78  A    between atoms: CB_123  and  CG_124 
REMARK   79  A    between atoms: CG_124  and  CD_125 
REMARK   80  A    between atoms: CD_125  and  NE_126 
REMARK       I    between atoms: NE_126  and  CZ_127 
REMARK       I    between atoms: CZ_127  and  NH1_128 
REMARK   81  A    between atoms: N_130  and  CA_131 
REMARK   82  A    between atoms: CA_131  and  C_132 
REMARK   83  A    between atoms: CA_131  and  CB_134 
REMARK   84  A    between atoms: CB_134  and  CG_135 
REMARK   85  A    between atoms: CZ_140  and  OH_141 
ROOT
ATOM      1  CA  M3L d   1      -4.469 -20.050  -5.557  0.00  0.00     0.089 C 
ATOM      2  H75 M3L d   1      -3.707 -20.091  -4.765  0.00  0.00     0.087 H 
ENDROOT
BRANCH   1   3
ATOM      3  N   M3L d   1      -5.488 -21.136  -5.327  0.00  0.00    -0.346 N 
ATOM      4  C   ARG d   1      -6.103 -21.286  -4.157  0.00  0.00     0.241 C 
ATOM      5  O   ARG d   1      -6.556 -20.329  -3.508  0.00  0.00    -0.271 OA
ATOM      6  H74 M3L d   1      -5.708 -21.762  -6.075  0.00  0.00     0.163 HD
BRANCH   4   7
ATOM      7  CA  ARG d   1      -6.227 -22.717  -3.641  0.00  0.00     0.089 C 
ATOM      8  H62 ARG d   1      -5.224 -23.169  -3.617  0.00  0.00     0.087 H 
BRANCH   7   9
ATOM      9  N   ARG d   1      -6.775 -22.735  -2.290  0.00  0.00    -0.346 N 
ATOM     10  C   ALA d   1      -6.005 -22.544  -1.224  0.00  0.00     0.240 C 
ATOM     11  O   ALA d   1      -4.793 -22.339  -1.300  0.00  0.00    -0.271 OA
ATOM     12  H61 ARG d   1      -7.754 -22.895  -2.163  0.00  0.00     0.163 HD
BRANCH  10  13
ATOM     13  CA  ALA d   1      -6.705 -22.591   0.130  0.00  0.00     0.086 C 
ATOM     14  H57 ALA d   1      -7.421 -23.426   0.119  0.00  0.00     0.086 H 
BRANCH  13  15
ATOM     15  N   ALA d   1      -5.750 -22.821   1.207  0.00  0.00    -0.346 N 
ATOM     16  C   THR d   1      -6.059 -23.565   2.264  0.00  0.00     0.243 C 
ATOM     17  O   THR d   1      -7.156 -24.103   2.408  0.00  0.00    -0.271 OA
ATOM     18  H56 ALA d   1      -4.841 -22.409   1.149  0.00  0.00     0.163 HD
BRANCH  16  19
ATOM     19  CA  THR d   1      -4.967 -23.728   3.315  0.00  0.00     0.113 C 
ATOM     20  H50 THR d   1      -4.275 -22.876   3.236  0.00  0.00     0.091 H 
BRANCH  19  21
ATOM     21  N   THR d   1      -5.528 -23.733   4.660  0.00  0.00    -0.344 N 
ATOM     22  C   GLN d   1      -4.901 -23.153   5.680  0.00  0.00     0.241 C 
ATOM     23  O   GLN d   1      -3.818 -22.579   5.560  0.00  0.00    -0.271 OA
ATOM     24  H49 THR d   1      -6.406 -24.184   4.820  0.00  0.00     0.163 HD
BRANCH  22  25
ATOM     25  CA  GLN d   1      -5.600 -23.234   7.033  0.00  0.00     0.090 C 
ATOM     26  H42 GLN d   1      -6.543 -23.786   6.907  0.00  0.00     0.087 H 
BRANCH  25  27
ATOM     27  N   GLN d   1      -4.775 -23.944   8.003  0.00  0.00    -0.346 N 
ATOM     28  C   LYS d   1      -4.529 -25.245   7.887  0.00  0.00     0.241 C 
ATOM     29  O   LYS d   1      -4.973 -25.933   6.968  0.00  0.00    -0.271 OA
ATOM     30  H41 GLN d   1      -4.385 -23.440   8.774  0.00  0.00     0.163 HD
BRANCH  28  31
ATOM     31  CA  LYS d   1      -3.650 -25.864   8.970  0.00  0.00     0.089 C 
ATOM     32  H29 LYS d   1      -3.913 -25.410   9.937  0.00  0.00     0.087 H 
BRANCH  31  33
ATOM     33  N   LYS d   1      -3.871 -27.302   9.060  0.00  0.00    -0.346 N 
ATOM     34  C   THR d   1      -5.070 -27.809   9.326  0.00  0.00     0.243 C 
ATOM     35  O   THR d   1      -6.066 -27.109   9.514  0.00  0.00    -0.271 OA
ATOM     36  H28 LYS d   1      -3.100 -27.923   8.918  0.00  0.00     0.163 HD
BRANCH  34  37
ATOM     37  CA  THR d   1      -5.161 -29.329   9.389  0.00  0.00     0.113 C 
ATOM     38  H22 THR d   1      -6.221 -29.614   9.454  0.00  0.00     0.091 H 
BRANCH  37  39
ATOM     39  N   THR d   1      -4.600 -29.939   8.190  0.00  0.00    -0.344 N 
ATOM     40  C   ARG d   1      -5.246 -30.892   7.526  0.00  0.00     0.241 C 
ATOM     41  O   ARG d   1      -6.349 -31.320   7.871  0.00  0.00    -0.271 OA
ATOM     42  H21 THR d   1      -3.707 -29.633   7.859  0.00  0.00     0.163 HD
BRANCH  40  43
ATOM     43  CA  ARG d   1      -4.544 -31.445   6.289  0.00  0.00     0.089 C 
ATOM     44  H9  ARG d   1      -3.495 -31.115   6.305  0.00  0.00     0.087 H 
BRANCH  43  45
ATOM     45  N   ARG d   1      -4.570 -32.903   6.285  0.00  0.00    -0.346 N 
ATOM     46  C   ALA d   1      -3.466 -33.618   6.092  0.00  0.00     0.248 C 
ATOM     47  O   ALA d   1      -2.361 -33.109   5.907  0.00  0.00    -0.271 OA
ATOM     48  H8  ARG d   1      -5.439 -33.376   6.431  0.00  0.00     0.163 HD
BRANCH  46  49
ATOM     49  CA  ALA d   1      -3.634 -35.133   6.110  0.00  0.00     0.172 C 
ATOM     50  H4  ALA d   1      -4.606 -35.378   5.657  0.00  0.00     0.098 H 
BRANCH  49  51
ATOM     51  N   ALA d   1      -2.589 -35.786   5.332  0.00  0.00    -0.067 N 
ATOM     52  H1  ALA d   1      -2.723 -36.785   5.360  0.00  0.00     0.275 HD
ATOM     53  H2  ALA d   1      -1.688 -35.557   5.721  0.00  0.00     0.275 HD
ATOM     54  H3  ALA d   1      -2.633 -35.468   4.377  0.00  0.00     0.275 HD
ENDBRANCH  49  51
BRANCH  49  55
ATOM     55  CB  ALA d   1      -3.627 -35.650   7.541  0.00  0.00    -0.042 C 
ATOM     56  H5  ALA d   1      -4.420 -35.149   8.116  0.00  0.00     0.030 H 
ATOM     57  H6  ALA d   1      -2.651 -35.439   8.002  0.00  0.00     0.030 H 
ATOM     58  H7  ALA d   1      -3.805 -36.735   7.540  0.00  0.00     0.030 H 
ENDBRANCH  49  55
ENDBRANCH  46  49
ENDBRANCH  43  45
BRANCH  43  59
ATOM     59  CB  ARG d   1      -5.210 -30.899   5.025  0.00  0.00    -0.036 C 
ATOM     60  H10 ARG d   1      -4.650 -31.265   4.152  0.00  0.00     0.036 H 
ATOM     61  H11 ARG d   1      -5.165 -29.800   5.055  0.00  0.00     0.036 H 
BRANCH  59  62
ATOM     62  CG  ARG d   1      -6.664 -31.316   4.873  0.00  0.00    -0.048 C 
ATOM     63  H12 ARG d   1      -7.275 -30.753   5.594  0.00  0.00     0.035 H 
ATOM     64  H13 ARG d   1      -6.751 -32.392   5.082  0.00  0.00     0.035 H 
BRANCH  62  65
ATOM     65  CD  ARG d   1      -7.179 -31.042   3.469  0.00  0.00     0.009 C 
ATOM     66  H14 ARG d   1      -8.163 -31.520   3.352  0.00  0.00     0.064 H 
ATOM     67  H15 ARG d   1      -6.474 -31.471   2.742  0.00  0.00     0.064 H 
BRANCH  65  68
ATOM     68  NE  ARG d   1      -7.316 -29.612   3.205  0.00  0.00    -0.227 N 
ATOM     69  CZ  ARG d   1      -8.357 -28.888   3.600  0.00  0.00     0.665 C 
ATOM     70  NH1 ARG d   1      -9.348 -29.458   4.272  0.00  0.00    -0.235 N 
ATOM     71  NH2 ARG d   1      -8.409 -27.592   3.322  0.00  0.00    -0.235 N 
ATOM     72  H17 ARG d   1     -10.154 -28.894   4.577  0.00  0.00     0.174 HD
ATOM     73  H18 ARG d   1      -9.311 -30.464   4.489  0.00  0.00     0.174 HD
ATOM     74  H19 ARG d   1      -7.641 -27.146   2.800  0.00  0.00     0.174 HD
ATOM     75  H20 ARG d   1      -9.217 -27.032   3.628  0.00  0.00     0.174 HD
ATOM     76  H16 ARG d   1      -6.564 -29.139   2.684  0.00  0.00     0.177 HD
ENDBRANCH  65  68
ENDBRANCH  62  65
ENDBRANCH  59  62
ENDBRANCH  43  59
ENDBRANCH  40  43
ENDBRANCH  37  39
BRANCH  37  77
ATOM     77  CB  THR d   1      -4.442 -29.822  10.659  0.00  0.00     0.060 C 
ATOM     78  H23 THR d   1      -4.793 -29.228  11.515  0.00  0.00     0.086 H 
BRANCH  77  79
ATOM     79  OG1 THR d   1      -3.028 -29.646  10.522  0.00  0.00    -0.393 OA
ATOM     80  H24 THR d   1      -2.594 -29.953  11.309  0.00  0.00     0.210 HD
ENDBRANCH  77  79
BRANCH  77  81
ATOM     81  CG2 THR d   1      -4.752 -31.288  10.922  0.00  0.00    -0.050 C 
ATOM     82  H25 THR d   1      -4.228 -31.616  11.832  0.00  0.00     0.031 H 
ATOM     83  H26 THR d   1      -4.416 -31.893  10.067  0.00  0.00     0.031 H 
ATOM     84  H27 THR d   1      -5.836 -31.415  11.057  0.00  0.00     0.031 H 
ENDBRANCH  77  81
ENDBRANCH  37  77
ENDBRANCH  34  37
ENDBRANCH  31  33
BRANCH  31  85
ATOM     85  CB  LYS d   1      -2.177 -25.571   8.675  0.00  0.00    -0.038 C 
ATOM     86  H30 LYS d   1      -1.570 -25.981   9.496  0.00  0.00     0.036 H 
ATOM     87  H31 LYS d   1      -2.042 -24.480   8.628  0.00  0.00     0.036 H 
BRANCH  85  88
ATOM     88  CG  LYS d   1      -1.687 -26.172   7.369  0.00  0.00    -0.061 C 
ATOM     89  H32 LYS d   1      -2.358 -25.857   6.557  0.00  0.00     0.033 H 
ATOM     90  H33 LYS d   1      -1.702 -27.269   7.453  0.00  0.00     0.033 H 
BRANCH  88  91
ATOM     91  CD  LYS d   1      -0.273 -25.721   7.043  0.00  0.00    -0.043 C 
ATOM     92  H34 LYS d   1      -0.172 -24.654   7.290  0.00  0.00     0.035 H 
ATOM     93  H35 LYS d   1      -0.090 -25.868   5.968  0.00  0.00     0.035 H 
BRANCH  91  94
ATOM     94  CE  LYS d   1       0.759 -26.511   7.833  0.00  0.00     0.080 C 
ATOM     95  H36 LYS d   1       0.895 -27.493   7.357  0.00  0.00     0.075 H 
ATOM     96  H37 LYS d   1       0.391 -26.649   8.860  0.00  0.00     0.075 H 
BRANCH  94  97
ATOM     97  NZ  LYS d   1       2.074 -25.813   7.882  0.00  0.00    -0.079 N 
ATOM     98  H38 LYS d   1       2.728 -26.366   8.412  0.00  0.00     0.274 HD
ATOM     99  H39 LYS d   1       1.961 -24.913   8.322  0.00  0.00     0.274 HD
ATOM    100  H40 LYS d   1       2.423 -25.687   6.945  0.00  0.00     0.274 HD
ENDBRANCH  94  97
ENDBRANCH  91  94
ENDBRANCH  88  91
ENDBRANCH  85  88
ENDBRANCH  31  85
ENDBRANCH  28  31
ENDBRANCH  25  27
BRANCH  25 101
ATOM    101  CB  GLN d   1      -5.921 -21.827   7.539  0.00  0.00    -0.030 C 
ATOM    102  H43 GLN d   1      -5.070 -21.170   7.304  0.00  0.00     0.037 H 
ATOM    103  H44 GLN d   1      -6.059 -21.873   8.629  0.00  0.00     0.037 H 
BRANCH 101 104
ATOM    104  CG  GLN d   1      -7.175 -21.229   6.920  0.00  0.00     0.011 C 
ATOM    105  H45 GLN d   1      -7.065 -21.236   5.825  0.00  0.00     0.047 H 
ATOM    106  H46 GLN d   1      -7.281 -20.192   7.271  0.00  0.00     0.047 H 
BRANCH 104 107
ATOM    107  CD  GLN d   1      -8.430 -21.997   7.287  0.00  0.00     0.215 C 
ATOM    108  OE1 GLN d   1      -9.057 -21.729   8.312  0.00  0.00    -0.274 OA
ATOM    109  NE2 GLN d   1      -8.803 -22.958   6.450  0.00  0.00    -0.370 N 
ATOM    110  H47 GLN d   1      -9.623 -23.497   6.641  0.00  0.00     0.159 HD
ATOM    111  H48 GLN d   1      -8.264 -23.142   5.628  0.00  0.00     0.159 HD
ENDBRANCH 104 107
ENDBRANCH 101 104
ENDBRANCH  25 101
ENDBRANCH  22  25
ENDBRANCH  19  21
BRANCH  19 112
ATOM    112  CB  THR d   1      -4.183 -25.023   3.029  0.00  0.00     0.060 C 
ATOM    113  H51 THR d   1      -4.901 -25.832   2.829  0.00  0.00     0.086 H 
BRANCH 112 114
ATOM    114  OG1 THR d   1      -3.390 -25.377   4.168  0.00  0.00    -0.393 OA
ATOM    115  H52 THR d   1      -3.958 -25.514   4.918  0.00  0.00     0.210 HD
ENDBRANCH 112 114
BRANCH 112 116
ATOM    116  CG2 THR d   1      -3.286 -24.854   1.812  0.00  0.00    -0.050 C 
ATOM    117  H53 THR d   1      -2.738 -25.790   1.628  0.00  0.00     0.031 H 
ATOM    118  H54 THR d   1      -2.570 -24.039   1.994  0.00  0.00     0.031 H 
ATOM    119  H55 THR d   1      -3.902 -24.611   0.933  0.00  0.00     0.031 H 
ENDBRANCH 112 116
ENDBRANCH  19 112
ENDBRANCH  16  19
ENDBRANCH  13  15
BRANCH  13 120
ATOM    120  CB  ALA d   1      -7.474 -21.301   0.374  0.00  0.00    -0.049 C 
ATOM    121  H58 ALA d   1      -8.190 -21.140  -0.446  0.00  0.00     0.030 H 
ATOM    122  H59 ALA d   1      -6.770 -20.457   0.416  0.00  0.00     0.030 H 
ATOM    123  H60 ALA d   1      -8.018 -21.373   1.327  0.00  0.00     0.030 H 
ENDBRANCH  13 120
ENDBRANCH  10  13
ENDBRANCH   7   9
BRANCH   7 124
ATOM    124  CB  ARG d   1      -7.111 -23.536  -4.584  0.00  0.00    -0.036 C 
ATOM    125  H63 ARG d   1      -6.912 -23.213  -5.616  0.00  0.00     0.036 H 
ATOM    126  H64 ARG d   1      -8.164 -23.337  -4.334  0.00  0.00     0.036 H 
BRANCH 124 127
ATOM    127  CG  ARG d   1      -6.871 -25.034  -4.495  0.00  0.00    -0.048 C 
ATOM    128  H65 ARG d   1      -7.089 -25.371  -3.471  0.00  0.00     0.035 H 
ATOM    129  H66 ARG d   1      -5.817 -25.242  -4.733  0.00  0.00     0.035 H 
BRANCH 127 130
ATOM    130  CD  ARG d   1      -7.758 -25.798  -5.466  0.00  0.00     0.009 C 
ATOM    131  H67 ARG d   1      -7.332 -26.800  -5.623  0.00  0.00     0.064 H 
ATOM    132  H68 ARG d   1      -7.785 -25.257  -6.423  0.00  0.00     0.064 H 
BRANCH 130 133
ATOM    133  NE  ARG d   1      -9.123 -25.939  -4.966  0.00  0.00    -0.227 N 
ATOM    134  CZ  ARG d   1     -10.099 -26.528  -5.648  0.00  0.00     0.665 C 
ATOM    135  NH1 ARG d   1      -9.861 -27.028  -6.853  0.00  0.00    -0.235 N 
ATOM    136  NH2 ARG d   1     -11.315 -26.618  -5.125  0.00  0.00    -0.235 N 
ATOM    137  H70 ARG d   1     -10.619 -27.484  -7.380  0.00  0.00     0.174 HD
ATOM    138  H71 ARG d   1      -8.918 -26.960  -7.262  0.00  0.00     0.174 HD
ATOM    139  H72 ARG d   1     -11.503 -26.231  -4.189  0.00  0.00     0.174 HD
ATOM    140  H73 ARG d   1     -12.071 -27.075  -5.655  0.00  0.00     0.174 HD
ATOM    141  H69 ARG d   1      -9.341 -25.561  -4.033  0.00  0.00     0.177 HD
ENDBRANCH 130 133
ENDBRANCH 127 130
ENDBRANCH 124 127
ENDBRANCH   7 124
ENDBRANCH   4   7
ENDBRANCH   1   3
BRANCH   1 142
ATOM    142  CB  M3L d   1      -3.794 -20.213  -6.924  0.00  0.00    -0.038 C 
ATOM    143  H76 M3L d   1      -4.465 -19.811  -7.698  0.00  0.00     0.036 H 
ATOM    144  H77 M3L d   1      -3.624 -21.284  -7.107  0.00  0.00     0.036 H 
BRANCH 142 145
ATOM    145  CG  M3L d   1      -2.447 -19.480  -7.013  0.00  0.00    -0.061 C 
ATOM    146  H78 M3L d   1      -2.570 -18.471  -6.593  0.00  0.00     0.033 H 
ATOM    147  H79 M3L d   1      -2.160 -19.404  -8.072  0.00  0.00     0.033 H 
BRANCH 145 148
ATOM    148  CD  M3L d   1      -1.318 -20.190  -6.253  0.00  0.00    -0.042 C 
ATOM    149  H80 M3L d   1      -1.659 -20.416  -5.232  0.00  0.00     0.035 H 
ATOM    150  H81 M3L d   1      -0.442 -19.526  -6.208  0.00  0.00     0.035 H 
BRANCH 148 151
ATOM    151  CE  M3L d   1      -0.922 -21.495  -6.949  0.00  0.00     0.084 C 
ATOM    152  H82 M3L d   1      -1.529 -21.598  -7.861  0.00  0.00     0.076 H 
ATOM    153  H83 M3L d   1      -1.140 -22.330  -6.267  0.00  0.00     0.076 H 
BRANCH 151 154
ATOM    154  NZ  M3L d   1       0.503 -21.568  -7.330  0.00  0.00    -0.079 N 
BRANCH 154 155
ATOM    155  CM1 M3L d   1       0.747 -22.893  -7.903  0.00  0.00     0.067 C 
ATOM    156  H84 M3L d   1       1.804 -22.976  -8.197  0.00  0.00     0.068 H 
ATOM    157  H85 M3L d   1       0.108 -23.033  -8.787  0.00  0.00     0.068 H 
ATOM    158  H86 M3L d   1       0.512 -23.665  -7.155  0.00  0.00     0.068 H 
ENDBRANCH 154 155
BRANCH 154 159
ATOM    159  CM2 M3L d   1       1.377 -21.453  -6.155  0.00  0.00     0.067 C 
ATOM    160  H87 M3L d   1       1.232 -20.469  -5.685  0.00  0.00     0.068 H 
ATOM    161  H88 M3L d   1       2.426 -21.559  -6.467  0.00  0.00     0.068 H 
ATOM    162  H89 M3L d   1       1.127 -22.245  -5.433  0.00  0.00     0.068 H 
ENDBRANCH 154 159
BRANCH 154 163
ATOM    163  CM3 M3L d   1       0.851 -20.522  -8.310  0.00  0.00     0.067 C 
ATOM    164  H90 M3L d   1       0.195 -20.610  -9.189  0.00  0.00     0.068 H 
ATOM    165  H91 M3L d   1       1.899 -20.645  -8.621  0.00  0.00     0.068 H 
ATOM    166  H92 M3L d   1       0.718 -19.531  -7.851  0.00  0.00     0.068 H 
ENDBRANCH 154 163
ENDBRANCH 151 154
ENDBRANCH 148 151
ENDBRANCH 145 148
ENDBRANCH 142 145
ENDBRANCH   1 142
BRANCH   1 167
ATOM    167  C   M3L d   1      -5.158 -18.727  -5.529  0.00  0.00     0.241 C 
ATOM    168  O   M3L d   1      -4.712 -17.829  -4.815  0.00  0.00    -0.271 OA
ATOM    169  N   SER d   1      -6.229 -18.572  -6.302  0.00  0.00    -0.344 N 
ATOM    170  H93 SER d   1      -6.544 -19.341  -6.858  0.00  0.00     0.163 HD
BRANCH 169 171
ATOM    171  CA  SER d   1      -6.955 -17.309  -6.359  0.00  0.00     0.109 C 
ATOM    172  H94 SER d   1      -6.938 -16.852  -5.359  0.00  0.00     0.090 H 
BRANCH 171 173
ATOM    173  C   SER d   1      -8.408 -17.535  -6.765  0.00  0.00     0.243 C 
ATOM    174  O   SER d   1      -8.700 -17.867  -7.914  0.00  0.00    -0.271 OA
ATOM    175  N   THR d   1      -9.317 -17.353  -5.812  0.00  0.00    -0.344 N 
ATOM    176  H98 THR d   1      -9.017 -17.083  -4.897  0.00  0.00     0.163 HD
BRANCH 175 177
ATOM    177  CA  THR d   1     -10.740 -17.538  -6.068  0.00  0.00     0.113 C 
ATOM    178  H99 THR d   1     -10.863 -17.831  -7.121  0.00  0.00     0.091 H 
BRANCH 177 179
ATOM    179  C   THR d   1     -11.514 -16.246  -5.831  0.00  0.00     0.243 C 
ATOM    180  O   THR d   1     -11.086 -15.388  -5.060  0.00  0.00    -0.271 OA
ATOM    181  N   GLY d   1     -12.656 -16.114  -6.498  0.00  0.00    -0.350 N 
ATOM    182 5H10 GLY d   1     -12.956 -16.843  -7.113  0.00  0.00     0.163 HD
BRANCH 181 183
ATOM    183  CA  GLY d   1     -13.472 -14.924  -6.345  0.00  0.00     0.069 C 
ATOM    184 6H10 GLY d   1     -13.248 -14.465  -5.371  0.00  0.00     0.078 H 
ATOM    185 7H10 GLY d   1     -14.532 -15.216  -6.377  0.00  0.00     0.078 H 
BRANCH 183 186
ATOM    186  C   GLY d   1     -13.216 -13.902  -7.435  0.00  0.00     0.235 C 
ATOM    187  O   GLY d   1     -12.601 -12.865  -7.192  0.00  0.00    -0.272 OA
ATOM    188  N   GLY d   1     -13.689 -14.196  -8.643  0.00  0.00    -0.351 N 
ATOM    189 8H10 GLY d   1     -14.182 -15.054  -8.785  0.00  0.00     0.163 HD
BRANCH 188 190
ATOM    190  CA  GLY d   1     -13.497 -13.285  -9.757  0.00  0.00     0.069 C 
ATOM    191 9H10 GLY d   1     -12.509 -13.475 -10.202  0.00  0.00     0.078 H 
ATOM    192 0H11 GLY d   1     -13.537 -12.252  -9.380  0.00  0.00     0.078 H 
BRANCH 190 193
ATOM    193  C   GLY d   1     -14.553 -13.452 -10.830  0.00  0.00     0.236 C 
ATOM    194  O   GLY d   1     -14.531 -14.421 -11.590  0.00  0.00    -0.272 OA
ATOM    195  N   LYS d   1     -15.484 -12.505 -10.894  0.00  0.00    -0.346 N 
ATOM    196 1H11 LYS d   1     -15.449 -11.742 -10.248  0.00  0.00     0.163 HD
BRANCH 195 197
ATOM    197  CA  LYS d   1     -16.555 -12.550 -11.882  0.00  0.00     0.089 C 
ATOM    198 2H11 LYS d   1     -16.941 -13.579 -11.932  0.00  0.00     0.087 H 
BRANCH 197 199
ATOM    199  C   LYS d   1     -16.039 -12.158 -13.263  0.00  0.00     0.241 C 
ATOM    200  O   LYS d   1     -15.093 -11.381 -13.384  0.00  0.00    -0.271 OA
ATOM    201  N   ALA d   1     -16.667 -12.700 -14.301  0.00  0.00    -0.346 N 
ATOM    202 4H12 ALA d   1     -17.429 -13.327 -14.137  0.00  0.00     0.163 HD
BRANCH 201 203
ATOM    203  CA  ALA d   1     -16.273 -12.404 -15.672  0.00  0.00     0.086 C 
ATOM    204 5H12 ALA d   1     -15.358 -11.793 -15.644  0.00  0.00     0.086 H 
BRANCH 203 205
ATOM    205  C   ALA d   1     -17.356 -11.610 -16.395  0.00  0.00     0.243 C 
ATOM    206  O   ALA d   1     -18.115 -12.144 -17.205  0.00  0.00    -0.271 OA
ATOM    207  N   PRO d   1     -17.432 -10.305 -16.098  0.00  0.00    -0.337 N 
ATOM    208  CA  PRO d   1     -18.419  -9.410 -16.709  0.00  0.00     0.091 C 
ATOM    209  CD  PRO d   1     -16.559  -9.601 -15.143  0.00  0.00    -0.001 C 
ATOM    210  CB  PRO d   1     -18.268  -8.115 -15.907  0.00  0.00    -0.036 C 
ATOM    211 9H12 PRO d   1     -19.433  -9.823 -16.601  0.00  0.00     0.087 H 
ATOM    212  CG  PRO d   1     -16.872  -8.151 -15.388  0.00  0.00    -0.048 C 
ATOM    213 0H13 PRO d   1     -18.989  -8.086 -15.077  0.00  0.00     0.036 H 
ATOM    214 1H13 PRO d   1     -18.419  -7.238 -16.554  0.00  0.00     0.036 H 
ATOM    215 2H13 PRO d   1     -16.798  -7.580 -14.451  0.00  0.00     0.035 H 
ATOM    216 3H13 PRO d   1     -16.177  -7.730 -16.130  0.00  0.00     0.035 H 
ATOM    217 4H13 PRO d   1     -15.499  -9.815 -15.347  0.00  0.00     0.064 H 
ATOM    218 5H13 PRO d   1     -16.798  -9.886 -14.108  0.00  0.00     0.064 H 
BRANCH 208 219
ATOM    219  C   PRO d   1     -18.136  -9.157 -18.186  0.00  0.00     0.241 C 
ATOM    220  O   PRO d   1     -17.046  -9.450 -18.678  0.00  0.00    -0.271 OA
ATOM    221  N   ARG d   1     -19.124  -8.612 -18.888  0.00  0.00    -0.346 N 
ATOM    222 6H13 ARG d   1     -19.986  -8.396 -18.430  0.00  0.00     0.163 HD
BRANCH 221 223
ATOM    223  CA  ARG d   1     -18.981  -8.321 -20.310  0.00  0.00     0.089 C 
ATOM    224 7H13 ARG d   1     -18.614  -9.226 -20.816  0.00  0.00     0.087 H 
BRANCH 223 225
ATOM    225  C   ARG d   1     -17.974  -7.196 -20.536  0.00  0.00     0.241 C 
ATOM    226  O   ARG d   1     -17.024  -7.346 -21.304  0.00  0.00    -0.271 OA
ATOM    227  N   TYR d   1     -18.190  -6.072 -19.862  0.00  0.00    -0.344 N 
ATOM    228 9H14 TYR d   1     -18.980  -6.013 -19.251  0.00  0.00     0.163 HD
BRANCH 227 229
ATOM    229  CA  TYR d   1     -17.303  -4.922 -19.992  0.00  0.00     0.100 C 
ATOM    230 0H15 TYR d   1     -17.109  -4.751 -21.061  0.00  0.00     0.090 H 
BRANCH 229 231
ATOM    231  C   TYR d   1     -15.972  -5.178 -19.292  0.00  0.00     0.197 C 
ATOM    232  O   TYR d   1     -15.937  -5.538 -18.117  0.00  0.00    -0.646 OA
ATOM    233  OXT TYR d   1     -14.907  -5.029 -19.889  0.00  0.00    -0.646 OA
ENDBRANCH 229 231
BRANCH 229 234
ATOM    234  CB  TYR d   1     -17.966  -3.672 -19.409  0.00  0.00    -0.013 C 
ATOM    235 1H15 TYR d   1     -17.997  -3.773 -18.314  0.00  0.00     0.043 H 
ATOM    236 2H15 TYR d   1     -18.992  -3.608 -19.800  0.00  0.00     0.043 H 
BRANCH 234 237
ATOM    237  CG  TYR d   1     -17.244  -2.389 -19.750  0.00  0.00    -0.056 A 
ATOM    238  CD1 TYR d   1     -16.218  -1.911 -18.943  0.00  0.00    -0.074 A 
ATOM    239  CE1 TYR d   1     -15.556  -0.738 -19.250  0.00  0.00    -0.051 A 
ATOM    240 3H15 TYR d   1     -15.933  -2.468 -18.058  0.00  0.00     0.084 H 
ATOM    241  CZ  TYR d   1     -15.914  -0.027 -20.376  0.00  0.00     0.065 A 
ATOM    242 5H15 TYR d   1     -14.759  -0.378 -18.609  0.00  0.00     0.087 H 
ATOM    243  CE2 TYR d   1     -16.929  -0.481 -21.193  0.00  0.00    -0.051 A 
ATOM    244  CD2 TYR d   1     -17.587  -1.653 -20.877  0.00  0.00    -0.074 A 
ATOM    245 6H15 TYR d   1     -17.208   0.079 -22.078  0.00  0.00     0.087 H 
ATOM    246 4H15 TYR d   1     -18.386  -2.005 -21.520  0.00  0.00     0.084 H 
BRANCH 241 247
ATOM    247  OH  TYR d   1     -15.257   1.142 -20.686  0.00  0.00    -0.361 OA
ATOM    248 7H15 TYR d   1     -14.592   1.314 -20.030  0.00  0.00     0.217 HD
ENDBRANCH 241 247
ENDBRANCH 234 237
ENDBRANCH 229 234
ENDBRANCH 227 229
ENDBRANCH 223 225
BRANCH 223 249
ATOM    249  CB  ARG d   1     -20.334  -7.937 -20.912  0.00  0.00    -0.036 C 
ATOM    250 8H13 ARG d   1     -20.171  -7.596 -21.945  0.00  0.00     0.036 H 
ATOM    251 9H13 ARG d   1     -20.758  -7.115 -20.317  0.00  0.00     0.036 H 
BRANCH 249 252
ATOM    252  CG  ARG d   1     -21.336  -9.079 -20.936  0.00  0.00    -0.048 C 
ATOM    253 0H14 ARG d   1     -21.435  -9.489 -19.920  0.00  0.00     0.035 H 
ATOM    254 1H14 ARG d   1     -20.968  -9.864 -21.613  0.00  0.00     0.035 H 
BRANCH 252 255
ATOM    255  CD  ARG d   1     -22.701  -8.613 -21.416  0.00  0.00     0.009 C 
ATOM    256 2H14 ARG d   1     -22.625  -8.324 -22.474  0.00  0.00     0.064 H 
ATOM    257 3H14 ARG d   1     -23.009  -7.742 -20.819  0.00  0.00     0.064 H 
BRANCH 255 258
ATOM    258  NE  ARG d   1     -23.714  -9.657 -21.284  0.00  0.00    -0.227 N 
ATOM    259  CZ  ARG d   1     -24.313  -9.959 -20.138  0.00  0.00     0.665 C 
ATOM    260  NH1 ARG d   1     -24.002  -9.300 -19.030  0.00  0.00    -0.235 N 
ATOM    261  NH2 ARG d   1     -25.225 -10.922 -20.098  0.00  0.00    -0.235 N 
ATOM    262 5H14 ARG d   1     -24.468  -9.536 -18.142  0.00  0.00     0.174 HD
ATOM    263 6H14 ARG d   1     -23.294  -8.552 -19.057  0.00  0.00     0.174 HD
ATOM    264 7H14 ARG d   1     -25.469 -11.436 -20.956  0.00  0.00     0.174 HD
ATOM    265 8H14 ARG d   1     -25.689 -11.155 -19.208  0.00  0.00     0.174 HD
ATOM    266 4H14 ARG d   1     -23.978 -10.188 -22.126  0.00  0.00     0.177 HD
ENDBRANCH 255 258
ENDBRANCH 252 255
ENDBRANCH 249 252
ENDBRANCH 223 249
ENDBRANCH 221 223
ENDBRANCH 208 219
ENDBRANCH 203 205
BRANCH 203 267
ATOM    267  CB  ALA d   1     -15.969 -13.692 -16.424  0.00  0.00    -0.049 C 
ATOM    268 6H12 ALA d   1     -15.673 -13.453 -17.456  0.00  0.00     0.030 H 
ATOM    269 7H12 ALA d   1     -16.866 -14.329 -16.438  0.00  0.00     0.030 H 
ATOM    270 8H12 ALA d   1     -15.148 -14.225 -15.922  0.00  0.00     0.030 H 
ENDBRANCH 203 267
ENDBRANCH 201 203
ENDBRANCH 197 199
BRANCH 197 271
ATOM    271  CB  LYS d   1     -17.697 -11.618 -11.469  0.00  0.00    -0.038 C 
ATOM    272 3H11 LYS d   1     -18.376 -11.500 -12.326  0.00  0.00     0.036 H 
ATOM    273 4H11 LYS d   1     -17.269 -10.640 -11.203  0.00  0.00     0.036 H 
BRANCH 271 274
ATOM    274  CG  LYS d   1     -18.501 -12.128 -10.286  0.00  0.00    -0.061 C 
ATOM    275 5H11 LYS d   1     -17.814 -12.347  -9.455  0.00  0.00     0.033 H 
ATOM    276 6H11 LYS d   1     -19.025 -13.049 -10.581  0.00  0.00     0.033 H 
BRANCH 274 277
ATOM    277  CD  LYS d   1     -19.524 -11.104  -9.824  0.00  0.00    -0.043 C 
ATOM    278 7H11 LYS d   1     -19.068 -10.104  -9.856  0.00  0.00     0.035 H 
ATOM    279 8H11 LYS d   1     -19.823 -11.338  -8.792  0.00  0.00     0.035 H 
BRANCH 277 280
ATOM    280  CE  LYS d   1     -20.760 -11.112 -10.710  0.00  0.00     0.080 C 
ATOM    281 9H11 LYS d   1     -21.070 -12.154 -10.879  0.00  0.00     0.075 H 
ATOM    282 0H12 LYS d   1     -20.510 -10.643 -11.673  0.00  0.00     0.075 H 
BRANCH 280 283
ATOM    283  NZ  LYS d   1     -21.892 -10.368 -10.091  0.00  0.00    -0.079 N 
ATOM    284 1H12 LYS d   1     -22.689 -10.396 -10.707  0.00  0.00     0.274 HD
ATOM    285 2H12 LYS d   1     -21.620  -9.410  -9.937  0.00  0.00     0.274 HD
ATOM    286 3H12 LYS d   1     -22.133 -10.794  -9.210  0.00  0.00     0.274 HD
ENDBRANCH 280 283
ENDBRANCH 277 280
ENDBRANCH 274 277
ENDBRANCH 271 274
ENDBRANCH 197 271
ENDBRANCH 195 197
ENDBRANCH 190 193
ENDBRANCH 188 190
ENDBRANCH 183 186
ENDBRANCH 181 183
ENDBRANCH 177 179
BRANCH 177 287
ATOM    287  CB  THR d   1     -11.331 -18.648  -5.179  0.00  0.00     0.060 C 
ATOM    288 0H10 THR d   1     -11.472 -18.248  -4.164  0.00  0.00     0.086 H 
BRANCH 287 289
ATOM    289  OG1 THR d   1     -10.430 -19.759  -5.118  0.00  0.00    -0.393 OA
ATOM    290 1H10 THR d   1     -10.803 -20.438  -4.568  0.00  0.00     0.210 HD
ENDBRANCH 287 289
BRANCH 287 291
ATOM    291  CG2 THR d   1     -12.678 -19.109  -5.714  0.00  0.00    -0.050 C 
ATOM    292 2H10 THR d   1     -13.079 -19.900  -5.064  0.00  0.00     0.031 H 
ATOM    293 3H10 THR d   1     -12.553 -19.501  -6.734  0.00  0.00     0.031 H 
ATOM    294 4H10 THR d   1     -13.376 -18.259  -5.731  0.00  0.00     0.031 H 
ENDBRANCH 287 291
ENDBRANCH 177 287
ENDBRANCH 175 177
ENDBRANCH 171 173
BRANCH 171 295
ATOM    295  CB  SER d   1      -6.280 -16.353  -7.345  0.00  0.00     0.044 C 
ATOM    296  H95 SER d   1      -5.204 -16.305  -7.120  0.00  0.00     0.077 H 
ATOM    297  H96 SER d   1      -6.722 -15.352  -7.235  0.00  0.00     0.077 H 
BRANCH 295 298
ATOM    298  OG  SER d   1      -6.455 -16.792  -8.681  0.00  0.00    -0.398 OA
ATOM    299  H97 SER d   1      -7.383 -16.831  -8.881  0.00  0.00     0.209 HD
ENDBRANCH 295 298
ENDBRANCH 171 295
ENDBRANCH 169 171
ENDBRANCH   1 167
TORSDOF 85
