REMARK  15 active torsions:
REMARK  status: ('A' for Active; 'I' for Inactive)
REMARK    1  A    between atoms: C1_1  and  C2_2 
REMARK    2  A    between atoms: C2_2  and  C3_3 
REMARK    3  A    between atoms: C2_2  and  N6_6 
REMARK    4  A    between atoms: N6_6  and  C7_7 
REMARK    5  A    between atoms: C7_7  and  C8_8 
REMARK    6  A    between atoms: C7_7  and  C16_16 
REMARK    7  A    between atoms: C8_8  and  C9_9 
REMARK    8  A    between atoms: C9_9  and  C10_10 
REMARK       I    between atoms: C16_16  and  N18_18 
REMARK    9  A    between atoms: N18_18  and  C19_19 
REMARK   10  A    between atoms: C19_19  and  C20_20 
REMARK   11  A    between atoms: C19_19  and  C27_27 
REMARK   12  A    between atoms: C20_20  and  C21_21 
REMARK   13  A    between atoms: C21_21  and  C22_22 
REMARK   14  A    between atoms: C22_22  and  N23_23 
REMARK       I    between atoms: N23_23  and  C24_24 
REMARK       I    between atoms: C24_24  and  N25_25 
REMARK       I    between atoms: C27_27  and  N29_29 
REMARK   15  A    between atoms: N29_29  and  C30_30 
ROOT
ATOM      1  C16 INH d   1      -4.118   0.887  14.066  0.00  0.00     0.249 C 
ATOM      2  O17 INH d   1      -3.946   0.477  15.203  0.00  0.00    -0.271 OA
ATOM      3  N18 INH d   1      -5.073   1.765  13.789  0.00  0.00    -0.346 N 
ATOM      4  H17 INH d   1      -5.163   2.079  12.844  0.00  0.00     0.163 HD
ENDROOT
BRANCH   3   5
ATOM      5  C19 INH d   1      -6.034   2.319  14.817  0.00  0.00     0.089 C 
ATOM      6  H18 INH d   1      -5.519   2.398  15.786  0.00  0.00     0.087 H 
BRANCH   5   7
ATOM      7  C20 INH d   1      -6.495   3.732  14.374  0.00  0.00    -0.036 C 
ATOM      8  H19 INH d   1      -7.440   3.980  14.879  0.00  0.00     0.036 H 
ATOM      9  H20 INH d   1      -6.649   3.738  13.285  0.00  0.00     0.036 H 
BRANCH   7  10
ATOM     10  C21 INH d   1      -5.430   4.787  14.743  0.00  0.00    -0.048 C 
ATOM     11  H21 INH d   1      -4.511   4.591  14.171  0.00  0.00     0.035 H 
ATOM     12  H22 INH d   1      -5.213   4.722  15.819  0.00  0.00     0.035 H 
BRANCH  10  13
ATOM     13  C22 INH d   1      -5.942   6.201  14.412  0.00  0.00     0.009 C 
ATOM     14  H23 INH d   1      -6.843   6.410  15.007  0.00  0.00     0.064 H 
ATOM     15  H24 INH d   1      -6.188   6.258  13.341  0.00  0.00     0.064 H 
BRANCH  13  16
ATOM     16  N23 INH d   1      -4.882   7.224  14.735  0.00  0.00    -0.227 N 
ATOM     17  C24 INH d   1      -5.030   8.541  14.597  0.00  0.00     0.665 C 
ATOM     18  N25 INH d   1      -4.033   9.335  14.928  0.00  0.00    -0.235 N 
ATOM     19  N26 INH d   1      -6.159   9.073  14.149  0.00  0.00    -0.235 N 
ATOM     20  H26 INH d   1      -4.132  10.355  14.827  0.00  0.00     0.174 HD
ATOM     21  H27 INH d   1      -3.154   8.936  15.288  0.00  0.00     0.174 HD
ATOM     22  H28 INH d   1      -6.947   8.464  13.886  0.00  0.00     0.174 HD
ATOM     23  H29 INH d   1      -6.248  10.096  14.063  0.00  0.00     0.174 HD
ATOM     24  H25 INH d   1      -3.978   6.880  15.088  0.00  0.00     0.177 HD
ENDBRANCH  13  16
ENDBRANCH  10  13
ENDBRANCH   7  10
ENDBRANCH   5   7
BRANCH   5  25
ATOM     25  C27 INH d   1      -7.255   1.365  14.975  0.00  0.00     0.245 C 
ATOM     26  O28 INH d   1      -7.680   0.720  14.025  0.00  0.00    -0.271 OA
ATOM     27  N29 INH d   1      -7.829   1.287  16.179  0.00  0.00    -0.325 N 
ATOM     28  H30 INH d   1      -7.470   1.833  16.936  0.00  0.00     0.169 HD
BRANCH  27  29
ATOM     29  C30 INH d   1      -8.908   0.464  16.385  0.00  0.00     0.034 A 
ATOM     30  C31 INH d   1      -8.976  -0.317  17.549  0.00  0.00    -0.057 A 
ATOM     31  C32 INH d   1     -10.072  -1.162  17.767  0.00  0.00    -0.081 A 
ATOM     32  H31 INH d   1      -8.178  -0.266  18.281  0.00  0.00     0.086 H 
ATOM     33  C33 INH d   1     -11.102  -1.232  16.823  0.00  0.00    -0.083 A 
ATOM     34  H32 INH d   1     -10.122  -1.762  18.668  0.00  0.00     0.083 H 
ATOM     35  C34 INH d   1     -11.040  -0.458  15.661  0.00  0.00    -0.081 A 
ATOM     36  H33 INH d   1     -11.949  -1.887  16.993  0.00  0.00     0.083 H 
ATOM     37  C35 INH d   1      -9.946   0.388  15.437  0.00  0.00    -0.057 A 
ATOM     38  H34 INH d   1     -11.840  -0.512  14.932  0.00  0.00     0.083 H 
ATOM     39  H35 INH d   1      -9.899   0.985  14.533  0.00  0.00     0.086 H 
ENDBRANCH  27  29
ENDBRANCH   5  25
ENDBRANCH   3   5
BRANCH   1  40
ATOM     40  C7  INH d   1      -3.237   0.387  12.890  0.00  0.00     0.179 C 
ATOM     41  H7  INH d   1      -3.538   0.918  11.975  0.00  0.00     0.099 H 
BRANCH  40  42
ATOM     42  N6  INH d   1      -1.785   0.642  13.124  0.00  0.00    -0.049 N 
ATOM     43  H5  INH d   1      -1.531   0.285  14.032  0.00  0.00     0.279 HD
ATOM     44  H6  INH d   1      -1.250   0.167  12.415  0.00  0.00     0.279 HD
BRANCH  42  45
ATOM     45  C2  INH d   1      -1.479   2.088  13.071  0.00  0.00     0.182 C 
ATOM     46  H4  INH d   1      -0.389   2.208  12.992  0.00  0.00     0.101 H 
BRANCH  45  47
ATOM     47  C1  INH d   1      -1.968   2.748  14.377  0.00  0.00    -0.040 C 
ATOM     48  H1  INH d   1      -1.505   2.244  15.238  0.00  0.00     0.031 H 
ATOM     49  H2  INH d   1      -3.062   2.659  14.445  0.00  0.00     0.031 H 
ATOM     50  H3  INH d   1      -1.685   3.811  14.379  0.00  0.00     0.031 H 
ENDBRANCH  45  47
BRANCH  45  51
ATOM     51  C3  INH d   1      -2.139   2.807  11.860  0.00  0.00     0.204 C 
ATOM     52  O4  INH d   1      -1.520   2.842  10.803  0.00  0.00    -0.646 OA
ATOM     53  O5  INH d   1      -3.247   3.303  12.011  0.00  0.00    -0.646 OA
ENDBRANCH  45  51
ENDBRANCH  42  45
ENDBRANCH  40  42
BRANCH  40  54
ATOM     54  C8  INH d   1      -3.487  -1.136  12.698  0.00  0.00    -0.026 C 
ATOM     55  H8  INH d   1      -3.617  -1.605  13.684  0.00  0.00     0.037 H 
ATOM     56  H9  INH d   1      -2.617  -1.581  12.192  0.00  0.00     0.037 H 
BRANCH  54  57
ATOM     57  C9  INH d   1      -4.756  -1.396  11.844  0.00  0.00    -0.039 C 
ATOM     58  H10 INH d   1      -4.710  -0.781  10.933  0.00  0.00     0.040 H 
ATOM     59  H11 INH d   1      -5.647  -1.120  12.428  0.00  0.00     0.040 H 
BRANCH  57  60
ATOM     60  C10 INH d   1      -4.851  -2.866  11.451  0.00  0.00    -0.058 A 
ATOM     61  C11 INH d   1      -5.629  -3.249  10.344  0.00  0.00    -0.077 A 
ATOM     62  C12 INH d   1      -5.723  -4.598   9.988  0.00  0.00    -0.082 A 
ATOM     63  H12 INH d   1      -6.156  -2.498   9.766  0.00  0.00     0.084 H 
ATOM     64  C13 INH d   1      -5.046  -5.569  10.732  0.00  0.00    -0.083 A 
ATOM     65  H13 INH d   1      -6.322  -4.891   9.133  0.00  0.00     0.083 H 
ATOM     66  C14 INH d   1      -4.272  -5.193  11.834  0.00  0.00    -0.082 A 
ATOM     67  H14 INH d   1      -5.121  -6.614  10.454  0.00  0.00     0.083 H 
ATOM     68  C15 INH d   1      -4.172  -3.844  12.194  0.00  0.00    -0.077 A 
ATOM     69  H15 INH d   1      -3.749  -5.947  12.410  0.00  0.00     0.083 H 
ATOM     70  H16 INH d   1      -3.570  -3.554  13.047  0.00  0.00     0.084 H 
ENDBRANCH  57  60
ENDBRANCH  54  57
ENDBRANCH  40  54
ENDBRANCH   1  40
TORSDOF 15
