REMARK  6 active torsions:
REMARK  status: ('A' for Active; 'I' for Inactive)
REMARK    1  A    between atoms: C2_3  and  N2_2 
REMARK    2  A    between atoms: C6_11  and  C9_13 
REMARK    3  A    between atoms: C9_13  and  O9_14 
REMARK    4  A    between atoms: C9_13  and  C10_15 
REMARK    5  A    between atoms: C10_15  and  O10_16 
REMARK    6  A    between atoms: C10_15  and  C11_17 
ROOT
ATOM      1  N1  HBI d   1      72.531  59.759  32.945  0.00  0.00    -0.045 NA
ATOM      2  C2  HBI d   1      71.564  60.219  33.762  0.00  0.00     0.703 A 
ATOM      3  N3  HBI d   1      71.640  60.269  35.128  0.00  0.00    -0.152 N 
ATOM      4  C4  HBI d   1      72.797  59.812  35.779  0.00  0.00     0.292 A 
ATOM      5  O4  HBI d   1      72.909  59.838  37.032  0.00  0.00    -0.265 OA
ATOM      6  C4A HBI d   1      73.845  59.298  34.984  0.00  0.00     0.171 A 
ATOM      7  C8A HBI d   1      73.664  59.300  33.557  0.00  0.00     0.177 A 
ATOM      8  N8  HBI d   1      74.640  58.833  32.674  0.00  0.00    -0.367 N 
ATOM      9  C7  HBI d   1      75.662  57.931  33.253  0.00  0.00     0.033 C 
ATOM     10  C6  HBI d   1      75.984  58.146  34.727  0.00  0.00     0.062 C 
ATOM     11  N5  HBI d   1      75.036  58.780  35.514  0.00  0.00    -0.244 NA
ATOM     12  H3  HBI d   1      70.874  60.630  35.660  0.00  0.00     0.187 HD
ATOM     13  H4  HBI d   1      74.648  59.100  31.679  0.00  0.00     0.161 HD
ATOM     14  H5  HBI d   1      76.593  58.066  32.682  0.00  0.00     0.073 H 
ATOM     15  H6  HBI d   1      75.305  56.897  33.134  0.00  0.00     0.073 H 
ENDROOT
BRANCH  10  16
ATOM     16  C9  HBI d   1      77.162  57.475  35.406  0.00  0.00     0.099 C 
ATOM     17  H7  HBI d   1      76.812  56.509  35.799  0.00  0.00     0.096 H 
BRANCH  16  18
ATOM     18  O9  HBI d   1      78.181  57.239  34.418  0.00  0.00    -0.387 OA
ATOM     19  H8  HBI d   1      78.927  56.818  34.829  0.00  0.00     0.210 HD
ENDBRANCH  16  18
BRANCH  16  20
ATOM     20  C10 HBI d   1      77.803  58.258  36.587  0.00  0.00     0.062 C 
ATOM     21  H9  HBI d   1      78.842  58.505  36.323  0.00  0.00     0.086 H 
BRANCH  20  22
ATOM     22  O10 HBI d   1      77.082  59.468  36.866  0.00  0.00    -0.393 OA
ATOM     23  H10 HBI d   1      76.185  59.255  37.096  0.00  0.00     0.210 HD
ENDBRANCH  20  22
BRANCH  20  24
ATOM     24  C11 HBI d   1      77.788  57.418  37.863  0.00  0.00    -0.050 C 
ATOM     25  H11 HBI d   1      78.245  57.990  38.684  0.00  0.00     0.031 H 
ATOM     26  H12 HBI d   1      78.359  56.492  37.699  0.00  0.00     0.031 H 
ATOM     27  H13 HBI d   1      76.749  57.167  38.125  0.00  0.00     0.031 H 
ENDBRANCH  20  24
ENDBRANCH  16  20
ENDBRANCH  10  16
BRANCH   2  28
ATOM     28  N2  HBI d   1      70.432  60.666  33.264  0.00  0.00    -0.233 N 
ATOM     29  H1  HBI d   1      70.283  60.668  32.245  0.00  0.00     0.174 HD
ATOM     30  H2  HBI d   1      69.695  61.014  33.893  0.00  0.00     0.174 HD
ENDBRANCH   2  28
TORSDOF 6
