REMARK  11 active torsions:
REMARK  status: ('A' for Active; 'I' for Inactive)
REMARK    1  A    between atoms: C2_2  and  CM2_3 
REMARK    2  A    between atoms: C9_13  and  C6_9 
REMARK    3  A    between atoms: N10_14  and  C9_13 
REMARK    4  A    between atoms: C14_17  and  N10_14 
REMARK    5  A    between atoms: N10_14  and  CP1_32 
REMARK    6  A    between atoms: C11_15  and  C_20 
REMARK       I    between atoms: C_20  and  N_22 
REMARK    7  A    between atoms: N_22  and  CA_23 
REMARK    8  A    between atoms: CA_23  and  CB_24 
REMARK    9  A    between atoms: CA_23  and  CT_29 
REMARK   10  A    between atoms: CB_24  and  CG_25 
REMARK   11  A    between atoms: CG_25  and  CD_26 
ROOT
ATOM      1  N10 D16 d   1      33.628  33.617   0.902  0.00  0.00    -0.375 N 
ENDROOT
BRANCH   1   2
ATOM      2  C9  D16 d   1      34.159  32.257   0.335  0.00  0.00     0.019 C 
ATOM      3  H8  D16 d   1      33.376  31.503   0.505  0.00  0.00     0.071 H 
ATOM      4  H9  D16 d   1      34.312  32.390  -0.746  0.00  0.00     0.071 H 
BRANCH   2   5
ATOM      5  C6  D16 d   1      35.513  31.678   0.937  0.00  0.00    -0.039 A 
ATOM      6  C5  D16 d   1      35.894  31.954   2.297  0.00  0.00    -0.058 A 
ATOM      7  C4A D16 d   1      37.077  31.482   2.885  0.00  0.00     0.061 A 
ATOM      8  H5  D16 d   1      35.229  32.561   2.901  0.00  0.00     0.086 H 
ATOM      9  C4  D16 d   1      37.444  31.800   4.328  0.00  0.00     0.259 A 
ATOM     10  C8A D16 d   1      37.940  30.679   2.067  0.00  0.00     0.074 A 
ATOM     11  N3  D16 d   1      38.675  31.259   4.793  0.00  0.00    -0.311 N 
ATOM     12  O4  D16 d   1      36.724  32.478   5.032  0.00  0.00    -0.267 OA
ATOM     13  C2  D16 d   1      39.529  30.463   3.975  0.00  0.00     0.103 A 
ATOM     14  H4  D16 d   1      38.953  31.445   5.735  0.00  0.00     0.170 HD
ATOM     15  N1  D16 d   1      39.134  30.189   2.613  0.00  0.00    -0.235 NA
ATOM     16  C8  D16 d   1      37.637  30.359   0.720  0.00  0.00    -0.053 A 
ATOM     17  C7  D16 d   1      36.419  30.861   0.156  0.00  0.00    -0.073 A 
ATOM     18  H7  D16 d   1      38.311  29.749   0.130  0.00  0.00     0.087 H 
ATOM     19  H6  D16 d   1      36.171  30.625  -0.873  0.00  0.00     0.084 H 
BRANCH  13  20
ATOM     20  CM2 D16 d   1      40.820  29.926   4.536  0.00  0.00    -0.021 C 
ATOM     21  H1  D16 d   1      41.340  29.340   3.764  0.00  0.00     0.037 H 
ATOM     22  H2  D16 d   1      40.604  29.282   5.402  0.00  0.00     0.037 H 
ATOM     23  H3  D16 d   1      41.459  30.764   4.852  0.00  0.00     0.037 H 
ENDBRANCH  13  20
ENDBRANCH   2   5
ENDBRANCH   1   2
BRANCH   1  24
ATOM     24  C14 D16 d   1      34.388  34.843   0.749  0.00  0.00     0.072 A 
ATOM     25  S13 D16 d   1      35.771  35.063  -0.266  0.00  0.00    -0.067 SA
ATOM     26  C11 D16 d   1      35.894  36.748   0.095  0.00  0.00     0.074 A 
ATOM     27  C16 D16 d   1      34.927  37.118   0.962  0.00  0.00    -0.058 A 
ATOM     28  C15 D16 d   1      34.104  36.042   1.338  0.00  0.00    -0.049 A 
ATOM     29  H11 D16 d   1      34.799  38.135   1.329  0.00  0.00     0.086 H 
ATOM     30  H10 D16 d   1      33.291  36.157   2.054  0.00  0.00     0.087 H 
BRANCH  26  31
ATOM     31  C   D16 d   1      37.025  37.527  -0.597  0.00  0.00     0.259 C 
ATOM     32  O   D16 d   1      37.703  36.924  -1.448  0.00  0.00    -0.267 OA
ATOM     33  N   D16 d   1      37.147  38.879  -0.355  0.00  0.00    -0.342 N 
ATOM     34  H12 D16 d   1      36.551  39.344   0.300  0.00  0.00     0.163 HD
BRANCH  33  35
ATOM     35  CA  D16 d   1      38.193  39.616  -1.101  0.00  0.00     0.097 C 
ATOM     36  H13 D16 d   1      39.120  39.041  -0.960  0.00  0.00     0.089 H 
BRANCH  35  37
ATOM     37  CB  D16 d   1      37.985  39.630  -2.691  0.00  0.00    -0.028 C 
ATOM     38  H14 D16 d   1      38.193  40.659  -3.018  0.00  0.00     0.037 H 
ATOM     39  H15 D16 d   1      36.924  39.398  -2.863  0.00  0.00     0.037 H 
BRANCH  37  40
ATOM     40  CG  D16 d   1      38.818  38.671  -3.673  0.00  0.00     0.018 C 
ATOM     41  H16 D16 d   1      38.458  37.642  -3.530  0.00  0.00     0.049 H 
ATOM     42  H17 D16 d   1      39.879  38.731  -3.388  0.00  0.00     0.049 H 
BRANCH  40  43
ATOM     43  CD  D16 d   1      38.703  39.022  -5.219  0.00  0.00     0.172 C 
ATOM     44  OE1 D16 d   1      38.972  38.097  -6.010  0.00  0.00    -0.648 OA
ATOM     45  OE2 D16 d   1      38.360  40.184  -5.503  0.00  0.00    -0.648 OA
ENDBRANCH  40  43
ENDBRANCH  37  40
ENDBRANCH  35  37
BRANCH  35  46
ATOM     46  CT  D16 d   1      38.456  41.000  -0.376  0.00  0.00     0.196 C 
ATOM     47  O1  D16 d   1      38.077  41.079   0.813  0.00  0.00    -0.646 OA
ATOM     48  O2  D16 d   1      39.014  41.876  -1.064  0.00  0.00    -0.646 OA
ENDBRANCH  35  46
ENDBRANCH  33  35
ENDBRANCH  26  31
ENDBRANCH   1  24
BRANCH   1  49
ATOM     49  CP1 D16 d   1      32.207  33.653   1.285  0.00  0.00    -0.018 C 
ATOM     50  H18 D16 d   1      31.955  34.654   1.666  0.00  0.00     0.056 H 
ATOM     51  H19 D16 d   1      32.019  32.904   2.069  0.00  0.00     0.056 H 
ATOM     52  H20 D16 d   1      31.585  33.428   0.406  0.00  0.00     0.056 H 
ENDBRANCH   1  49
TORSDOF 11
