REMARK  18 active torsions:
REMARK  status: ('A' for Active; 'I' for Inactive)
REMARK    1  A    between atoms: CZ8_1  and  CZ5_4 
REMARK    2  A    between atoms: CZ5_4  and  CZ7_2 
REMARK    3  A    between atoms: CZ5_4  and  CZ6_3 
REMARK    4  A    between atoms: CZ5_4  and  OZ5_5 
REMARK    5  A    between atoms: OZ5_5  and  CZ4_6 
REMARK       I    between atoms: CZ4_6  and  NZ3_8 
REMARK    6  A    between atoms: NZ3_8  and  CZ3_9 
REMARK    7  A    between atoms: CZ3_9  and  CZ2_10 
REMARK    8  A    between atoms: CZ2_10  and  CZ1_11 
REMARK       I    between atoms: CZ1_11  and  NZ1_13 
REMARK    9  A    between atoms: NZ1_13  and  CB5_14 
REMARK   10  A    between atoms: CB1_18  and  CG1_20 
REMARK   11  A    between atoms: CG1_20  and  CG2_21 
REMARK   12  A    between atoms: CG1_20  and  CA_24 
REMARK   13  A    between atoms: CA4_28  and  CD_32 
REMARK   14  A    between atoms: CA6_30  and  OA6_31 
REMARK   15  A    between atoms: CD_32  and  CD1_33 
REMARK   16  A    between atoms: CD_32  and  CE_35 
REMARK   17  A    between atoms: CD1_33  and  CD2_34 
REMARK   18  A    between atoms: CE_35  and  CE1_36 
ROOT
ATOM      1  CG1 U02 d   1      11.319  24.656   4.714  0.00  0.00     0.009 C 
ATOM      2  H20 U02 d   1      11.769  25.421   4.064  0.00  0.00     0.056 H 
ENDROOT
BRANCH   1   3
ATOM      3  CB1 U02 d   1      10.662  25.408   5.876  0.00  0.00    -0.047 A 
ATOM      4  CB2 U02 d   1      11.494  25.699   6.953  0.00  0.00    -0.076 A 
ATOM      5  CB3 U02 d   1      11.027  26.477   8.004  0.00  0.00    -0.080 A 
ATOM      6  H18 U02 d   1      12.508  25.318   6.971  0.00  0.00     0.084 H 
ATOM      7  CB4 U02 d   1       9.716  26.940   7.991  0.00  0.00    -0.057 A 
ATOM      8  H17 U02 d   1      11.682  26.723   8.832  0.00  0.00     0.083 H 
ATOM      9  CB5 U02 d   1       8.864  26.639   6.934  0.00  0.00     0.035 A 
ATOM     10  H16 U02 d   1       9.353  27.543   8.815  0.00  0.00     0.086 H 
ATOM     11  CB6 U02 d   1       9.327  25.844   5.874  0.00  0.00    -0.050 A 
ATOM     12  H19 U02 d   1       8.662  25.570   5.063  0.00  0.00     0.087 H 
BRANCH   9  13
ATOM     13  NZ1 U02 d   1       7.538  27.125   7.015  0.00  0.00    -0.327 N 
ATOM     14  CZ1 U02 d   1       7.395  28.415   6.765  0.00  0.00     0.223 C 
ATOM     15  OZ1 U02 d   1       8.363  29.126   6.495  0.00  0.00    -0.273 OA
ATOM     16  H15 U02 d   1       6.764  26.535   7.245  0.00  0.00     0.169 HD
BRANCH  14  17
ATOM     17  CZ2 U02 d   1       5.978  28.961   6.790  0.00  0.00     0.024 C 
ATOM     18  H13 U02 d   1       5.582  28.845   7.810  0.00  0.00     0.049 H 
ATOM     19  H14 U02 d   1       6.016  30.029   6.530  0.00  0.00     0.049 H 
BRANCH  17  20
ATOM     20  CZ3 U02 d   1       5.014  28.263   5.817  0.00  0.00     0.005 C 
ATOM     21  H11 U02 d   1       4.675  27.333   6.298  0.00  0.00     0.064 H 
ATOM     22  H12 U02 d   1       4.154  28.933   5.667  0.00  0.00     0.064 H 
BRANCH  20  23
ATOM     23  NZ3 U02 d   1       5.536  27.908   4.486  0.00  0.00    -0.336 N 
ATOM     24  CZ4 U02 d   1       5.116  26.818   3.862  0.00  0.00     0.361 C 
ATOM     25  OZ4 U02 d   1       4.161  26.128   4.249  0.00  0.00    -0.238 OA
ATOM     26  H10 U02 d   1       6.215  28.497   4.048  0.00  0.00     0.164 HD
BRANCH  24  27
ATOM     27  OZ5 U02 d   1       5.787  26.481   2.690  0.00  0.00    -0.294 OA
BRANCH  27  28
ATOM     28  CZ5 U02 d   1       5.382  25.289   1.986  0.00  0.00     0.061 C 
BRANCH  28  29
ATOM     29  CZ8 U02 d   1       4.014  25.480   1.328  0.00  0.00    -0.048 C 
ATOM     30  H1  U02 d   1       3.730  24.558   0.799  0.00  0.00     0.031 H 
ATOM     31  H2  U02 d   1       4.065  26.313   0.611  0.00  0.00     0.031 H 
ATOM     32  H3  U02 d   1       3.264  25.706   2.100  0.00  0.00     0.031 H 
ENDBRANCH  28  29
BRANCH  28  33
ATOM     33  CZ7 U02 d   1       5.323  24.029   2.861  0.00  0.00    -0.048 C 
ATOM     34  H4  U02 d   1       6.298  23.872   3.345  0.00  0.00     0.031 H 
ATOM     35  H5  U02 d   1       5.081  23.158   2.234  0.00  0.00     0.031 H 
ATOM     36  H6  U02 d   1       4.548  24.153   3.631  0.00  0.00     0.031 H 
ENDBRANCH  28  33
BRANCH  28  37
ATOM     37  CZ6 U02 d   1       6.461  25.101   0.909  0.00  0.00    -0.048 C 
ATOM     38  H7  U02 d   1       6.509  26.000   0.278  0.00  0.00     0.031 H 
ATOM     39  H8  U02 d   1       6.210  24.229   0.287  0.00  0.00     0.031 H 
ATOM     40  H9  U02 d   1       7.436  24.939   1.391  0.00  0.00     0.031 H 
ENDBRANCH  28  37
ENDBRANCH  27  28
ENDBRANCH  24  27
ENDBRANCH  20  23
ENDBRANCH  17  20
ENDBRANCH  14  17
ENDBRANCH   9  13
ENDBRANCH   1   3
BRANCH   1  41
ATOM     41  CG2 U02 d   1      10.274  23.969   3.886  0.00  0.00    -0.043 A 
ATOM     42  CG3 U02 d   1      10.368  23.731   2.398  0.00  0.00    -0.060 A 
ATOM     43  CG4 U02 d   1       9.272  24.616   2.959  0.00  0.00    -0.060 A 
ATOM     44  H22 U02 d   1      10.119  22.744   1.982  0.00  0.00     0.033 H 
ATOM     45  H23 U02 d   1      11.192  24.175   1.821  0.00  0.00     0.033 H 
ATOM     46  H24 U02 d   1       9.301  25.702   2.789  0.00  0.00     0.033 H 
ATOM     47  H25 U02 d   1       8.227  24.271   2.950  0.00  0.00     0.033 H 
ATOM     48  H21 U02 d   1       9.904  23.138   4.505  0.00  0.00     0.041 H 
ENDBRANCH   1  41
BRANCH   1  49
ATOM     49  CA  U02 d   1      12.491  23.747   5.155  0.00  0.00     0.059 A 
ATOM     50  CA2 U02 d   1      12.129  22.583   5.863  0.00  0.00     0.297 A 
ATOM     51  OA2 U02 d   1      11.003  22.154   5.905  0.00  0.00    -0.259 OA
ATOM     52  OA3 U02 d   1      13.074  21.740   6.230  0.00  0.00    -0.279 OA
ATOM     53  CA4 U02 d   1      14.378  21.950   5.952  0.00  0.00     0.064 A 
ATOM     54  CA5 U02 d   1      14.818  23.109   5.304  0.00  0.00    -0.021 A 
ATOM     55  CA6 U02 d   1      13.854  24.026   4.881  0.00  0.00     0.081 A 
ATOM     56  H26 U02 d   1      15.878  23.290   5.135  0.00  0.00     0.091 H 
BRANCH  53  57
ATOM     57  CD  U02 d   1      15.344  20.850   6.081  0.00  0.00    -0.004 C 
ATOM     58  H28 U02 d   1      14.859  20.004   6.590  0.00  0.00     0.051 H 
BRANCH  57  59
ATOM     59  CD1 U02 d   1      16.530  21.265   6.966  0.00  0.00    -0.059 C 
ATOM     60  H29 U02 d   1      17.221  21.882   6.372  0.00  0.00     0.033 H 
ATOM     61  H30 U02 d   1      17.052  20.360   7.312  0.00  0.00     0.033 H 
BRANCH  59  62
ATOM     62  CD2 U02 d   1      16.062  22.076   8.195  0.00  0.00    -0.076 C 
ATOM     63  H31 U02 d   1      16.934  22.355   8.804  0.00  0.00     0.027 H 
ATOM     64  H32 U02 d   1      15.375  21.464   8.798  0.00  0.00     0.027 H 
ATOM     65  H33 U02 d   1      15.544  22.986   7.858  0.00  0.00     0.027 H 
ENDBRANCH  59  62
ENDBRANCH  57  59
BRANCH  57  66
ATOM     66  CE  U02 d   1      15.631  20.416   4.630  0.00  0.00    -0.032 C 
ATOM     67  H34 U02 d   1      15.793  21.330   4.039  0.00  0.00     0.041 H 
ATOM     68  H35 U02 d   1      14.736  19.894   4.260  0.00  0.00     0.041 H 
BRANCH  66  69
ATOM     69  CE1 U02 d   1      16.818  19.506   4.390  0.00  0.00    -0.058 A 
ATOM     70  CE2 U02 d   1      17.105  19.109   3.091  0.00  0.00    -0.077 A 
ATOM     71  CE3 U02 d   1      18.202  18.294   2.840  0.00  0.00    -0.082 A 
ATOM     72  H36 U02 d   1      16.473  19.435   2.273  0.00  0.00     0.084 H 
ATOM     73  CE4 U02 d   1      19.009  17.865   3.886  0.00  0.00    -0.083 A 
ATOM     74  H37 U02 d   1      18.429  17.992   1.824  0.00  0.00     0.083 H 
ATOM     75  CE5 U02 d   1      18.707  18.257   5.184  0.00  0.00    -0.082 A 
ATOM     76  H38 U02 d   1      19.866  17.230   3.691  0.00  0.00     0.083 H 
ATOM     77  CE6 U02 d   1      17.611  19.073   5.438  0.00  0.00    -0.077 A 
ATOM     78  H39 U02 d   1      19.331  17.924   6.005  0.00  0.00     0.083 H 
ATOM     79  H40 U02 d   1      17.378  19.369   6.454  0.00  0.00     0.084 H 
ENDBRANCH  66  69
ENDBRANCH  57  66
ENDBRANCH  53  57
BRANCH  55  80
ATOM     80  OA6 U02 d   1      14.371  25.219   4.469  0.00  0.00    -0.360 OA
ATOM     81  H27 U02 d   1      14.960  25.072   3.739  0.00  0.00     0.217 HD
ENDBRANCH  55  80
ENDBRANCH   1  49
TORSDOF 18
