REMARK  5 active torsions:
REMARK  status: ('A' for Active; 'I' for Inactive)
REMARK    1  A    between atoms: N5_6  and  C11_7 
REMARK    2  A    between atoms: C8_12  and  N4_13 
REMARK    3  A    between atoms: N4_13  and  C5_14 
REMARK    4  A    between atoms: C4_19  and  C3_20 
REMARK    5  A    between atoms: C1_22  and  C2_23 
ROOT
ATOM      1  C11 MTZ d   1      -1.482  48.230   2.699  0.00  0.00     0.030 A 
ATOM      2  C12 MTZ d   1      -1.765  49.510   3.162  0.00  0.00    -0.055 A 
ATOM      3  C13 MTZ d   1      -0.733  50.366   3.520  0.00  0.00    -0.054 A 
ATOM      4  C10 MTZ d   1      -0.158  47.798   2.628  0.00  0.00    -0.055 A 
ATOM      5  C9  MTZ d   1       0.874  48.654   3.003  0.00  0.00    -0.054 A 
ATOM      6  C8  MTZ d   1       0.590  49.947   3.440  0.00  0.00     0.049 A 
ATOM      7  H9  MTZ d   1      -2.794  49.840   3.244  0.00  0.00     0.087 H 
ATOM      8  H10 MTZ d   1      -0.960  51.368   3.864  0.00  0.00     0.087 H 
ATOM      9  H11 MTZ d   1       0.068  46.796   2.281  0.00  0.00     0.087 H 
ATOM     10  H12 MTZ d   1       1.902  48.314   2.955  0.00  0.00     0.087 H 
ENDROOT
BRANCH   6  11
ATOM     11  N4  MTZ d   1       1.547  50.796   3.829  0.00  0.00    -0.188 N 
ATOM     12  H13 MTZ d   1       1.292  51.545   4.489  0.00  0.00     0.184 HD
BRANCH  11  13
ATOM     13  C5  MTZ d   1       2.808  50.731   3.415  0.00  0.00     0.727 A 
ATOM     14  N2  MTZ d   1       3.312  49.571   2.960  0.00  0.00    -0.061 NA
ATOM     15  C4  MTZ d   1       4.590  49.481   2.545  0.00  0.00     0.096 A 
ATOM     16  C7  MTZ d   1       5.388  50.624   2.563  0.00  0.00    -0.036 A 
ATOM     17  C6  MTZ d   1       4.834  51.807   3.041  0.00  0.00     0.023 A 
ATOM     18  H15 MTZ d   1       6.414  50.592   2.214  0.00  0.00     0.089 H 
ATOM     19  N3  MTZ d   1       3.576  51.831   3.462  0.00  0.00    -0.075 NA
ATOM     20  H14 MTZ d   1       5.431  52.711   3.070  0.00  0.00     0.115 H 
BRANCH  15  21
ATOM     21  C3  MTZ d   1       5.067  48.281   2.016  0.00  0.00     0.062 A 
ATOM     22  S   MTZ d   1       4.164  46.851   1.758  0.00  0.00    -0.048 SA
ATOM     23  C   MTZ d   1       5.466  46.026   1.019  0.00  0.00     0.165 A 
ATOM     24  N1  MTZ d   1       6.533  46.839   0.960  0.00  0.00    -0.228 NA
ATOM     25  N   MTZ d   1       5.424  44.765   0.578  0.00  0.00    -0.378 N 
ATOM     26  C1  MTZ d   1       6.330  48.068   1.468  0.00  0.00     0.053 A 
ATOM     27  H19 MTZ d   1       6.257  44.343   0.143  0.00  0.00     0.158 HD
ATOM     28  H20 MTZ d   1       4.558  44.215   0.673  0.00  0.00     0.158 HD
BRANCH  26  29
ATOM     29  C2  MTZ d   1       7.411  49.146   1.483  0.00  0.00    -0.034 C 
ATOM     30  H16 MTZ d   1       8.320  48.760   0.999  0.00  0.00     0.035 H 
ATOM     31  H17 MTZ d   1       7.638  49.423   2.523  0.00  0.00     0.035 H 
ATOM     32  H18 MTZ d   1       7.053  50.032   0.938  0.00  0.00     0.035 H 
ENDBRANCH  26  29
ENDBRANCH  15  21
ENDBRANCH  11  13
ENDBRANCH   6  11
BRANCH   1  33
ATOM     33  N5  MTZ d   1      -2.549  47.374   2.364  0.00  0.00    -0.377 N 
ATOM     34  C14 MTZ d   1      -3.950  47.867   2.388  0.00  0.00     0.015 C 
ATOM     35  C15 MTZ d   1      -4.816  46.896   3.205  0.00  0.00     0.034 C 
ATOM     36  H1  MTZ d   1      -3.981  48.865   2.850  0.00  0.00     0.067 H 
ATOM     37  H2  MTZ d   1      -4.336  47.927   1.360  0.00  0.00     0.067 H 
ATOM     38  O   MTZ d   1      -4.638  45.508   2.807  0.00  0.00    -0.388 OA
ATOM     39  H3  MTZ d   1      -5.873  47.168   3.068  0.00  0.00     0.076 H 
ATOM     40  H4  MTZ d   1      -4.547  46.994   4.267  0.00  0.00     0.076 H 
ATOM     41  C16 MTZ d   1      -3.270  45.044   2.896  0.00  0.00     0.034 C 
ATOM     42  C17 MTZ d   1      -2.309  45.931   2.090  0.00  0.00     0.015 C 
ATOM     43  H5  MTZ d   1      -3.217  44.017   2.506  0.00  0.00     0.076 H 
ATOM     44  H6  MTZ d   1      -2.960  45.052   3.951  0.00  0.00     0.076 H 
ATOM     45  H7  MTZ d   1      -2.459  45.740   1.017  0.00  0.00     0.067 H 
ATOM     46  H8  MTZ d   1      -1.274  45.681   2.366  0.00  0.00     0.067 H 
ENDBRANCH   1  33
TORSDOF 5
