REMARK  13 active torsions:
REMARK  status: ('A' for Active; 'I' for Inactive)
REMARK    1  A    between atoms: S11_2  and  N_4 
REMARK    2  A    between atoms: S11_2  and  C12_14 
REMARK    3  A    between atoms: N_4  and  CA_5 
REMARK    4  A    between atoms: CA_5  and  C_6 
REMARK    5  A    between atoms: CA_5  and  CB_9 
REMARK    6  A    between atoms: CB_9  and  CG_10 
REMARK    7  A    between atoms: CG_10  and  CD_11 
REMARK    8  A    between atoms: C20_19  and  O22_24 
REMARK    9  A    between atoms: O22_24  and  C23_25 
REMARK   10  A    between atoms: C23_25  and  C24_26 
REMARK   11  A    between atoms: C24_26  and  C25_27 
REMARK   12  A    between atoms: C25_27  and  C26_28 
REMARK   13  A    between atoms: C26_28  and  C30_29 
ROOT
ATOM      1  C12 LK3 d   1     -21.142   3.435  18.958  0.00  0.00     0.080 A 
ATOM      2  C17 LK3 d   1     -21.022   3.225  20.328  0.00  0.00    -0.059 A 
ATOM      3  C16 LK3 d   1     -20.179   2.263  20.874  0.00  0.00    -0.071 A 
ATOM      4  C15 LK3 d   1     -19.421   1.474  20.017  0.00  0.00    -0.023 A 
ATOM      5  C21 LK3 d   1     -18.581   0.486  20.543  0.00  0.00    -0.040 A 
ATOM      6  C20 LK3 d   1     -17.816  -0.332  19.690  0.00  0.00     0.069 A 
ATOM      7  C19 LK3 d   1     -17.873  -0.146  18.302  0.00  0.00    -0.050 A 
ATOM      8  C18 LK3 d   1     -18.713   0.862  17.780  0.00  0.00    -0.070 A 
ATOM      9  C14 LK3 d   1     -19.498   1.671  18.630  0.00  0.00    -0.024 A 
ATOM     10  C13 LK3 d   1     -20.356   2.643  18.101  0.00  0.00    -0.050 A 
ATOM     11  H7  LK3 d   1     -21.612   3.838  21.000  0.00  0.00     0.085 H 
ATOM     12  H8  LK3 d   1     -20.114   2.131  21.948  0.00  0.00     0.084 H 
ATOM     13  H9  LK3 d   1     -18.519   0.349  21.617  0.00  0.00     0.089 H 
ATOM     14  H10 LK3 d   1     -17.281  -0.767  17.639  0.00  0.00     0.087 H 
ATOM     15  H11 LK3 d   1     -18.756   1.017  16.708  0.00  0.00     0.085 H 
ATOM     16  H12 LK3 d   1     -20.415   2.786  17.028  0.00  0.00     0.087 H 
ENDROOT
BRANCH   1  17
ATOM     17  S11 LK3 d   1     -22.223   4.644  18.396  0.00  0.00     0.259 S 
ATOM     18  O28 LK3 d   1     -22.282   5.735  19.358  0.00  0.00    -0.201 OA
ATOM     19  O27 LK3 d   1     -21.822   5.195  17.065  0.00  0.00    -0.201 OA
BRANCH  17  20
ATOM     20  N   LK3 d   1     -23.692   3.982  18.234  0.00  0.00    -0.300 N 
ATOM     21  H1  LK3 d   1     -24.036   3.664  17.351  0.00  0.00     0.173 HD
BRANCH  20  22
ATOM     22  CA  LK3 d   1     -24.492   3.877  19.470  0.00  0.00     0.104 C 
ATOM     23  H2  LK3 d   1     -23.843   3.513  20.280  0.00  0.00     0.090 H 
BRANCH  22  24
ATOM     24  C   LK3 d   1     -25.009   5.266  19.874  0.00  0.00     0.197 C 
ATOM     25  OXT LK3 d   1     -25.313   6.040  18.943  0.00  0.00    -0.646 OA
ATOM     26  O   LK3 d   1     -25.096   5.567  21.100  0.00  0.00    -0.646 OA
ENDBRANCH  22  24
BRANCH  22  27
ATOM     27  CB  LK3 d   1     -25.611   2.838  19.256  0.00  0.00    -0.027 C 
ATOM     28  H3  LK3 d   1     -25.157   1.866  19.014  0.00  0.00     0.037 H 
ATOM     29  H4  LK3 d   1     -26.249   3.163  18.421  0.00  0.00     0.037 H 
BRANCH  27  30
ATOM     30  CG  LK3 d   1     -26.469   2.690  20.512  0.00  0.00     0.018 C 
ATOM     31  H5  LK3 d   1     -27.034   3.621  20.667  0.00  0.00     0.049 H 
ATOM     32  H6  LK3 d   1     -25.808   2.514  21.374  0.00  0.00     0.049 H 
BRANCH  30  33
ATOM     33  CD  LK3 d   1     -27.447   1.539  20.405  0.00  0.00     0.172 C 
ATOM     34  OE2 LK3 d   1     -27.407   0.843  19.368  0.00  0.00    -0.648 OA
ATOM     35  OE1 LK3 d   1     -28.241   1.371  21.361  0.00  0.00    -0.648 OA
ENDBRANCH  30  33
ENDBRANCH  27  30
ENDBRANCH  22  27
ENDBRANCH  20  22
ENDBRANCH  17  20
ENDBRANCH   1  17
BRANCH   6  36
ATOM     36  O22 LK3 d   1     -17.054  -1.352  20.210  0.00  0.00    -0.351 OA
BRANCH  36  37
ATOM     37  C23 LK3 d   1     -16.644  -1.191  21.573  0.00  0.00     0.026 C 
ATOM     38  H13 LK3 d   1     -16.553  -2.172  22.063  0.00  0.00     0.075 H 
ATOM     39  H14 LK3 d   1     -17.372  -0.574  22.120  0.00  0.00     0.075 H 
BRANCH  37  40
ATOM     40  C24 LK3 d   1     -15.280  -0.491  21.528  0.00  0.00    -0.045 C 
ATOM     41  H15 LK3 d   1     -14.955  -0.254  22.552  0.00  0.00     0.036 H 
ATOM     42  H16 LK3 d   1     -15.363   0.438  20.945  0.00  0.00     0.036 H 
BRANCH  40  43
ATOM     43  C25 LK3 d   1     -14.255  -1.417  20.869  0.00  0.00    -0.064 C 
ATOM     44  H17 LK3 d   1     -14.546  -1.608  19.826  0.00  0.00     0.033 H 
ATOM     45  H18 LK3 d   1     -14.210  -2.369  21.418  0.00  0.00     0.033 H 
BRANCH  43  46
ATOM     46  C26 LK3 d   1     -12.890  -0.739  20.905  0.00  0.00    -0.068 C 
ATOM     47  H19 LK3 d   1     -12.602  -0.556  21.951  0.00  0.00     0.032 H 
ATOM     48  H20 LK3 d   1     -12.945   0.219  20.367  0.00  0.00     0.032 H 
BRANCH  46  49
ATOM     49  C30 LK3 d   1     -11.854  -1.624  20.247  0.00  0.00    -0.077 C 
ATOM     50  H21 LK3 d   1     -10.874  -1.126  20.278  0.00  0.00     0.027 H 
ATOM     51  H22 LK3 d   1     -12.139  -1.807  19.201  0.00  0.00     0.027 H 
ATOM     52  H23 LK3 d   1     -11.796  -2.582  20.784  0.00  0.00     0.027 H 
ENDBRANCH  46  49
ENDBRANCH  43  46
ENDBRANCH  40  43
ENDBRANCH  37  40
ENDBRANCH  36  37
ENDBRANCH   6  36
TORSDOF 13
