REMARK  10 active torsions:
REMARK  status: ('A' for Active; 'I' for Inactive)
REMARK    1  A    between atoms: C24_8  and  C23_9 
REMARK    2  A    between atoms: C23_9  and  O22_10 
REMARK    3  A    between atoms: O22_10  and  C20_11 
REMARK    4  A    between atoms: C12_20  and  S11_21 
REMARK    5  A    between atoms: S11_21  and  N_24 
REMARK    6  A    between atoms: N_24  and  CA_25 
REMARK    7  A    between atoms: CA_25  and  C_26 
REMARK    8  A    between atoms: CA_25  and  CB_29 
REMARK    9  A    between atoms: CB_29  and  CG_30 
REMARK   10  A    between atoms: CG_30  and  CD_31 
ROOT
ATOM      1  N31 LK4 d   1     -10.697   1.687 -22.591  0.00  0.00    -0.191 NA
ATOM      2  C30 LK4 d   1     -11.828   1.456 -22.444  0.00  0.00     0.099 C 
ATOM      3  C27 LK4 d   1     -13.096   1.415 -22.283  0.00  0.00     0.044 A 
ATOM      4  C28 LK4 d   1     -13.504   1.150 -20.991  0.00  0.00    -0.062 A 
ATOM      5  C29 LK4 d   1     -14.843   1.112 -20.692  0.00  0.00    -0.073 A 
ATOM      6  C26 LK4 d   1     -14.037   1.633 -23.307  0.00  0.00    -0.062 A 
ATOM      7  C25 LK4 d   1     -15.404   1.578 -23.013  0.00  0.00    -0.073 A 
ATOM      8  C24 LK4 d   1     -15.769   1.299 -21.693  0.00  0.00    -0.034 A 
ATOM      9  H1  LK4 d   1     -12.769   0.972 -20.215  0.00  0.00     0.085 H 
ATOM     10  H2  LK4 d   1     -15.169   0.936 -19.673  0.00  0.00     0.084 H 
ATOM     11  H3  LK4 d   1     -13.705   1.842 -24.317  0.00  0.00     0.085 H 
ATOM     12  H4  LK4 d   1     -16.151   1.745 -23.780  0.00  0.00     0.084 H 
ENDROOT
BRANCH   8  13
ATOM     13  C23 LK4 d   1     -17.166   1.296 -21.172  0.00  0.00     0.050 C 
ATOM     14  H5  LK4 d   1     -17.553   2.321 -21.267  0.00  0.00     0.082 H 
ATOM     15  H6  LK4 d   1     -17.119   1.019 -20.108  0.00  0.00     0.082 H 
BRANCH  13  16
ATOM     16  O22 LK4 d   1     -18.082   0.451 -21.778  0.00  0.00    -0.347 OA
BRANCH  16  17
ATOM     17  C20 LK4 d   1     -18.798  -0.290 -20.875  0.00  0.00     0.070 A 
ATOM     18  C19 LK4 d   1     -18.792  -0.124 -19.466  0.00  0.00    -0.050 A 
ATOM     19  C18 LK4 d   1     -19.573  -0.996 -18.666  0.00  0.00    -0.070 A 
ATOM     20  H7  LK4 d   1     -18.198   0.659 -19.007  0.00  0.00     0.087 H 
ATOM     21  C16 LK4 d   1     -20.328  -1.998 -19.302  0.00  0.00    -0.024 A 
ATOM     22  H8  LK4 d   1     -19.588  -0.893 -17.587  0.00  0.00     0.085 H 
ATOM     23  C15 LK4 d   1     -20.277  -2.110 -20.691  0.00  0.00    -0.023 A 
ATOM     24  C17 LK4 d   1     -21.130  -2.906 -18.609  0.00  0.00    -0.050 A 
ATOM     25  C21 LK4 d   1     -19.526  -1.275 -21.468  0.00  0.00    -0.040 A 
ATOM     26  C14 LK4 d   1     -20.963  -3.059 -21.408  0.00  0.00    -0.071 A 
ATOM     27  H9  LK4 d   1     -19.510  -1.395 -22.545  0.00  0.00     0.089 H 
ATOM     28  C13 LK4 d   1     -21.740  -3.940 -20.721  0.00  0.00    -0.059 A 
ATOM     29  H11 LK4 d   1     -20.888  -3.105 -22.488  0.00  0.00     0.084 H 
ATOM     30  C12 LK4 d   1     -21.830  -3.881 -19.350  0.00  0.00     0.080 A 
ATOM     31  H12 LK4 d   1     -22.295  -4.698 -21.261  0.00  0.00     0.085 H 
ATOM     32  H10 LK4 d   1     -21.213  -2.863 -17.529  0.00  0.00     0.087 H 
BRANCH  30  33
ATOM     33  S11 LK4 d   1     -22.806  -4.985 -18.729  0.00  0.00     0.259 S 
ATOM     34  O33 LK4 d   1     -22.468  -5.357 -17.341  0.00  0.00    -0.201 OA
ATOM     35  O32 LK4 d   1     -22.820  -6.118 -19.673  0.00  0.00    -0.201 OA
BRANCH  33  36
ATOM     36  N   LK4 d   1     -24.283  -4.312 -18.665  0.00  0.00    -0.300 N 
ATOM     37  H13 LK4 d   1     -24.669  -4.019 -17.790  0.00  0.00     0.173 HD
BRANCH  36  38
ATOM     38  CA  LK4 d   1     -25.041  -4.141 -19.904  0.00  0.00     0.104 C 
ATOM     39  H14 LK4 d   1     -24.348  -3.793 -20.684  0.00  0.00     0.090 H 
BRANCH  38  40
ATOM     40  C   LK4 d   1     -25.666  -5.447 -20.374  0.00  0.00     0.197 C 
ATOM     41  O   LK4 d   1     -25.680  -5.722 -21.582  0.00  0.00    -0.646 OA
ATOM     42  OXT LK4 d   1     -26.172  -6.224 -19.547  0.00  0.00    -0.646 OA
ENDBRANCH  38  40
BRANCH  38  43
ATOM     43  CB  LK4 d   1     -26.139  -3.071 -19.711  0.00  0.00    -0.027 C 
ATOM     44  H15 LK4 d   1     -25.687  -2.157 -19.298  0.00  0.00     0.037 H 
ATOM     45  H16 LK4 d   1     -26.899  -3.452 -19.013  0.00  0.00     0.037 H 
BRANCH  43  46
ATOM     46  CG  LK4 d   1     -26.798  -2.748 -21.046  0.00  0.00     0.018 C 
ATOM     47  H17 LK4 d   1     -27.362  -3.629 -21.386  0.00  0.00     0.049 H 
ATOM     48  H18 LK4 d   1     -26.015  -2.508 -21.780  0.00  0.00     0.049 H 
BRANCH  46  49
ATOM     49  CD  LK4 d   1     -27.743  -1.574 -20.939  0.00  0.00     0.172 C 
ATOM     50  OE1 LK4 d   1     -28.551  -1.401 -21.876  0.00  0.00    -0.648 OA
ATOM     51  OE2 LK4 d   1     -27.705  -0.834 -19.930  0.00  0.00    -0.648 OA
ENDBRANCH  46  49
ENDBRANCH  43  46
ENDBRANCH  38  43
ENDBRANCH  36  38
ENDBRANCH  33  36
ENDBRANCH  30  33
ENDBRANCH  16  17
ENDBRANCH  13  16
ENDBRANCH   8  13
TORSDOF 10
