REMARK  3 active torsions:
REMARK  status: ('A' for Active; 'I' for Inactive)
REMARK    1  A    between atoms: C5_5  and  C8_8 
REMARK    2  A    between atoms: C8_8  and  C16_14 
REMARK    3  A    between atoms: C19_17  and  C22_20 
ROOT
ATOM      1  C8  GVK d   1      11.543   9.467   3.311  0.00  0.00     0.017 C 
ATOM      2  C9  GVK d   1      11.994   8.094   2.776  0.00  0.00    -0.028 C 
ATOM      3  C10 GVK d   1      11.819   6.981   3.784  0.00  0.00     0.083 C 
ATOM      4  N11 GVK d   1      12.626   7.294   4.995  0.00  0.00    -0.075 N 
ATOM      5  C14 GVK d   1      12.144   8.560   5.616  0.00  0.00     0.083 C 
ATOM      6  C15 GVK d   1      12.290   9.705   4.634  0.00  0.00    -0.028 C 
ATOM      7  H5  GVK d   1      13.058   8.156   2.504  0.00  0.00     0.037 H 
ATOM      8  H6  GVK d   1      11.400   7.854   1.882  0.00  0.00     0.037 H 
ATOM      9  H7  GVK d   1      12.161   6.031   3.348  0.00  0.00     0.075 H 
ATOM     10  H8  GVK d   1      10.758   6.896   4.060  0.00  0.00     0.075 H 
ATOM     11  H9  GVK d   1      13.594   7.398   4.733  0.00  0.00     0.277 HD
ATOM     12  H10 GVK d   1      12.537   6.541   5.659  0.00  0.00     0.277 HD
ATOM     13  H11 GVK d   1      12.739   8.774   6.516  0.00  0.00     0.075 H 
ATOM     14  H12 GVK d   1      11.085   8.450   5.893  0.00  0.00     0.075 H 
ATOM     15  H13 GVK d   1      11.893  10.618   5.101  0.00  0.00     0.037 H 
ATOM     16  H14 GVK d   1      13.359   9.841   4.412  0.00  0.00     0.037 H 
ENDROOT
BRANCH   1  17
ATOM     17  C5  GVK d   1      12.041  10.542   2.341  0.00  0.00    -0.045 A 
ATOM     18  C4  GVK d   1      12.064  11.874   2.734  0.00  0.00    -0.074 A 
ATOM     19  C3  GVK d   1      12.530  12.844   1.877  0.00  0.00    -0.061 A 
ATOM     20  H2  GVK d   1      11.713  12.151   3.721  0.00  0.00     0.084 H 
ATOM     21  C2  GVK d   1      12.993  12.495   0.622  0.00  0.00     0.034 A 
ATOM     22  H1  GVK d   1      12.534  13.883   2.186  0.00  0.00     0.086 H 
ATOM     23 CL1  GVK d   1      13.568  13.715  -0.455  0.00  0.00    -0.084 Cl
ATOM     24  C7  GVK d   1      12.990  11.171   0.227  0.00  0.00    -0.061 A 
ATOM     25  C6  GVK d   1      12.518  10.200   1.079  0.00  0.00    -0.074 A 
ATOM     26  H4  GVK d   1      13.360  10.898  -0.755  0.00  0.00     0.086 H 
ATOM     27  H3  GVK d   1      12.518   9.162   0.766  0.00  0.00     0.084 H 
ENDBRANCH   1  17
BRANCH   1  28
ATOM     28  C16 GVK d   1      10.002   9.525   3.430  0.00  0.00    -0.045 A 
ATOM     29  C17 GVK d   1       9.361  10.019   4.565  0.00  0.00    -0.075 A 
ATOM     30  C18 GVK d   1       7.981  10.046   4.644  0.00  0.00    -0.070 A 
ATOM     31  H15 GVK d   1       9.952  10.387   5.396  0.00  0.00     0.084 H 
ATOM     32  C19 GVK d   1       7.200   9.591   3.585  0.00  0.00    -0.005 A 
ATOM     33  H16 GVK d   1       7.502  10.425   5.540  0.00  0.00     0.084 H 
ATOM     34  C20 GVK d   1       7.840   9.081   2.462  0.00  0.00    -0.070 A 
ATOM     35  C21 GVK d   1       9.218   9.059   2.381  0.00  0.00    -0.075 A 
ATOM     36  H17 GVK d   1       7.250   8.695   1.639  0.00  0.00     0.084 H 
ATOM     37  H18 GVK d   1       9.695   8.673   1.487  0.00  0.00     0.084 H 
BRANCH  32  38
ATOM     38  C22 GVK d   1       5.712   9.584   3.679  0.00  0.00     0.099 A 
ATOM     39  N23 GVK d   1       5.186   9.554   4.917  0.00  0.00    -0.239 NA
ATOM     40  C24 GVK d   1       3.854   9.529   5.033  0.00  0.00     0.089 A 
ATOM     41  N25 GVK d   1       2.932   9.485   4.069  0.00  0.00    -0.220 NA
ATOM     42  H19 GVK d   1       3.471   9.547   6.047  0.00  0.00     0.146 H 
ATOM     43  C26 GVK d   1       3.488   9.484   2.851  0.00  0.00     0.181 A 
ATOM     44  N27 GVK d   1       2.864   9.448   1.641  0.00  0.00    -0.222 NA
ATOM     45  C31 GVK d   1       4.846   9.527   2.579  0.00  0.00     0.111 A 
ATOM     46  C29 GVK d   1       3.815   9.477   0.679  0.00  0.00     0.067 A 
ATOM     47  N30 GVK d   1       5.051   9.525   1.189  0.00  0.00    -0.346 N 
ATOM     48  H20 GVK d   1       3.599   9.463  -0.388  0.00  0.00     0.143 H 
ATOM     49  H21 GVK d   1       5.946   9.554   0.680  0.00  0.00     0.167 HD
ENDBRANCH  32  38
ENDBRANCH   1  28
TORSDOF 3
