REMARK  2 active torsions:
REMARK  status: ('A' for Active; 'I' for Inactive)
REMARK    1  A    between atoms: C1_1  and  C2_2 
REMARK    2  A    between atoms: C3_3  and  C6_4 
ROOT
ATOM      1  C1  GVG d   1       4.293  10.019   2.495  0.00  0.00     0.063 A 
ATOM      2  C3  GVG d   1       5.065   9.865   3.653  0.00  0.00     0.017 A 
ATOM      3  C12 GVG d   1       4.157   9.530   4.650  0.00  0.00     0.008 A 
ATOM      4  N13 GVG d   1       2.911   9.471   4.178  0.00  0.00    -0.288 N 
ATOM      5  N3  GVG d   1       3.007   9.762   2.859  0.00  0.00    -0.179 NA
ATOM      6  H9  GVG d   1       4.429   9.339   5.687  0.00  0.00     0.115 H 
ATOM      7  H10 GVG d   1       2.055   9.250   4.706  0.00  0.00     0.188 HD
ENDROOT
BRANCH   2   8
ATOM      8  C6  GVG d   1       6.519   9.959   3.828  0.00  0.00    -0.022 A 
ATOM      9  C7  GVG d   1       7.378   9.774   2.750  0.00  0.00    -0.072 A 
ATOM     10  C9  GVG d   1       8.742   9.851   2.924  0.00  0.00    -0.082 A 
ATOM     11  H4  GVG d   1       6.971   9.568   1.766  0.00  0.00     0.084 H 
ATOM     12  C11 GVG d   1       9.268  10.070   4.177  0.00  0.00    -0.083 A 
ATOM     13  H6  GVG d   1       9.403   9.739   2.072  0.00  0.00     0.083 H 
ATOM     14  C10 GVG d   1       8.430  10.253   5.253  0.00  0.00    -0.082 A 
ATOM     15  H8  GVG d   1      10.343  10.098   4.316  0.00  0.00     0.083 H 
ATOM     16  C8  GVG d   1       7.064  10.181   5.086  0.00  0.00    -0.072 A 
ATOM     17  H7  GVG d   1       8.845  10.454   6.234  0.00  0.00     0.083 H 
ATOM     18  H5  GVG d   1       6.410  10.299   5.943  0.00  0.00     0.084 H 
ENDBRANCH   2   8
BRANCH   1  19
ATOM     19  C2  GVG d   1       4.625  10.355   1.085  0.00  0.00    -0.033 C 
ATOM     20  H1  GVG d   1       3.703  10.374   0.486  0.00  0.00     0.035 H 
ATOM     21  H2  GVG d   1       5.311   9.597   0.679  0.00  0.00     0.035 H 
ATOM     22  H3  GVG d   1       5.107  11.343   1.047  0.00  0.00     0.035 H 
ENDBRANCH   1  19
TORSDOF 2
