REMARK  5 active torsions:
REMARK  status: ('A' for Active; 'I' for Inactive)
REMARK    1  A    between atoms: C1_1  and  C2_2 
REMARK    2  A    between atoms: C6_6  and  C7_7 
REMARK    3  A    between atoms: C10_10  and  C11_11 
REMARK    4  A    between atoms: C11_11  and  C12_12 
REMARK    5  A    between atoms: C12_12  and  N13_13 
ROOT
ATOM      1  C7  L15 d   1       6.409   9.902   3.619  0.00  0.00    -0.022 A 
ATOM      2  C8  L15 d   1       7.093  10.206   4.789  0.00  0.00    -0.072 A 
ATOM      3  C9  L15 d   1       8.475  10.206   4.813  0.00  0.00    -0.076 A 
ATOM      4  C10 L15 d   1       9.200   9.897   3.669  0.00  0.00    -0.057 A 
ATOM      5  C14 L15 d   1       8.514   9.588   2.503  0.00  0.00    -0.076 A 
ATOM      6  C15 L15 d   1       7.137   9.585   2.479  0.00  0.00    -0.072 A 
ATOM      7  H6  L15 d   1       6.539  10.445   5.690  0.00  0.00     0.084 H 
ATOM      8  H7  L15 d   1       8.997  10.449   5.731  0.00  0.00     0.084 H 
ATOM      9  H15 L15 d   1       9.067   9.347   1.603  0.00  0.00     0.084 H 
ATOM     10  H16 L15 d   1       6.616   9.333   1.562  0.00  0.00     0.084 H 
ENDROOT
BRANCH   1  11
ATOM     11  C6  L15 d   1       4.941   9.866   3.596  0.00  0.00     0.017 A 
ATOM     12  C2  L15 d   1       4.107   9.909   2.480  0.00  0.00     0.063 A 
ATOM     13  N3  L15 d   1       2.825   9.809   2.944  0.00  0.00    -0.179 NA
ATOM     14  N4  L15 d   1       2.795   9.698   4.299  0.00  0.00    -0.288 N 
ATOM     15  C5  L15 d   1       4.083   9.730   4.690  0.00  0.00     0.008 A 
ATOM     16  H4  L15 d   1       1.963   9.608   4.899  0.00  0.00     0.188 HD
ATOM     17  H5  L15 d   1       4.413   9.659   5.725  0.00  0.00     0.115 H 
BRANCH  12  18
ATOM     18  C1  L15 d   1       4.399  10.045   1.027  0.00  0.00    -0.033 C 
ATOM     19  H1  L15 d   1       5.487  10.109   0.876  0.00  0.00     0.035 H 
ATOM     20  H2  L15 d   1       3.921  10.957   0.641  0.00  0.00     0.035 H 
ATOM     21  H3  L15 d   1       4.006   9.169   0.490  0.00  0.00     0.035 H 
ENDBRANCH  12  18
ENDBRANCH   1  11
BRANCH   4  22
ATOM     22  C11 L15 d   1      10.708   9.897   3.687  0.00  0.00    -0.019 C 
ATOM     23  H8  L15 d   1      11.049  10.418   4.594  0.00  0.00     0.042 H 
ATOM     24  H9  L15 d   1      11.070  10.433   2.798  0.00  0.00     0.042 H 
BRANCH  22  25
ATOM     25  C12 L15 d   1      11.294   8.498   3.682  0.00  0.00     0.083 C 
ATOM     26  H10 L15 d   1      11.097   8.037   4.661  0.00  0.00     0.075 H 
ATOM     27  H11 L15 d   1      12.380   8.579   3.527  0.00  0.00     0.075 H 
BRANCH  25  28
ATOM     28  N13 L15 d   1      10.736   7.609   2.627  0.00  0.00    -0.079 N 
ATOM     29  H12 L15 d   1      11.172   6.702   2.687  0.00  0.00     0.274 HD
ATOM     30  H13 L15 d   1      10.917   8.009   1.720  0.00  0.00     0.274 HD
ATOM     31  H14 L15 d   1       9.741   7.513   2.760  0.00  0.00     0.274 HD
ENDBRANCH  25  28
ENDBRANCH  22  25
ENDBRANCH   4  22
TORSDOF 5
