REMARK  5 active torsions:
REMARK  status: ('A' for Active; 'I' for Inactive)
REMARK    1  A    between atoms: N1_1  and  C2_2 
REMARK    2  A    between atoms: C2_2  and  C3_3 
REMARK    3  A    between atoms: C3_3  and  C4_4 
REMARK    4  A    between atoms: C3_3  and  C11_11 
REMARK    5  A    between atoms: C14_14  and  C17_17 
ROOT
ATOM      1  C3  GVN d   1      10.718   9.197   3.312  0.00  0.00     0.020 C 
ATOM      2  H6  GVN d   1      11.075   9.400   4.333  0.00  0.00     0.057 H 
ENDROOT
BRANCH   1   3
ATOM      3  C2  GVN d   1      11.055   7.740   2.999  0.00  0.00     0.090 C 
ATOM      4  H4  GVN d   1      10.556   7.093   3.736  0.00  0.00     0.076 H 
ATOM      5  H5  GVN d   1      10.688   7.498   1.990  0.00  0.00     0.076 H 
BRANCH   3   6
ATOM      6  N1  GVN d   1      12.521   7.491   3.052  0.00  0.00    -0.078 N 
ATOM      7  H1  GVN d   1      12.705   6.523   2.841  0.00  0.00     0.274 HD
ATOM      8  H2  GVN d   1      12.865   7.705   3.975  0.00  0.00     0.274 HD
ATOM      9  H3  GVN d   1      12.986   8.076   2.376  0.00  0.00     0.274 HD
ENDBRANCH   3   6
ENDBRANCH   1   3
BRANCH   1  10
ATOM     10  C4  GVN d   1      11.410  10.195   2.401  0.00  0.00    -0.048 A 
ATOM     11  C5  GVN d   1      11.558   9.957   1.037  0.00  0.00    -0.074 A 
ATOM     12  C6  GVN d   1      12.174  10.891   0.229  0.00  0.00    -0.061 A 
ATOM     13  H7  GVN d   1      11.187   9.033   0.608  0.00  0.00     0.084 H 
ATOM     14  C7  GVN d   1      12.648  12.076   0.772  0.00  0.00     0.034 A 
ATOM     15  H8  GVN d   1      12.288  10.698  -0.832  0.00  0.00     0.086 H 
ATOM     16 CL8  GVN d   1      13.424  13.253  -0.242  0.00  0.00    -0.084 Cl
ATOM     17  C9  GVN d   1      12.498  12.319   2.128  0.00  0.00    -0.061 A 
ATOM     18  C10 GVN d   1      11.883  11.387   2.935  0.00  0.00    -0.074 A 
ATOM     19  H9  GVN d   1      12.866  13.245   2.555  0.00  0.00     0.086 H 
ATOM     20  H10 GVN d   1      11.767  11.585   3.994  0.00  0.00     0.084 H 
ENDBRANCH   1  10
BRANCH   1  21
ATOM     21  C11 GVN d   1       9.211   9.385   3.308  0.00  0.00    -0.048 A 
ATOM     22  C12 GVN d   1       8.523   9.600   4.496  0.00  0.00    -0.075 A 
ATOM     23  C13 GVN d   1       7.152   9.752   4.492  0.00  0.00    -0.072 A 
ATOM     24  H11 GVN d   1       9.067   9.649   5.432  0.00  0.00     0.084 H 
ATOM     25  C14 GVN d   1       6.440   9.700   3.301  0.00  0.00    -0.023 A 
ATOM     26  H12 GVN d   1       6.626   9.913   5.426  0.00  0.00     0.084 H 
ATOM     27  C15 GVN d   1       7.127   9.466   2.116  0.00  0.00    -0.072 A 
ATOM     28  C16 GVN d   1       8.497   9.315   2.119  0.00  0.00    -0.075 A 
ATOM     29  H13 GVN d   1       6.581   9.402   1.182  0.00  0.00     0.084 H 
ATOM     30  H14 GVN d   1       9.021   9.140   1.186  0.00  0.00     0.084 H 
BRANCH  25  31
ATOM     31  C17 GVN d   1       4.978   9.813   3.296  0.00  0.00     0.010 A 
ATOM     32  C18 GVN d   1       4.121   9.849   4.390  0.00  0.00     0.008 A 
ATOM     33  N19 GVN d   1       2.849   9.896   4.005  0.00  0.00    -0.289 N 
ATOM     34  H15 GVN d   1       4.449   9.840   5.428  0.00  0.00     0.115 H 
ATOM     35  N20 GVN d   1       2.891   9.869   2.649  0.00  0.00    -0.187 NA
ATOM     36  H16 GVN d   1       2.014   9.943   4.606  0.00  0.00     0.188 HD
ATOM     37  C21 GVN d   1       4.158   9.808   2.210  0.00  0.00     0.034 A 
ATOM     38  H17 GVN d   1       4.474   9.762   1.169  0.00  0.00     0.118 H 
ENDBRANCH  25  31
ENDBRANCH   1  21
TORSDOF 5
