REMARK  5 active torsions:
REMARK  status: ('A' for Active; 'I' for Inactive)
REMARK    1  A    between atoms: N1_1  and  C2_2 
REMARK    2  A    between atoms: C2_2  and  C3_3 
REMARK    3  A    between atoms: C3_3  and  C4_4 
REMARK    4  A    between atoms: C3_3  and  C11_11 
REMARK    5  A    between atoms: C14_14  and  C17_17 
ROOT
ATOM      1  C3  GVO d   1      10.867   9.379   3.105  0.00  0.00     0.020 C 
ATOM      2  H6  GVO d   1      11.176   9.866   2.168  0.00  0.00     0.057 H 
ENDROOT
BRANCH   1   3
ATOM      3  C2  GVO d   1      10.970   7.837   3.017  0.00  0.00     0.090 C 
ATOM      4  H4  GVO d   1      10.630   7.412   3.973  0.00  0.00     0.076 H 
ATOM      5  H5  GVO d   1      10.310   7.492   2.208  0.00  0.00     0.076 H 
BRANCH   3   6
ATOM      6  N1  GVO d   1      12.329   7.343   2.748  0.00  0.00    -0.078 N 
ATOM      7  H1  GVO d   1      12.318   6.336   2.705  0.00  0.00     0.274 HD
ATOM      8  H2  GVO d   1      12.947   7.641   3.486  0.00  0.00     0.274 HD
ATOM      9  H3  GVO d   1      12.653   7.713   1.869  0.00  0.00     0.274 HD
ENDBRANCH   3   6
ENDBRANCH   1   3
BRANCH   1  10
ATOM     10  C4  GVO d   1      11.846   9.792   4.188  0.00  0.00    -0.048 A 
ATOM     11  C5  GVO d   1      11.796   9.271   5.476  0.00  0.00    -0.074 A 
ATOM     12  C6  GVO d   1      12.735   9.638   6.436  0.00  0.00    -0.061 A 
ATOM     13  H7  GVO d   1      11.013   8.568   5.737  0.00  0.00     0.084 H 
ATOM     14  C7  GVO d   1      13.752  10.515   6.120  0.00  0.00     0.034 A 
ATOM     15  H8  GVO d   1      12.667   9.232   7.439  0.00  0.00     0.086 H 
ATOM     16 CL8  GVO d   1      14.909  10.956   7.349  0.00  0.00    -0.084 Cl
ATOM     17  C9  GVO d   1      13.824  11.032   4.830  0.00  0.00    -0.061 A 
ATOM     18  C10 GVO d   1      12.882  10.661   3.869  0.00  0.00    -0.074 A 
ATOM     19  H9  GVO d   1      14.615  11.726   4.570  0.00  0.00     0.086 H 
ATOM     20  H10 GVO d   1      12.960  11.055   2.862  0.00  0.00     0.084 H 
ENDBRANCH   1  10
BRANCH   1  21
ATOM     21  C11 GVO d   1       9.369   9.569   3.278  0.00  0.00    -0.048 A 
ATOM     22  C12 GVO d   1       8.597   9.418   2.133  0.00  0.00    -0.075 A 
ATOM     23  C13 GVO d   1       7.210   9.512   2.188  0.00  0.00    -0.072 A 
ATOM     24  H11 GVO d   1       9.082   9.224   1.183  0.00  0.00     0.084 H 
ATOM     25  C14 GVO d   1       6.566   9.788   3.398  0.00  0.00    -0.023 A 
ATOM     26  H12 GVO d   1       6.625   9.370   1.287  0.00  0.00     0.084 H 
ATOM     27  C15 GVO d   1       7.342   9.909   4.554  0.00  0.00    -0.072 A 
ATOM     28  C16 GVO d   1       8.726   9.792   4.491  0.00  0.00    -0.075 A 
ATOM     29  H13 GVO d   1       6.861  10.096   5.507  0.00  0.00     0.084 H 
ATOM     30  H14 GVO d   1       9.312   9.876   5.399  0.00  0.00     0.084 H 
BRANCH  25  31
ATOM     31  C17 GVO d   1       5.081   9.837   3.441  0.00  0.00     0.010 A 
ATOM     32  C18 GVO d   1       4.277   9.645   4.584  0.00  0.00     0.008 A 
ATOM     33  N19 GVO d   1       3.026   9.685   4.223  0.00  0.00    -0.289 N 
ATOM     34  H15 GVO d   1       4.641   9.489   5.598  0.00  0.00     0.115 H 
ATOM     35  N20 GVO d   1       2.984   9.862   2.839  0.00  0.00    -0.187 NA
ATOM     36  H16 GVO d   1       2.212   9.601   4.848  0.00  0.00     0.188 HD
ATOM     37  C21 GVO d   1       4.234   9.943   2.379  0.00  0.00     0.034 A 
ATOM     38  H17 GVO d   1       4.526  10.071   1.338  0.00  0.00     0.118 H 
ENDBRANCH  25  31
ENDBRANCH   1  21
TORSDOF 5
