REMARK  3 active torsions:
REMARK  status: ('A' for Active; 'I' for Inactive)
REMARK    1  A    between atoms: C5_5  and  C8_8 
REMARK    2  A    between atoms: C8_8  and  C14_14 
REMARK    3  A    between atoms: C17_17  and  C20_20 
ROOT
ATOM      1  C8  GVP d   1      10.780   9.407   3.734  0.00  0.00     0.017 C 
ATOM      2  C9  GVP d   1      11.063   7.974   3.234  0.00  0.00    -0.028 C 
ATOM      3  C10 GVP d   1      12.501   7.529   3.450  0.00  0.00     0.083 C 
ATOM      4  N11 GVP d   1      12.834   7.631   4.899  0.00  0.00    -0.075 N 
ATOM      5  C12 GVP d   1      12.676   9.028   5.398  0.00  0.00     0.083 C 
ATOM      6  C13 GVP d   1      11.237   9.468   5.202  0.00  0.00    -0.028 C 
ATOM      7  H5  GVP d   1      10.843   7.931   2.157  0.00  0.00     0.037 H 
ATOM      8  H6  GVP d   1      10.399   7.280   3.771  0.00  0.00     0.037 H 
ATOM      9  H7  GVP d   1      13.177   8.175   2.871  0.00  0.00     0.075 H 
ATOM     10  H8  GVP d   1      12.617   6.487   3.119  0.00  0.00     0.075 H 
ATOM     11  H9  GVP d   1      13.789   7.340   5.037  0.00  0.00     0.277 HD
ATOM     12  H10 GVP d   1      12.219   7.025   5.420  0.00  0.00     0.277 HD
ATOM     13  H11 GVP d   1      13.345   9.697   4.837  0.00  0.00     0.075 H 
ATOM     14  H12 GVP d   1      12.930   9.068   6.467  0.00  0.00     0.075 H 
ATOM     15  H13 GVP d   1      10.586   8.812   5.798  0.00  0.00     0.037 H 
ATOM     16  H14 GVP d   1      11.137  10.504   5.557  0.00  0.00     0.037 H 
ENDROOT
BRANCH   1  17
ATOM     17  C5  GVP d   1      11.443  10.480   2.854  0.00  0.00    -0.045 A 
ATOM     18  C4  GVP d   1      11.828  10.189   1.547  0.00  0.00    -0.074 A 
ATOM     19  C3  GVP d   1      12.403  11.157   0.753  0.00  0.00    -0.061 A 
ATOM     20  H2  GVP d   1      11.674   9.192   1.151  0.00  0.00     0.084 H 
ATOM     21  C2  GVP d   1      12.584  12.439   1.239  0.00  0.00     0.034 A 
ATOM     22  H1  GVP d   1      12.715  10.913  -0.256  0.00  0.00     0.086 H 
ATOM     23 CL1  GVP d   1      13.308  13.652   0.231  0.00  0.00    -0.084 Cl
ATOM     24  C7  GVP d   1      12.201  12.742   2.536  0.00  0.00    -0.061 A 
ATOM     25  C6  GVP d   1      11.628  11.774   3.335  0.00  0.00    -0.074 A 
ATOM     26  H4  GVP d   1      12.352  13.743   2.924  0.00  0.00     0.086 H 
ATOM     27  H3  GVP d   1      11.320  12.022   4.344  0.00  0.00     0.084 H 
ENDBRANCH   1  17
BRANCH   1  28
ATOM     28  C14 GVP d   1       9.250   9.562   3.654  0.00  0.00    -0.045 A 
ATOM     29  C15 GVP d   1       8.474   9.801   4.785  0.00  0.00    -0.075 A 
ATOM     30  C16 GVP d   1       7.102   9.891   4.686  0.00  0.00    -0.072 A 
ATOM     31  H15 GVP d   1       8.952   9.917   5.751  0.00  0.00     0.084 H 
ATOM     32  C17 GVP d   1       6.472   9.761   3.454  0.00  0.00    -0.023 A 
ATOM     33  H16 GVP d   1       6.509  10.065   5.577  0.00  0.00     0.084 H 
ATOM     34  C18 GVP d   1       7.243   9.499   2.332  0.00  0.00    -0.072 A 
ATOM     35  C19 GVP d   1       8.613   9.402   2.430  0.00  0.00    -0.075 A 
ATOM     36  H17 GVP d   1       6.763   9.369   1.369  0.00  0.00     0.084 H 
ATOM     37  H18 GVP d   1       9.201   9.199   1.542  0.00  0.00     0.084 H 
BRANCH  32  38
ATOM     38  C20 GVP d   1       5.007   9.780   3.354  0.00  0.00     0.010 A 
ATOM     39  C21 GVP d   1       4.083   9.665   4.401  0.00  0.00     0.008 A 
ATOM     40  N22 GVP d   1       2.831   9.646   3.941  0.00  0.00    -0.289 N 
ATOM     41  H19 GVP d   1       4.352   9.600   5.454  0.00  0.00     0.115 H 
ATOM     42  N23 GVP d   1       2.951   9.699   2.590  0.00  0.00    -0.187 NA
ATOM     43  H20 GVP d   1       1.962   9.601   4.492  0.00  0.00     0.188 HD
ATOM     44  C24 GVP d   1       4.242   9.763   2.214  0.00  0.00     0.034 A 
ATOM     45  H21 GVP d   1       4.613   9.795   1.190  0.00  0.00     0.118 H 
ENDBRANCH  32  38
ENDBRANCH   1  28
TORSDOF 3
