REMARK  4 active torsions:
REMARK  status: ('A' for Active; 'I' for Inactive)
REMARK    1  A    between atoms: C9_9  and  C12_11 
REMARK    2  A    between atoms: C9_9  and  C13_12 
REMARK    3  A    between atoms: C9_9  and  C15_14 
REMARK    4  A    between atoms: C15_14  and  N1_15 
ROOT
ATOM      1  C9  GVQ d   1      10.230   9.122   3.816  0.00  0.00     0.020 C 
ATOM      2  H8  GVQ d   1      10.653   8.843   4.793  0.00  0.00     0.057 H 
ENDROOT
BRANCH   1   3
ATOM      3  C12 GVQ d   1       8.878   9.770   4.047  0.00  0.00    -0.048 A 
ATOM      4  C8  GVQ d   1       8.597  10.316   5.293  0.00  0.00    -0.076 A 
ATOM      5  C7  GVQ d   1       7.368  10.921   5.532  0.00  0.00    -0.082 A 
ATOM      6  H7  GVQ d   1       9.339  10.270   6.082  0.00  0.00     0.084 H 
ATOM      7  C6  GVQ d   1       6.416  10.990   4.529  0.00  0.00    -0.083 A 
ATOM      8  H6  GVQ d   1       7.154  11.341   6.508  0.00  0.00     0.083 H 
ATOM      9  C5  GVQ d   1       6.696  10.447   3.278  0.00  0.00    -0.082 A 
ATOM     10  H5  GVQ d   1       5.459  11.464   4.716  0.00  0.00     0.083 H 
ATOM     11  C11 GVQ d   1       7.924   9.839   3.037  0.00  0.00    -0.076 A 
ATOM     12  H4  GVQ d   1       5.955  10.498   2.489  0.00  0.00     0.083 H 
ATOM     13  H9  GVQ d   1       8.138   9.418   2.061  0.00  0.00     0.084 H 
ENDBRANCH   1   3
BRANCH   1  14
ATOM     14  C13 GVQ d   1      11.127  10.149   3.174  0.00  0.00    -0.048 A 
ATOM     15  C1  GVQ d   1      10.979  10.496   1.839  0.00  0.00    -0.074 A 
ATOM     16  C2  GVQ d   1      11.814  11.451   1.284  0.00  0.00    -0.061 A 
ATOM     17  H1  GVQ d   1      10.214  10.022   1.234  0.00  0.00     0.084 H 
ATOM     18  C3  GVQ d   1      12.781  12.051   2.075  0.00  0.00     0.034 A 
ATOM     19  H2  GVQ d   1      11.712  11.727   0.241  0.00  0.00     0.086 H 
ATOM     20  C4  GVQ d   1      12.930  11.709   3.405  0.00  0.00    -0.061 A 
ATOM     21 CL1  GVQ d   1      13.827  13.246   1.396  0.00  0.00    -0.084 Cl
ATOM     22  C14 GVQ d   1      12.096  10.757   3.955  0.00  0.00    -0.074 A 
ATOM     23  H3  GVQ d   1      13.694  12.183   4.010  0.00  0.00     0.086 H 
ATOM     24  H10 GVQ d   1      12.199  10.485   4.999  0.00  0.00     0.084 H 
ENDBRANCH   1  14
BRANCH   1  25
ATOM     25  C15 GVQ d   1      10.149   7.848   2.960  0.00  0.00     0.090 C 
ATOM     26  H11 GVQ d   1       9.729   8.092   1.973  0.00  0.00     0.076 H 
ATOM     27  H12 GVQ d   1       9.507   7.107   3.459  0.00  0.00     0.076 H 
BRANCH  25  28
ATOM     28  N1  GVQ d   1      11.504   7.298   2.798  0.00  0.00    -0.078 N 
ATOM     29  H13 GVQ d   1      11.462   6.461   2.237  0.00  0.00     0.274 HD
ATOM     30  H14 GVQ d   1      11.887   7.077   3.704  0.00  0.00     0.274 HD
ATOM     31  H15 GVQ d   1      12.091   7.979   2.342  0.00  0.00     0.274 HD
ENDBRANCH  25  28
ENDBRANCH   1  25
TORSDOF 4
