REMARK  4 active torsions:
REMARK  status: ('A' for Active; 'I' for Inactive)
REMARK    1  A    between atoms: C2_2  and  O4_19 
REMARK    2  A    between atoms: C4_4  and  O5_20 
REMARK    3  A    between atoms: C9_9  and  C10_12 
REMARK    4  A    between atoms: C13_15  and  O3_18 
ROOT
ATOM      1  C1  NAR d   1      16.216  37.289  -2.691  0.00  0.00    -0.018 A 
ATOM      2  C2  NAR d   1      16.882  38.507  -2.587  0.00  0.00     0.071 A 
ATOM      3  C3  NAR d   1      18.086  38.719  -3.265  0.00  0.00    -0.018 A 
ATOM      4  C4  NAR d   1      18.643  37.719  -4.051  0.00  0.00     0.085 A 
ATOM      5  C5  NAR d   1      17.974  36.484  -4.173  0.00  0.00     0.076 A 
ATOM      6  C6  NAR d   1      16.756  36.284  -3.499  0.00  0.00     0.089 A 
ATOM      7  C7  NAR d   1      18.489  35.443  -4.960  0.00  0.00     0.167 C 
ATOM      8  C8  NAR d   1      17.715  34.167  -5.235  0.00  0.00     0.024 C 
ATOM      9  C9  NAR d   1      16.238  34.387  -4.891  0.00  0.00     0.077 C 
ATOM     10  O1  NAR d   1      16.092  35.094  -3.592  0.00  0.00    -0.340 OA
ATOM     11  O2  NAR d   1      19.614  35.548  -5.462  0.00  0.00    -0.292 OA
ATOM     12  H   NAR d   1      15.285  37.121  -2.149  0.00  0.00     0.092 H 
ATOM     13  H   NAR d   1      18.593  39.680  -3.176  0.00  0.00     0.092 H 
ATOM     14  H   NAR d   1      18.116  33.358  -4.624  0.00  0.00     0.049 H 
ATOM     15  H   NAR d   1      17.809  33.903  -6.288  0.00  0.00     0.049 H 
ATOM     16  H   NAR d   1      15.870  35.010  -5.707  0.00  0.00     0.092 H 
ENDROOT
BRANCH   9  17
ATOM     17  C10 NAR d   1      15.322  33.106  -4.922  0.00  0.00    -0.028 A 
ATOM     18  C11 NAR d   1      15.900  31.714  -5.304  0.00  0.00    -0.072 A 
ATOM     19  C12 NAR d   1      14.922  30.716  -5.277  0.00  0.00    -0.050 A 
ATOM     20  H   NAR d   1      16.944  31.538  -5.562  0.00  0.00     0.084 H 
ATOM     21  C13 NAR d   1      13.587  30.889  -4.972  0.00  0.00     0.065 A 
ATOM     22  H   NAR d   1      15.245  29.704  -5.520  0.00  0.00     0.087 H 
ATOM     23  C14 NAR d   1      13.118  32.138  -4.628  0.00  0.00    -0.050 A 
ATOM     24  C15 NAR d   1      13.973  33.239  -4.598  0.00  0.00    -0.072 A 
ATOM     25  H   NAR d   1      12.065  32.267  -4.376  0.00  0.00     0.087 H 
ATOM     26  H   NAR d   1      13.581  34.217  -4.317  0.00  0.00     0.084 H 
BRANCH  21  27
ATOM     27  O3  NAR d   1      12.743  29.844  -4.981  0.00  0.00    -0.361 OA
ATOM     28  H   NAR d   1      12.035  30.012  -5.607  0.00  0.00     0.217 HD
ENDBRANCH  21  27
ENDBRANCH   9  17
BRANCH   4  29
ATOM     29  O5  NAR d   1      19.837  37.960  -4.689  0.00  0.00    -0.360 OA
ATOM     30  H   NAR d   1      20.493  37.327  -4.388  0.00  0.00     0.217 HD
ENDBRANCH   4  29
BRANCH   2  31
ATOM     31  O4  NAR d   1      16.379  39.500  -1.817  0.00  0.00    -0.361 OA
ATOM     32  H   NAR d   1      15.555  39.209  -1.419  0.00  0.00     0.217 HD
ENDBRANCH   2  31
TORSDOF 4
