REMARK  23 active torsions:
REMARK  status: ('A' for Active; 'I' for Inactive)
REMARK    1  A    between atoms: C7_12  and  C7M_13 
REMARK    2  A    between atoms: C8_14  and  C8M_15 
REMARK    3  A    between atoms: C1'_33  and  N10_18 
REMARK    4  A    between atoms: P_19  and  O3P_22 
REMARK    5  A    between atoms: O5'_41  and  P_19 
REMARK    6  A    between atoms: O3P_22  and  PA_42 
REMARK    7  A    between atoms: C3B_23  and  CB1_24 
REMARK    8  A    between atoms: C1B_31  and  O1B_32 
REMARK    9  A    between atoms: C2'_34  and  C1'_33 
REMARK   10  A    between atoms: C2'_34  and  O2'_35 
REMARK   11  A    between atoms: C3'_36  and  C2'_34 
REMARK   12  A    between atoms: C3'_36  and  O3'_37 
REMARK   13  A    between atoms: C4'_38  and  C3'_36 
REMARK   14  A    between atoms: C4'_38  and  O4'_39 
REMARK   15  A    between atoms: C5'_40  and  C4'_38 
REMARK   16  A    between atoms: C5'_40  and  O5'_41 
REMARK   17  A    between atoms: PA_42  and  OA5_45 
REMARK   18  A    between atoms: OA5_45  and  CA5_46 
REMARK   19  A    between atoms: CA5_46  and  CA4_47 
REMARK   20  A    between atoms: CA3_49  and  OA3_50 
REMARK   21  A    between atoms: CA2_51  and  OA2_52 
REMARK   22  A    between atoms: CA1_53  and  N9A_54 
REMARK   23  A    between atoms: C6A_62  and  N6A_63 
ROOT
ATOM      1  C2' FAJ d   1      67.454  60.875  31.375  0.00  0.00     0.078 C 
ATOM      2  H24 FAJ d   1      68.060  60.125  30.846  0.00  0.00     0.089 H 
ENDROOT
BRANCH   1   3
ATOM      3  C1' FAJ d   1      66.443  60.162  32.285  0.00  0.00     0.024 C 
ATOM      4  H22 FAJ d   1      65.681  60.890  32.600  0.00  0.00     0.068 H 
ATOM      5  H23 FAJ d   1      65.963  59.355  31.711  0.00  0.00     0.068 H 
BRANCH   3   6
ATOM      6  N10 FAJ d   1      67.067  59.572  33.501  0.00  0.00    -0.352 N 
ATOM      7  C10 FAJ d   1      67.638  58.300  33.421  0.00  0.00     0.115 C 
ATOM      8  N1  FAJ d   1      68.034  57.823  32.156  0.00  0.00    -0.318 N 
ATOM      9  C4A FAJ d   1      67.862  57.431  34.683  0.00  0.00     0.163 C 
ATOM     10  H3  FAJ d   1      66.641  57.854  33.291  0.00  0.00     0.112 H 
ATOM     11  C2  FAJ d   1      69.042  56.859  32.035  0.00  0.00     0.324 C 
ATOM     12  H2  FAJ d   1      67.589  58.178  31.334  0.00  0.00     0.166 HD
ATOM     13  O2  FAJ d   1      69.392  56.468  30.918  0.00  0.00    -0.247 OA
ATOM     14  N3  FAJ d   1      69.642  56.345  33.195  0.00  0.00    -0.277 N 
ATOM     15  C4  FAJ d   1      69.262  56.802  34.466  0.00  0.00     0.259 C 
ATOM     16  H1  FAJ d   1      70.350  55.643  33.115  0.00  0.00     0.173 HD
ATOM     17  O4  FAJ d   1      70.070  56.702  35.383  0.00  0.00    -0.270 OA
ATOM     18  N5  FAJ d   1      67.752  58.231  35.948  0.00  0.00    -0.330 N 
ATOM     19  C3B FAJ d   1      66.698  56.417  34.907  0.00  0.00     0.012 C 
ATOM     20  C5A FAJ d   1      67.321  59.563  35.923  0.00  0.00     0.061 A 
ATOM     21  C1B FAJ d   1      67.457  57.283  37.048  0.00  0.00     0.105 C 
ATOM     22  C6  FAJ d   1      67.217  60.221  37.145  0.00  0.00    -0.049 A 
ATOM     23  C9A FAJ d   1      66.976  60.227  34.745  0.00  0.00     0.059 A 
ATOM     24  C7  FAJ d   1      66.789  61.538  37.212  0.00  0.00    -0.054 A 
ATOM     25  H4  FAJ d   1      67.474  59.696  38.058  0.00  0.00     0.087 H 
ATOM     26  C8  FAJ d   1      66.451  62.214  36.035  0.00  0.00    -0.054 A 
ATOM     27  C9  FAJ d   1      66.547  61.555  34.815  0.00  0.00    -0.049 A 
ATOM     28  H11 FAJ d   1      66.285  62.080  33.903  0.00  0.00     0.087 H 
ATOM     29  C2B FAJ d   1      66.705  56.120  36.413  0.00  0.00    -0.014 C 
ATOM     30  H20 FAJ d   1      66.835  57.771  37.813  0.00  0.00     0.117 H 
ATOM     31  H18 FAJ d   1      67.222  55.170  36.616  0.00  0.00     0.040 H 
ATOM     32  H19 FAJ d   1      65.677  56.069  36.800  0.00  0.00     0.040 H 
ATOM     33  H12 FAJ d   1      65.753  56.898  34.616  0.00  0.00     0.052 H 
BRANCH  24  34
ATOM     34  C7M FAJ d   1      66.704  62.198  38.588  0.00  0.00    -0.051 C 
ATOM     35  H5  FAJ d   1      67.017  61.479  39.359  0.00  0.00     0.033 H 
ATOM     36  H6  FAJ d   1      65.668  62.514  38.780  0.00  0.00     0.033 H 
ATOM     37  H7  FAJ d   1      67.366  63.076  38.615  0.00  0.00     0.033 H 
ENDBRANCH  24  34
BRANCH  26  38
ATOM     38  C8M FAJ d   1      65.971  63.666  36.049  0.00  0.00    -0.051 C 
ATOM     39  H8  FAJ d   1      65.763  63.993  35.020  0.00  0.00     0.033 H 
ATOM     40  H9  FAJ d   1      66.751  64.306  36.486  0.00  0.00     0.033 H 
ATOM     41  H10 FAJ d   1      65.053  63.743  36.651  0.00  0.00     0.033 H 
ENDBRANCH  26  38
BRANCH  21  42
ATOM     42  O1B FAJ d   1      68.664  56.805  37.649  0.00  0.00    -0.377 OA
ATOM     43  H21 FAJ d   1      69.188  56.359  36.994  0.00  0.00     0.212 HD
ENDBRANCH  21  42
BRANCH  19  44
ATOM     44  CB1 FAJ d   1      66.800  55.070  34.160  0.00  0.00    -0.051 A 
ATOM     45  CB2 FAJ d   1      67.597  54.025  34.648  0.00  0.00    -0.076 A 
ATOM     46  CB3 FAJ d   1      67.658  52.809  33.966  0.00  0.00    -0.082 A 
ATOM     47  H13 FAJ d   1      68.168  54.162  35.559  0.00  0.00     0.084 H 
ATOM     48  CB4 FAJ d   1      66.910  52.631  32.802  0.00  0.00    -0.083 A 
ATOM     49  H14 FAJ d   1      68.284  52.006  34.339  0.00  0.00     0.083 H 
ATOM     50  CB5 FAJ d   1      66.109  53.664  32.325  0.00  0.00    -0.082 A 
ATOM     51  H15 FAJ d   1      66.953  51.688  32.269  0.00  0.00     0.083 H 
ATOM     52  CB6 FAJ d   1      66.047  54.881  33.005  0.00  0.00    -0.076 A 
ATOM     53  H16 FAJ d   1      65.530  53.523  31.420  0.00  0.00     0.083 H 
ATOM     54  H17 FAJ d   1      65.413  55.678  32.634  0.00  0.00     0.084 H 
ENDBRANCH  19  44
ENDBRANCH   3   6
ENDBRANCH   1   3
BRANCH   1  55
ATOM     55  O2' FAJ d   1      68.301  61.694  32.172  0.00  0.00    -0.391 OA
ATOM     56  H25 FAJ d   1      68.928  62.137  31.613  0.00  0.00     0.210 HD
ENDBRANCH   1  55
BRANCH   1  57
ATOM     57  C3' FAJ d   1      66.719  61.747  30.351  0.00  0.00     0.088 C 
ATOM     58  H26 FAJ d   1      66.133  62.494  30.907  0.00  0.00     0.091 H 
BRANCH  57  59
ATOM     59  O3' FAJ d   1      65.833  60.920  29.603  0.00  0.00    -0.390 OA
ATOM     60  H27 FAJ d   1      66.332  60.246  29.156  0.00  0.00     0.210 HD
ENDBRANCH  57  59
BRANCH  57  61
ATOM     61  C4' FAJ d   1      67.623  62.503  29.355  0.00  0.00     0.084 C 
ATOM     62  H28 FAJ d   1      67.856  61.841  28.508  0.00  0.00     0.090 H 
BRANCH  61  63
ATOM     63  O4' FAJ d   1      68.853  62.944  29.955  0.00  0.00    -0.391 OA
ATOM     64  H29 FAJ d   1      69.374  63.402  29.306  0.00  0.00     0.210 HD
ENDBRANCH  61  63
BRANCH  61  65
ATOM     65  C5' FAJ d   1      66.859  63.726  28.859  0.00  0.00     0.058 C 
ATOM     66  H30 FAJ d   1      66.832  64.476  29.663  0.00  0.00     0.079 H 
ATOM     67  H31 FAJ d   1      65.832  63.422  28.606  0.00  0.00     0.079 H 
BRANCH  65  68
ATOM     68  O5' FAJ d   1      67.459  64.311  27.709  0.00  0.00    -0.287 OA
BRANCH  68  69
ATOM     69  P   FAJ d   1      66.662  65.429  26.873  0.00  0.00     0.417 P 
ATOM     70  O1P FAJ d   1      67.647  66.203  26.093  0.00  0.00    -0.624 OA
ATOM     71  O2P FAJ d   1      65.511  64.788  26.202  0.00  0.00    -0.624 OA
BRANCH  69  72
ATOM     72  O3P FAJ d   1      66.022  66.390  27.982  0.00  0.00    -0.180 OA
BRANCH  72  73
ATOM     73  PA  FAJ d   1      66.869  67.408  28.866  0.00  0.00     0.417 P 
ATOM     74  O1A FAJ d   1      66.000  67.865  29.971  0.00  0.00    -0.624 OA
ATOM     75  O2A FAJ d   1      68.188  66.817  29.165  0.00  0.00    -0.624 OA
BRANCH  73  76
ATOM     76  OA5 FAJ d   1      67.072  68.623  27.827  0.00  0.00    -0.287 OA
BRANCH  76  77
ATOM     77  CA5 FAJ d   1      66.158  69.725  27.790  0.00  0.00     0.058 C 
ATOM     78  H32 FAJ d   1      65.429  69.617  28.607  0.00  0.00     0.079 H 
ATOM     79  H33 FAJ d   1      65.630  69.724  26.825  0.00  0.00     0.079 H 
BRANCH  77  80
ATOM     80  CA4 FAJ d   1      66.901  71.049  27.953  0.00  0.00     0.089 C 
ATOM     81  OA4 FAJ d   1      65.962  72.142  27.777  0.00  0.00    -0.353 OA
ATOM     82  CA1 FAJ d   1      66.368  73.160  28.707  0.00  0.00     0.139 C 
ATOM     83  CA2 FAJ d   1      66.635  72.355  29.962  0.00  0.00     0.105 C 
ATOM     84  H39 FAJ d   1      67.274  73.692  28.382  0.00  0.00     0.122 H 
ATOM     85  CA3 FAJ d   1      67.440  71.195  29.376  0.00  0.00     0.091 C 
ATOM     86  H37 FAJ d   1      65.709  72.018  30.450  0.00  0.00     0.093 H 
ATOM     87  H35 FAJ d   1      67.312  70.274  29.963  0.00  0.00     0.091 H 
ATOM     88  H34 FAJ d   1      67.720  71.112  27.221  0.00  0.00     0.090 H 
BRANCH  82  89
ATOM     89  N9A FAJ d   1      65.239  74.103  28.812  0.00  0.00    -0.294 N 
ATOM     90  C8A FAJ d   1      64.100  73.934  29.494  0.00  0.00     0.071 A 
ATOM     91  N7A FAJ d   1      63.327  75.012  29.326  0.00  0.00    -0.236 NA
ATOM     92  H40 FAJ d   1      63.844  73.059  30.090  0.00  0.00     0.144 H 
ATOM     93  C5C FAJ d   1      63.977  75.861  28.532  0.00  0.00     0.149 A 
ATOM     94  C4C FAJ d   1      65.189  75.282  28.201  0.00  0.00     0.167 A 
ATOM     95  C6A FAJ d   1      63.683  77.112  28.007  0.00  0.00     0.155 A 
ATOM     96  N3A FAJ d   1      66.043  75.935  27.398  0.00  0.00    -0.222 NA
ATOM     97  C2A FAJ d   1      65.735  77.127  26.916  0.00  0.00     0.091 A 
ATOM     98  N1A FAJ d   1      64.581  77.711  27.211  0.00  0.00    -0.222 NA
ATOM     99  H41 FAJ d   1      66.439  77.637  26.268  0.00  0.00     0.146 H 
BRANCH  95 100
ATOM    100  N6A FAJ d   1      62.535  77.714  28.290  0.00  0.00    -0.382 N 
ATOM    101  H42 FAJ d   1      62.329  78.642  27.894  0.00  0.00     0.157 HD
ATOM    102  H43 FAJ d   1      61.850  77.253  28.906  0.00  0.00     0.157 HD
ENDBRANCH  95 100
ENDBRANCH  82  89
BRANCH  83 103
ATOM    103  OA2 FAJ d   1      67.435  73.111  30.878  0.00  0.00    -0.388 OA
ATOM    104  H38 FAJ d   1      68.192  73.460  30.422  0.00  0.00     0.210 HD
ENDBRANCH  83 103
BRANCH  85 105
ATOM    105  OA3 FAJ d   1      68.812  71.557  29.290  0.00  0.00    -0.390 OA
ATOM    106  H36 FAJ d   1      68.892  72.380  28.822  0.00  0.00     0.210 HD
ENDBRANCH  85 105
ENDBRANCH  77  80
ENDBRANCH  76  77
ENDBRANCH  73  76
ENDBRANCH  72  73
ENDBRANCH  69  72
ENDBRANCH  68  69
ENDBRANCH  65  68
ENDBRANCH  61  65
ENDBRANCH  57  61
ENDBRANCH   1  57
TORSDOF 23
