REMARK  7 active torsions:
REMARK  status: ('A' for Active; 'I' for Inactive)
REMARK    1  A    between atoms: C13_2  and  C14_3 
REMARK       I    between atoms: C13_2  and  N2_8 
REMARK    2  A    between atoms: C9_14  and  C10_15 
REMARK    3  A    between atoms: C4_18  and  C3_19 
REMARK       I    between atoms: C3_19  and  N1_21 
REMARK    4  A    between atoms: N1_21  and  C2_22 
REMARK    5  A    between atoms: N1_21  and  C18_24 
REMARK    6  A    between atoms: C2_22  and  C1_23 
REMARK    7  A    between atoms: C18_24  and  C19_25 
ROOT
ATOM      1  O1  K02 d   1      20.195  14.271  32.242  0.00  0.00    -0.267 OA
ATOM      2  C13 K02 d   1      19.189  13.669  31.828  0.00  0.00     0.263 C 
ATOM      3  N2  K02 d   1      19.043  13.450  30.504  0.00  0.00    -0.316 N 
ATOM      4  C12 K02 d   1      19.788  14.076  29.560  0.00  0.00     0.093 A 
ATOM      5  S1  K02 d   1      21.375  13.630  29.269  0.00  0.00    -0.075 SA
ATOM      6  C6  K02 d   1      21.570  14.772  28.024  0.00  0.00    -0.008 A 
ATOM      7  C5  K02 d   1      20.407  15.506  27.836  0.00  0.00    -0.026 A 
ATOM      8  C11 K02 d   1      20.365  16.592  26.772  0.00  0.00    -0.036 C 
ATOM      9  C9  K02 d   1      21.759  17.009  26.325  0.00  0.00    -0.053 C 
ATOM     10  C8  K02 d   1      22.831  15.909  26.165  0.00  0.00    -0.058 C 
ATOM     11  C7  K02 d   1      22.900  14.864  27.290  0.00  0.00    -0.034 C 
ATOM     12  C4  K02 d   1      19.380  15.106  28.701  0.00  0.00     0.073 A 
ATOM     13  H4  K02 d   1      18.351  12.793  30.205  0.00  0.00     0.169 HD
ATOM     14  H5  K02 d   1      19.846  17.471  27.182  0.00  0.00     0.040 H 
ATOM     15  H6  K02 d   1      19.811  16.213  25.900  0.00  0.00     0.040 H 
ATOM     16  H7  K02 d   1      22.143  17.738  27.053  0.00  0.00     0.040 H 
ATOM     17  H11 K02 d   1      23.812  16.402  26.104  0.00  0.00     0.034 H 
ATOM     18  H12 K02 d   1      22.629  15.377  25.224  0.00  0.00     0.034 H 
ATOM     19  H13 K02 d   1      23.141  13.882  26.856  0.00  0.00     0.041 H 
ATOM     20  H14 K02 d   1      23.686  15.153  28.003  0.00  0.00     0.041 H 
ENDROOT
BRANCH  12  21
ATOM     21  C3  K02 d   1      18.039  15.796  28.687  0.00  0.00     0.257 C 
ATOM     22  O2  K02 d   1      17.349  15.742  27.719  0.00  0.00    -0.267 OA
ATOM     23  N1  K02 d   1      17.548  16.500  29.723  0.00  0.00    -0.349 N 
BRANCH  23  24
ATOM     24  C2  K02 d   1      16.114  16.874  29.786  0.00  0.00    -0.005 C 
ATOM     25  H15 K02 d   1      15.686  16.890  28.773  0.00  0.00     0.063 H 
ATOM     26  H16 K02 d   1      16.006  17.868  30.245  0.00  0.00     0.063 H 
BRANCH  24  27
ATOM     27  C1  K02 d   1      15.403  15.834  30.631  0.00  0.00    -0.061 C 
ATOM     28  H17 K02 d   1      14.334  16.084  30.697  0.00  0.00     0.029 H 
ATOM     29  H18 K02 d   1      15.840  15.821  31.640  0.00  0.00     0.029 H 
ATOM     30  H19 K02 d   1      15.520  14.843  30.168  0.00  0.00     0.029 H 
ENDBRANCH  24  27
ENDBRANCH  23  24
BRANCH  23  31
ATOM     31  C18 K02 d   1      18.373  16.917  30.881  0.00  0.00    -0.005 C 
ATOM     32  H20 K02 d   1      19.352  16.419  30.828  0.00  0.00     0.063 H 
ATOM     33  H21 K02 d   1      17.865  16.629  31.813  0.00  0.00     0.063 H 
BRANCH  31  34
ATOM     34  C19 K02 d   1      18.569  18.397  30.862  0.00  0.00    -0.061 C 
ATOM     35  H22 K02 d   1      19.182  18.697  31.725  0.00  0.00     0.029 H 
ATOM     36  H23 K02 d   1      17.591  18.897  30.916  0.00  0.00     0.029 H 
ATOM     37  H24 K02 d   1      19.079  18.688  29.931  0.00  0.00     0.029 H 
ENDBRANCH  31  34
ENDBRANCH  23  31
ENDBRANCH  12  21
BRANCH   2  38
ATOM     38  C14 K02 d   1      18.166  13.083  32.777  0.00  0.00     0.072 A 
ATOM     39  S2  K02 d   1      18.523  13.181  34.463  0.00  0.00    -0.097 SA
ATOM     40  C15 K02 d   1      17.129  12.370  35.006  0.00  0.00    -0.044 A 
ATOM     41  C16 K02 d   1      16.448  11.985  33.853  0.00  0.00    -0.075 A 
ATOM     42  H1  K02 d   1      16.832  12.190  36.038  0.00  0.00     0.095 H 
ATOM     43  C17 K02 d   1      17.016  12.347  32.640  0.00  0.00    -0.060 A 
ATOM     44  H2  K02 d   1      15.514  11.427  33.902  0.00  0.00     0.084 H 
ATOM     45  H3  K02 d   1      16.591  12.074  31.675  0.00  0.00     0.085 H 
ENDBRANCH   2  38
BRANCH   9  46
ATOM     46  C10 K02 d   1      21.564  17.683  24.963  0.00  0.00    -0.073 C 
ATOM     47  H8  K02 d   1      22.539  18.014  24.575  0.00  0.00     0.028 H 
ATOM     48  H9  K02 d   1      20.900  18.553  25.076  0.00  0.00     0.028 H 
ATOM     49  H10 K02 d   1      21.113  16.967  24.261  0.00  0.00     0.028 H 
ENDBRANCH   9  46
TORSDOF 7
