REMARK  9 active torsions:
REMARK  status: ('A' for Active; 'I' for Inactive)
REMARK    1  A    between atoms: C11_2  and  C13_3 
REMARK       I    between atoms: C11_2  and  N10_8 
REMARK    2  A    between atoms: N10_8  and  C9_9 
REMARK    3  A    between atoms: C22_14  and  C24_15 
REMARK    4  A    between atoms: C22_14  and  C23_16 
REMARK    5  A    between atoms: C8_19  and  C6_20 
REMARK       I    between atoms: C6_20  and  N3_22 
REMARK    6  A    between atoms: N3_22  and  C4_23 
REMARK    7  A    between atoms: N3_22  and  C2_25 
REMARK    8  A    between atoms: C4_23  and  C5_24 
REMARK    9  A    between atoms: C2_25  and  C1_26 
ROOT
ATOM      1  C9  K03 d   1      28.451  14.357  12.941  0.00  0.00     0.093 A 
ATOM      2  S18 K03 d   1      28.358  13.667  11.306  0.00  0.00    -0.075 SA
ATOM      3  C19 K03 d   1      27.037  14.793  10.901  0.00  0.00    -0.008 A 
ATOM      4  C26 K03 d   1      26.719  15.632  11.971  0.00  0.00    -0.026 A 
ATOM      5  C25 K03 d   1      25.625  16.667  11.797  0.00  0.00    -0.033 C 
ATOM      6  C22 K03 d   1      25.264  16.891  10.304  0.00  0.00    -0.043 C 
ATOM      7  C21 K03 d   1      25.139  15.568   9.521  0.00  0.00    -0.054 C 
ATOM      8  C20 K03 d   1      26.438  14.730   9.516  0.00  0.00    -0.034 C 
ATOM      9  C8  K03 d   1      27.533  15.393  13.120  0.00  0.00     0.073 A 
ATOM     10  H5  K03 d   1      25.967  17.620  12.226  0.00  0.00     0.041 H 
ATOM     11  H6  K03 d   1      24.726  16.326  12.332  0.00  0.00     0.041 H 
ATOM     12  H13 K03 d   1      24.872  15.803   8.480  0.00  0.00     0.034 H 
ATOM     13  H14 K03 d   1      24.339  14.967   9.978  0.00  0.00     0.034 H 
ATOM     14  H15 K03 d   1      26.208  13.686   9.255  0.00  0.00     0.041 H 
ATOM     15  H16 K03 d   1      27.147  15.143   8.783  0.00  0.00     0.041 H 
ENDROOT
BRANCH   9  16
ATOM     16  C6  K03 d   1      27.397  16.132  14.427  0.00  0.00     0.257 C 
ATOM     17  O7  K03 d   1      26.336  16.016  15.030  0.00  0.00    -0.267 OA
ATOM     18  N3  K03 d   1      28.366  16.855  15.008  0.00  0.00    -0.349 N 
BRANCH  18  19
ATOM     19  C4  K03 d   1      29.647  17.203  14.403  0.00  0.00    -0.005 C 
ATOM     20  H17 K03 d   1      29.863  16.502  13.583  0.00  0.00     0.063 H 
ATOM     21  H18 K03 d   1      30.438  17.133  15.164  0.00  0.00     0.063 H 
BRANCH  19  22
ATOM     22  C5  K03 d   1      29.606  18.612  13.856  0.00  0.00    -0.061 C 
ATOM     23  H19 K03 d   1      30.578  18.858  13.404  0.00  0.00     0.029 H 
ATOM     24  H20 K03 d   1      29.393  19.317  14.673  0.00  0.00     0.029 H 
ATOM     25  H21 K03 d   1      28.817  18.686  13.093  0.00  0.00     0.029 H 
ENDBRANCH  19  22
ENDBRANCH  18  19
BRANCH  18  26
ATOM     26  C2  K03 d   1      28.152  17.322  16.385  0.00  0.00    -0.005 C 
ATOM     27  H22 K03 d   1      27.240  16.847  16.775  0.00  0.00     0.063 H 
ATOM     28  H23 K03 d   1      28.017  18.413  16.365  0.00  0.00     0.063 H 
BRANCH  26  29
ATOM     29  C1  K03 d   1      29.296  16.999  17.319  0.00  0.00    -0.061 C 
ATOM     30  H24 K03 d   1      29.065  17.377  18.326  0.00  0.00     0.029 H 
ATOM     31  H25 K03 d   1      30.216  17.476  16.950  0.00  0.00     0.029 H 
ATOM     32  H26 K03 d   1      29.439  15.909  17.361  0.00  0.00     0.029 H 
ENDBRANCH  26  29
ENDBRANCH  18  26
ENDBRANCH   9  16
BRANCH   1  33
ATOM     33  N10 K03 d   1      29.348  13.936  13.889  0.00  0.00    -0.316 N 
ATOM     34  C11 K03 d   1      30.670  13.894  13.645  0.00  0.00     0.263 C 
ATOM     35  O12 K03 d   1      31.139  14.327  12.618  0.00  0.00    -0.267 OA
ATOM     36  H4  K03 d   1      29.010  13.652  14.786  0.00  0.00     0.169 HD
BRANCH  34  37
ATOM     37  C13 K03 d   1      31.581  13.295  14.672  0.00  0.00     0.072 A 
ATOM     38  S17 K03 d   1      33.359  13.487  14.500  0.00  0.00    -0.097 SA
ATOM     39  C16 K03 d   1      33.698  12.587  15.998  0.00  0.00    -0.044 A 
ATOM     40  C15 K03 d   1      32.464  12.205  16.528  0.00  0.00    -0.075 A 
ATOM     41  H1  K03 d   1      34.679  12.375  16.420  0.00  0.00     0.095 H 
ATOM     42  C14 K03 d   1      31.311  12.574  15.826  0.00  0.00    -0.060 A 
ATOM     43  H2  K03 d   1      32.401  11.639  17.456  0.00  0.00     0.084 H 
ATOM     44  H3  K03 d   1      30.303  12.321  16.153  0.00  0.00     0.085 H 
ENDBRANCH  34  37
ENDBRANCH   1  33
BRANCH   6  45
ATOM     45  C24 K03 d   1      26.290  17.795   9.627  0.00  0.00    -0.069 C 
ATOM     46  H7  K03 d   1      26.013  17.938   8.572  0.00  0.00     0.028 H 
ATOM     47  H8  K03 d   1      27.285  17.328   9.685  0.00  0.00     0.028 H 
ATOM     48  H9  K03 d   1      26.312  18.770  10.136  0.00  0.00     0.028 H 
ENDBRANCH   6  45
BRANCH   6  49
ATOM     49  C23 K03 d   1      23.957  17.656  10.287  0.00  0.00    -0.069 C 
ATOM     50  H10 K03 d   1      23.172  17.052  10.765  0.00  0.00     0.028 H 
ATOM     51  H11 K03 d   1      23.672  17.871   9.247  0.00  0.00     0.028 H 
ATOM     52  H12 K03 d   1      24.078  18.601  10.837  0.00  0.00     0.028 H 
ENDBRANCH   6  49
TORSDOF 9
