REMARK  5 active torsions:
REMARK  status: ('A' for Active; 'I' for Inactive)
REMARK    1  A    between atoms: C11_1  and  C10_4 
REMARK    2  A    between atoms: C10_4  and  C9_5 
REMARK    3  A    between atoms: C9_5  and  C8_6 
REMARK    4  A    between atoms: C8_6  and  C7_7 
REMARK    5  A    between atoms: C7_7  and  C2_8 
ROOT
ATOM      1  C2  BTN d   1       8.279  33.181  60.507  0.00  0.00     0.012 C 
ATOM      2  S1  BTN d   1       7.653  31.678  60.019  0.00  0.00    -0.160 SA
ATOM      3  C6  BTN d   1       8.253  31.972  58.337  0.00  0.00    -0.002 C 
ATOM      4  C5  BTN d   1       9.614  32.644  58.505  0.00  0.00     0.041 A 
ATOM      5  N1  BTN d   1      10.633  31.632  58.534  0.00  0.00    -0.347 N 
ATOM      6  C3  BTN d   1      11.253  31.621  59.722  0.00  0.00     0.248 A 
ATOM      7  O3  BTN d   1      12.274  30.713  60.005  0.00  0.00    -0.152 OA
ATOM      8  N2  BTN d   1      10.748  32.518  60.549  0.00  0.00    -0.347 N 
ATOM      9  C4  BTN d   1       9.683  33.283  59.882  0.00  0.00     0.045 A 
ATOM     10  H9  BTN d   1       7.649  33.970  60.071  0.00  0.00     0.059 H 
ATOM     11  H10 BTN d   1       7.562  32.632  57.792  0.00  0.00     0.052 H 
ATOM     12  H11 BTN d   1       8.357  31.021  57.794  0.00  0.00     0.052 H 
ATOM     13  H12 BTN d   1       9.790  33.378  57.705  0.00  0.00     0.076 H 
ATOM     14  H13 BTN d   1      10.850  31.020  57.773  0.00  0.00     0.163 HD
ATOM     15  H14 BTN d   1      11.047  32.657  61.493  0.00  0.00     0.163 HD
ATOM     16  H15 BTN d   1       9.970  34.343  59.822  0.00  0.00     0.077 H 
ENDROOT
BRANCH   1  17
ATOM     17  C7  BTN d   1       8.279  33.405  62.023  0.00  0.00    -0.051 C 
ATOM     18  H7  BTN d   1       8.766  32.540  62.496  0.00  0.00     0.034 H 
ATOM     19  H8  BTN d   1       8.861  34.314  62.234  0.00  0.00     0.034 H 
BRANCH  17  20
ATOM     20  C8  BTN d   1       6.903  33.570  62.644  0.00  0.00    -0.063 C 
ATOM     21  H5  BTN d   1       6.457  34.504  62.271  0.00  0.00     0.033 H 
ATOM     22  H6  BTN d   1       6.276  32.718  62.343  0.00  0.00     0.033 H 
BRANCH  20  23
ATOM     23  C9  BTN d   1       6.952  33.627  64.185  0.00  0.00    -0.056 C 
ATOM     24  H3  BTN d   1       7.388  32.691  64.562  0.00  0.00     0.033 H 
ATOM     25  H4  BTN d   1       7.583  34.475  64.490  0.00  0.00     0.033 H 
BRANCH  23  26
ATOM     26  C10 BTN d   1       5.562  33.803  64.788  0.00  0.00     0.016 C 
ATOM     27  H1  BTN d   1       4.844  33.297  64.127  0.00  0.00     0.049 H 
ATOM     28  H2  BTN d   1       5.560  33.315  65.774  0.00  0.00     0.049 H 
BRANCH  26  29
ATOM     29  C11 BTN d   1       5.087  35.229  64.979  0.00  0.00     0.172 C 
ATOM     30  O11 BTN d   1       3.913  35.461  65.369  0.00  0.00    -0.648 OA
ATOM     31  O12 BTN d   1       5.866  36.203  64.792  0.00  0.00    -0.648 OA
ENDBRANCH  26  29
ENDBRANCH  23  26
ENDBRANCH  20  23
ENDBRANCH  17  20
ENDBRANCH   1  17
TORSDOF 5
