REMARK  28 active torsions:
REMARK  status: ('A' for Active; 'I' for Inactive)
REMARK    1  A    between atoms: N_1  and  CA_2 
REMARK    2  A    between atoms: CA_2  and  C_3 
REMARK       I    between atoms: C_3  and  N_5 
REMARK    3  A    between atoms: N_5  and  CA_6 
REMARK    4  A    between atoms: CA_18  and  CB_21 
REMARK    5  A    between atoms: CB_21  and  OG_22 
REMARK    6  A    between atoms: CA_24  and  CB_27 
REMARK    7  A    between atoms: CB_27  and  CG_28 
REMARK    8  A    between atoms: CG_28  and  CD_29 
REMARK    9  A    between atoms: CD_29  and  NE_30 
REMARK       I    between atoms: NE_30  and  CZ_31 
REMARK       I    between atoms: CZ_31  and  NH1_32 
REMARK   10  A    between atoms: CA_55  and  CB_58 
REMARK   11  A    between atoms: CB_58  and  CG1_59 
REMARK   12  A    between atoms: CB_58  and  CG2_60 
REMARK   13  A    between atoms: CG1_59  and  CD1_61 
REMARK   14  A    between atoms: CA_63  and  CB_66 
REMARK   15  A    between atoms: CB_66  and  CG_67 
REMARK   16  A    between atoms: CG_67  and  CD1_68 
REMARK   17  A    between atoms: CG_67  and  CD2_69 
REMARK   18  A    between atoms: CA_71  and  CB_74 
REMARK   19  A    between atoms: CB_74  and  CG_75 
REMARK       I    between atoms: CG_75  and  ND2_77 
REMARK   20  A    between atoms: CA_79  and  CB_82 
REMARK   21  A    between atoms: CB_82  and  CG_83 
REMARK       I    between atoms: CG_83  and  ND2_85 
REMARK   22  A    between atoms: CA_94  and  CB_97 
REMARK   23  A    between atoms: CB_97  and  CG_98 
REMARK   24  A    between atoms: CA_102  and  CB_105 
REMARK   25  A    between atoms: CB_105  and  CG_106 
REMARK   26  A    between atoms: CG_106  and  CD1_107 
REMARK   27  A    between atoms: CG_106  and  CD2_108 
REMARK   28  A    between atoms: CA_110  and  C_111 
REMARK       I    between atoms: C_111  and  N_115 
ROOT
ATOM      1  CA  CYS d   1      56.153  35.870  92.580  0.00  0.00     0.098 C 
ATOM      2  C   CYS d   1      56.810  36.574  93.760  0.00  0.00     0.242 C 
ATOM      3  O   CYS d   1      57.582  35.973  94.508  0.00  0.00    -0.271 OA
ATOM      4  CB  CYS d   1      56.742  36.414  91.278  0.00  0.00     0.013 C 
ATOM      5  SG  CYS d   1      58.553  36.479  91.271  0.00  0.00    -0.095 SA
ATOM      6  N   CYS d   1      56.473  37.850  93.921  0.00  0.00    -0.345 N 
ATOM      7  CA  CYS d   1      57.034  38.691  94.973  0.00  0.00     0.098 C 
ATOM      8  C   CYS d   1      56.579  38.300  96.379  0.00  0.00     0.242 C 
ATOM      9  O   CYS d   1      56.993  38.919  97.362  0.00  0.00    -0.271 OA
ATOM     10  CB  CYS d   1      56.723  40.162  94.689  0.00  0.00     0.013 C 
ATOM     11  SG  CYS d   1      57.232  40.712  93.041  0.00  0.00    -0.095 SA
ATOM     12  N   CYS d   1      61.456  33.272  94.275  0.00  0.00    -0.345 N 
ATOM     13  CA  CYS d   1      61.090  34.049  93.094  0.00  0.00     0.098 C 
ATOM     14  C   CYS d   1      61.680  35.453  93.156  0.00  0.00     0.242 C 
ATOM     15  O   CYS d   1      62.034  36.028  92.123  0.00  0.00    -0.271 OA
ATOM     16  CB  CYS d   1      59.575  34.110  92.907  0.00  0.00     0.013 C 
ATOM     17  SG  CYS d   1      59.096  34.528  91.212  0.00  0.00    -0.095 SA
ATOM     18  N   CYS d   1      60.467  42.558  90.277  0.00  0.00    -0.345 N 
ATOM     19  CA  CYS d   1      59.492  42.590  91.375  0.00  0.00     0.098 C 
ATOM     20  CB  CYS d   1      59.989  41.849  92.625  0.00  0.00     0.013 C 
ATOM     21  SG  CYS d   1      59.210  40.235  92.909  0.00  0.00    -0.095 SA
ATOM     22  H7  CYS d   1      56.377  34.795  92.646  0.00  0.00     0.088 H 
ATOM     23  H8  CYS d   1      56.357  37.432  91.121  0.00  0.00     0.053 H 
ATOM     24  H9  CYS d   1      56.414  35.767  90.451  0.00  0.00     0.053 H 
ATOM     25  H10 CYS d   1      55.806  38.251  93.293  0.00  0.00     0.163 HD
ATOM     26  H11 CYS d   1      58.127  38.567  94.941  0.00  0.00     0.088 H 
ATOM     27  H12 CYS d   1      57.245  40.777  95.436  0.00  0.00     0.053 H 
ATOM     28  H13 CYS d   1      55.637  40.312  94.784  0.00  0.00     0.053 H 
ATOM     29  H46 CYS d   1      60.786  33.138  95.005  0.00  0.00     0.163 HD
ATOM     30  H47 CYS d   1      61.516  33.542  92.216  0.00  0.00     0.088 H 
ATOM     31  H48 CYS d   1      59.167  34.873  93.586  0.00  0.00     0.053 H 
ATOM     32  H49 CYS d   1      59.149  33.128  93.161  0.00  0.00     0.053 H 
ATOM     33 6H10 CYS d   1      61.402  42.858  90.465  0.00  0.00     0.163 HD
ATOM     34 7H10 CYS d   1      58.594  42.064  91.019  0.00  0.00     0.088 H 
ATOM     35 8H10 CYS d   1      59.791  42.484  93.501  0.00  0.00     0.053 H 
ATOM     36 9H10 CYS d   1      61.073  41.693  92.523  0.00  0.00     0.053 H 
ATOM     37  N   SER d   1      55.730  37.278  96.472  0.00  0.00    -0.344 N 
ATOM     38  CA  SER d   1      55.282  36.794  97.772  0.00  0.00     0.109 C 
ATOM     39  C   SER d   1      56.047  35.537  98.191  0.00  0.00     0.243 C 
ATOM     40  O   SER d   1      55.698  34.893  99.184  0.00  0.00    -0.271 OA
ATOM     41  H14 SER d   1      55.395  36.837  95.639  0.00  0.00     0.163 HD
ATOM     42  H15 SER d   1      55.516  37.578  98.507  0.00  0.00     0.090 H 
ATOM     43  N   ARG d   1      57.086  35.186  97.433  0.00  0.00    -0.346 N 
ATOM     44  CA  ARG d   1      57.909  34.030  97.785  0.00  0.00     0.089 C 
ATOM     45  C   ARG d   1      59.406  34.233  97.537  0.00  0.00     0.243 C 
ATOM     46  O   ARG d   1      59.812  34.669  96.459  0.00  0.00    -0.271 OA
ATOM     47  H19 ARG d   1      57.305  35.719  96.615  0.00  0.00     0.163 HD
ATOM     48  H20 ARG d   1      57.801  33.911  98.873  0.00  0.00     0.087 H 
ATOM     49  N   PRO d   1      60.224  33.904  98.553  0.00  0.00    -0.337 N 
ATOM     50  CA  PRO d   1      61.680  34.045  98.573  0.00  0.00     0.092 C 
ATOM     51  C   PRO d   1      62.442  33.563  97.322  0.00  0.00     0.243 C 
ATOM     52  O   PRO d   1      63.262  34.326  96.807  0.00  0.00    -0.271 OA
ATOM     53  CB  PRO d   1      62.090  33.249  99.816  0.00  0.00    -0.036 C 
ATOM     54  CG  PRO d   1      60.919  33.344 100.697  0.00  0.00    -0.048 C 
ATOM     55  CD  PRO d   1      59.721  33.339  99.820  0.00  0.00    -0.001 C 
ATOM     56  N   PRO d   1      62.186  32.327  96.829  0.00  0.00    -0.337 N 
ATOM     57  CA  PRO d   1      62.974  31.933  95.657  0.00  0.00     0.091 C 
ATOM     58  C   PRO d   1      62.672  32.739  94.391  0.00  0.00     0.241 C 
ATOM     59  O   PRO d   1      63.548  32.874  93.536  0.00  0.00    -0.271 OA
ATOM     60  CB  PRO d   1      62.605  30.459  95.460  0.00  0.00    -0.036 C 
ATOM     61  CG  PRO d   1      61.273  30.317  96.075  0.00  0.00    -0.048 C 
ATOM     62  CD  PRO d   1      61.259  31.254  97.241  0.00  0.00    -0.001 C 
ATOM     63  N   PRO d   1      64.695  40.195  91.043  0.00  0.00    -0.337 N 
ATOM     64  CA  PRO d   1      64.907  41.358  91.919  0.00  0.00     0.091 C 
ATOM     65  C   PRO d   1      64.205  42.622  91.432  0.00  0.00     0.241 C 
ATOM     66  O   PRO d   1      63.303  43.136  92.100  0.00  0.00    -0.271 OA
ATOM     67  CB  PRO d   1      66.425  41.569  91.861  0.00  0.00    -0.036 C 
ATOM     68  CG  PRO d   1      66.885  40.834  90.635  0.00  0.00    -0.048 C 
ATOM     69  CD  PRO d   1      65.974  39.664  90.532  0.00  0.00    -0.001 C 
ATOM     70  H32 PRO d   1      61.928  35.107  98.713  0.00  0.00     0.087 H 
ATOM     71  H33 PRO d   1      62.975  33.695 100.292  0.00  0.00     0.036 H 
ATOM     72  H34 PRO d   1      62.302  32.201  99.558  0.00  0.00     0.036 H 
ATOM     73  H35 PRO d   1      60.958  34.276 101.279  0.00  0.00     0.035 H 
ATOM     74  H36 PRO d   1      60.890  32.484 101.382  0.00  0.00     0.035 H 
ATOM     75  H37 PRO d   1      59.345  32.316  99.673  0.00  0.00     0.064 H 
ATOM     76  H38 PRO d   1      58.922  33.967 100.241  0.00  0.00     0.064 H 
ATOM     77  H39 PRO d   1      64.046  32.034  95.882  0.00  0.00     0.087 H 
ATOM     78  H40 PRO d   1      63.335  29.807  95.962  0.00  0.00     0.036 H 
ATOM     79  H41 PRO d   1      62.566  30.209  94.389  0.00  0.00     0.036 H 
ATOM     80  H42 PRO d   1      61.116  29.282  96.414  0.00  0.00     0.035 H 
ATOM     81  H43 PRO d   1      60.488  30.590  95.355  0.00  0.00     0.035 H 
ATOM     82  H44 PRO d   1      60.248  31.652  97.414  0.00  0.00     0.064 H 
ATOM     83  H45 PRO d   1      61.617  30.753  98.153  0.00  0.00     0.064 H 
ATOM     84  H84 PRO d   1      64.575  41.132  92.943  0.00  0.00     0.087 H 
ATOM     85  H85 PRO d   1      66.905  41.156  92.760  0.00  0.00     0.036 H 
ATOM     86  H86 PRO d   1      66.662  42.640  91.778  0.00  0.00     0.036 H 
ATOM     87  H87 PRO d   1      67.928  40.504  90.749  0.00  0.00     0.035 H 
ATOM     88  H88 PRO d   1      66.798  41.473  89.744  0.00  0.00     0.035 H 
ATOM     89  H89 PRO d   1      65.875  39.330  89.489  0.00  0.00     0.064 H 
ATOM     90  H90 PRO d   1      66.331  38.829  91.152  0.00  0.00     0.064 H 
ATOM     91  N   ILE d   1      61.779  35.996  94.370  0.00  0.00    -0.346 N 
ATOM     92  CA  ILE d   1      62.358  37.319  94.591  0.00  0.00     0.092 C 
ATOM     93  C   ILE d   1      63.863  37.278  94.260  0.00  0.00     0.241 C 
ATOM     94  O   ILE d   1      64.389  38.224  93.670  0.00  0.00    -0.271 OA
ATOM     95  H50 ILE d   1      61.445  35.479  95.158  0.00  0.00     0.163 HD
ATOM     96  H51 ILE d   1      61.884  38.013  93.882  0.00  0.00     0.088 H 
ATOM     97  N   LEU d   1      64.539  36.179  94.613  0.00  0.00    -0.346 N 
ATOM     98  CA  LEU d   1      65.961  36.001  94.270  0.00  0.00     0.089 C 
ATOM     99  C   LEU d   1      66.210  35.951  92.771  0.00  0.00     0.241 C 
ATOM    100  O   LEU d   1      67.259  36.392  92.298  0.00  0.00    -0.271 OA
ATOM    101  N   LEU d   1      62.552  42.741  88.586  0.00  0.00    -0.346 N 
ATOM    102  CA  LEU d   1      61.295  42.281  87.993  0.00  0.00     0.089 C 
ATOM    103  C   LEU d   1      60.170  42.149  89.041  0.00  0.00     0.241 C 
ATOM    104  O   LEU d   1      59.069  41.683  88.729  0.00  0.00    -0.271 OA
ATOM    105  H61 LEU d   1      64.067  35.460  95.123  0.00  0.00     0.163 HD
ATOM    106  H62 LEU d   1      66.504  36.865  94.681  0.00  0.00     0.087 H 
ATOM    107  H95 LEU d   1      63.317  42.100  88.648  0.00  0.00     0.163 HD
ATOM    108  H96 LEU d   1      60.974  43.048  87.272  0.00  0.00     0.087 H 
ATOM    109  N   ASN d   1      65.254  35.383  92.041  0.00  0.00    -0.346 N 
ATOM    110  CA  ASN d   1      65.343  35.242  90.591  0.00  0.00     0.097 C 
ATOM    111  C   ASN d   1      64.840  36.447  89.809  0.00  0.00     0.241 C 
ATOM    112  O   ASN d   1      65.179  36.620  88.636  0.00  0.00    -0.271 OA
ATOM    113  N   ASN d   1      64.035  37.276  90.466  0.00  0.00    -0.346 N 
ATOM    114  CA  ASN d   1      63.454  38.451  89.829  0.00  0.00     0.097 C 
ATOM    115  C   ASN d   1      63.481  39.685  90.740  0.00  0.00     0.243 C 
ATOM    116  O   ASN d   1      62.428  40.171  91.161  0.00  0.00    -0.271 OA
ATOM    117  H72 ASN d   1      64.439  35.038  92.506  0.00  0.00     0.163 HD
ATOM    118  H73 ASN d   1      66.407  35.115  90.343  0.00  0.00     0.088 H 
ATOM    119  H78 ASN d   1      63.822  37.088  91.425  0.00  0.00     0.163 HD
ATOM    120  H79 ASN d   1      64.055  38.686  88.939  0.00  0.00     0.088 H 
ATOM    121  N   ASP d   1      64.647  43.112  90.279  0.00  0.00    -0.346 N 
ATOM    122  CA  ASP d   1      64.085  44.291  89.639  0.00  0.00     0.098 C 
ATOM    123  C   ASP d   1      62.716  43.981  89.046  0.00  0.00     0.241 C 
ATOM    124  O   ASP d   1      61.824  44.834  89.033  0.00  0.00    -0.271 OA
ATOM    125  H91 ASP d   1      65.407  42.645  89.827  0.00  0.00     0.163 HD
ATOM    126  H92 ASP d   1      63.954  45.070  90.404  0.00  0.00     0.088 H 
ENDROOT
BRANCH  44 127
ATOM    127  CB  ARG d   1      57.392  32.722  97.165  0.00  0.00    -0.036 C 
ATOM    128  H21 ARG d   1      56.334  32.614  97.448  0.00  0.00     0.036 H 
ATOM    129  H22 ARG d   1      57.974  31.895  97.598  0.00  0.00     0.036 H 
BRANCH 127 130
ATOM    130  CG  ARG d   1      57.478  32.603  95.660  0.00  0.00    -0.048 C 
ATOM    131  H23 ARG d   1      58.523  32.742  95.346  0.00  0.00     0.035 H 
ATOM    132  H24 ARG d   1      56.851  33.381  95.200  0.00  0.00     0.035 H 
BRANCH 130 133
ATOM    133  CD  ARG d   1      56.995  31.233  95.197  0.00  0.00     0.009 C 
ATOM    134  H25 ARG d   1      57.512  30.461  95.785  0.00  0.00     0.064 H 
ATOM    135  H26 ARG d   1      57.247  31.113  94.133  0.00  0.00     0.064 H 
BRANCH 133 136
ATOM    136  NE  ARG d   1      55.550  31.055  95.359  0.00  0.00    -0.227 N 
ATOM    137  CZ  ARG d   1      54.958  30.453  96.389  0.00  0.00     0.665 C 
ATOM    138  NH1 ARG d   1      55.674  29.941  97.380  0.00  0.00    -0.235 N 
ATOM    139  NH2 ARG d   1      53.636  30.356  96.423  0.00  0.00    -0.235 N 
ATOM    140  H28 ARG d   1      55.203  29.478  98.170  0.00  0.00     0.174 HD
ATOM    141  H29 ARG d   1      56.702  30.006  97.360  0.00  0.00     0.174 HD
ATOM    142  H30 ARG d   1      53.071  30.751  95.658  0.00  0.00     0.174 HD
ATOM    143  H31 ARG d   1      53.174  29.886  97.215  0.00  0.00     0.174 HD
ATOM    144  H27 ARG d   1      54.942  31.426  94.615  0.00  0.00     0.177 HD
ENDBRANCH 133 136
ENDBRANCH 130 133
ENDBRANCH 127 130
ENDBRANCH  44 127
BRANCH  38 145
ATOM    145  CB  SER d   1      53.760  36.574  97.817  0.00  0.00     0.044 C 
ATOM    146  H16 SER d   1      53.263  37.444  97.362  0.00  0.00     0.077 H 
ATOM    147  H17 SER d   1      53.447  36.480  98.867  0.00  0.00     0.077 H 
BRANCH 145 148
ATOM    148  OG  SER d   1      53.366  35.407  97.118  0.00  0.00    -0.398 OA
ATOM    149  H18 SER d   1      53.627  35.481  96.207  0.00  0.00     0.209 HD
ENDBRANCH 145 148
ENDBRANCH  38 145
BRANCH   1 150
ATOM    150  N   CYS d   1      54.700  36.037  92.598  0.00  0.00    -0.346 N 
ATOM    151  C   GLY d   1      53.971  35.775  93.682  0.00  0.00     0.243 C 
ATOM    152  O   GLY d   1      54.452  35.351  94.734  0.00  0.00    -0.272 OA
ATOM    153  H6  CYS d   1      54.239  36.358  91.771  0.00  0.00     0.163 HD
BRANCH 151 154
ATOM    154  CA  GLY d   1      52.480  36.014  93.559  0.00  0.00     0.152 C 
ATOM    155  H4  GLY d   1      52.290  37.097  93.599  0.00  0.00     0.090 H 
ATOM    156  H5  GLY d   1      52.136  35.616  92.593  0.00  0.00     0.090 H 
BRANCH 154 157
ATOM    157  N   GLY d   1      51.713  35.351  94.653  0.00  0.00    -0.071 N 
ATOM    158  H1  GLY d   1      50.729  35.535  94.533  0.00  0.00     0.274 HD
ATOM    159  H2  GLY d   1      52.016  35.713  95.543  0.00  0.00     0.274 HD
ATOM    160  H3  GLY d   1      51.875  34.357  94.622  0.00  0.00     0.274 HD
ENDBRANCH 154 157
ENDBRANCH 151 154
ENDBRANCH   1 150
BRANCH  19 161
ATOM    161  C   CYS d   1      59.073  44.009  91.736  0.00  0.00     0.239 C 
ATOM    162  O   CYS d   1      57.871  44.184  91.493  0.00  0.00    -0.271 OA
ATOM    163  N   NH2 d   1      59.568  44.826  92.610  0.00  0.00    -0.368 N 
ATOM    164 0H11 NH2 d   1      59.170  45.736  92.725  0.00  0.00     0.159 HD
ATOM    165 1H11 NH2 d   1      60.348  44.547  93.170  0.00  0.00     0.159 HD
ENDBRANCH  19 161
BRANCH  92 166
ATOM    166  CB  ILE d   1      62.058  37.860  96.023  0.00  0.00    -0.030 C 
ATOM    167  H52 ILE d   1      62.561  37.211  96.755  0.00  0.00     0.043 H 
BRANCH 166 168
ATOM    168  CG1 ILE d   1      60.545  37.830  96.293  0.00  0.00    -0.063 C 
ATOM    169  H53 ILE d   1      60.178  36.816  96.076  0.00  0.00     0.033 H 
ATOM    170  H54 ILE d   1      60.062  38.547  95.614  0.00  0.00     0.033 H 
BRANCH 168 171
ATOM    171  CD1 ILE d   1      60.146  38.183  97.715  0.00  0.00    -0.076 C 
ATOM    172  H58 ILE d   1      59.051  38.135  97.811  0.00  0.00     0.027 H 
ATOM    173  H59 ILE d   1      60.490  39.201  97.951  0.00  0.00     0.027 H 
ATOM    174  H60 ILE d   1      60.607  37.469  98.413  0.00  0.00     0.027 H 
ENDBRANCH 168 171
ENDBRANCH 166 168
BRANCH 166 175
ATOM    175  CG2 ILE d   1      62.590  39.291  96.191  0.00  0.00    -0.071 C 
ATOM    176  H55 ILE d   1      63.673  39.305  95.996  0.00  0.00     0.028 H 
ATOM    177  H56 ILE d   1      62.398  39.636  97.218  0.00  0.00     0.028 H 
ATOM    178  H57 ILE d   1      62.081  39.957  95.479  0.00  0.00     0.028 H 
ENDBRANCH 166 175
ENDBRANCH  92 166
BRANCH 102 179
ATOM    179  CB  LEU d   1      61.511  40.976  87.206  0.00  0.00    -0.035 C 
ATOM    180  H97 LEU d   1      60.576  40.760  86.668  0.00  0.00     0.037 H 
ATOM    181  H98 LEU d   1      61.704  40.180  87.940  0.00  0.00     0.037 H 
BRANCH 179 182
ATOM    182  CG  LEU d   1      62.655  40.932  86.172  0.00  0.00    -0.059 C 
ATOM    183  H99 LEU d   1      63.600  41.070  86.718  0.00  0.00     0.038 H 
BRANCH 182 184
ATOM    184  CD1 LEU d   1      62.706  39.579  85.476  0.00  0.00    -0.073 C 
ATOM    185 0H10 LEU d   1      63.528  39.573  84.745  0.00  0.00     0.028 H 
ATOM    186 1H10 LEU d   1      61.753  39.397  84.957  0.00  0.00     0.028 H 
ATOM    187 2H10 LEU d   1      62.873  38.789  86.222  0.00  0.00     0.028 H 
ENDBRANCH 182 184
BRANCH 182 188
ATOM    188  CD2 LEU d   1      62.552  42.053  85.129  0.00  0.00    -0.073 C 
ATOM    189 3H10 LEU d   1      62.516  43.027  85.640  0.00  0.00     0.028 H 
ATOM    190 4H10 LEU d   1      61.637  41.917  84.534  0.00  0.00     0.028 H 
ATOM    191 5H10 LEU d   1      63.429  42.019  84.466  0.00  0.00     0.028 H 
ENDBRANCH 182 188
ENDBRANCH 179 182
ENDBRANCH 102 179
BRANCH  98 192
ATOM    192  CB  LEU d   1      66.564  34.726  94.869  0.00  0.00    -0.035 C 
ATOM    193  H63 LEU d   1      67.320  34.380  94.149  0.00  0.00     0.037 H 
ATOM    194  H64 LEU d   1      65.743  33.995  94.918  0.00  0.00     0.037 H 
BRANCH 192 195
ATOM    195  CG  LEU d   1      67.239  34.696  96.238  0.00  0.00    -0.059 C 
ATOM    196  H65 LEU d   1      66.469  34.684  97.024  0.00  0.00     0.038 H 
BRANCH 195 197
ATOM    197  CD1 LEU d   1      68.069  33.434  96.314  0.00  0.00    -0.073 C 
ATOM    198  H66 LEU d   1      68.570  33.383  97.292  0.00  0.00     0.028 H 
ATOM    199  H67 LEU d   1      68.825  33.444  95.515  0.00  0.00     0.028 H 
ATOM    200  H68 LEU d   1      67.416  32.558  96.190  0.00  0.00     0.028 H 
ENDBRANCH 195 197
BRANCH 195 201
ATOM    201  CD2 LEU d   1      68.143  35.909  96.445  0.00  0.00    -0.073 C 
ATOM    202  H69 LEU d   1      67.541  36.828  96.390  0.00  0.00     0.028 H 
ATOM    203  H70 LEU d   1      68.915  35.929  95.662  0.00  0.00     0.028 H 
ATOM    204  H71 LEU d   1      68.624  35.844  97.432  0.00  0.00     0.028 H 
ENDBRANCH 195 201
ENDBRANCH 192 195
ENDBRANCH  98 192
BRANCH 122 205
ATOM    205  CB  ASP d   1      65.057  44.824  88.577  0.00  0.00     0.043 C 
ATOM    206  H93 ASP d   1      65.828  45.428  89.078  0.00  0.00     0.052 H 
ATOM    207  H94 ASP d   1      64.496  45.457  87.874  0.00  0.00     0.052 H 
BRANCH 205 208
ATOM    208  CG  ASP d   1      65.747  43.710  87.787  0.00  0.00     0.175 C 
ATOM    209  OD1 ASP d   1      65.219  42.575  87.724  0.00  0.00    -0.648 OA
ATOM    210  OD2 ASP d   1      66.826  43.978  87.221  0.00  0.00    -0.648 OA
ENDBRANCH 205 208
ENDBRANCH 122 205
BRANCH 110 211
ATOM    211  CB  ASN d   1      64.598  33.984  90.141  0.00  0.00     0.036 C 
ATOM    212  H74 ASN d   1      64.438  34.038  89.054  0.00  0.00     0.051 H 
ATOM    213  H75 ASN d   1      63.625  33.947  90.653  0.00  0.00     0.051 H 
BRANCH 211 214
ATOM    214  CG  ASN d   1      65.362  32.714  90.457  0.00  0.00     0.217 C 
ATOM    215  OD1 ASN d   1      66.588  32.677  90.363  0.00  0.00    -0.274 OA
ATOM    216  ND2 ASN d   1      64.639  31.658  90.810  0.00  0.00    -0.370 N 
ATOM    217  H76 ASN d   1      65.091  30.793  91.030  0.00  0.00     0.159 HD
ATOM    218  H77 ASN d   1      63.642  31.727  90.856  0.00  0.00     0.159 HD
ENDBRANCH 211 214
ENDBRANCH 110 211
BRANCH 114 219
ATOM    219  CB  ASN d   1      62.032  38.119  89.368  0.00  0.00     0.036 C 
ATOM    220  H80 ASN d   1      61.590  39.017  88.912  0.00  0.00     0.051 H 
ATOM    221  H81 ASN d   1      61.437  37.822  90.244  0.00  0.00     0.051 H 
BRANCH 219 222
ATOM    222  CG  ASN d   1      62.003  36.989  88.351  0.00  0.00     0.217 C 
ATOM    223  OD1 ASN d   1      62.595  37.085  87.277  0.00  0.00    -0.274 OA
ATOM    224  ND2 ASN d   1      61.305  35.911  88.688  0.00  0.00    -0.370 N 
ATOM    225  H82 ASN d   1      61.249  35.135  88.060  0.00  0.00     0.159 HD
ATOM    226  H83 ASN d   1      60.835  35.875  89.570  0.00  0.00     0.159 HD
ENDBRANCH 219 222
ENDBRANCH 114 219
TORSDOF 28
