REMARK  7 active torsions:
REMARK  status: ('A' for Active; 'I' for Inactive)
REMARK    1  A    between atoms: S2_2  and  N6_4 
REMARK    2  A    between atoms: S2_2  and  C16_6 
REMARK    3  A    between atoms: N6_4  and  C61_5 
REMARK    4  A    between atoms: C13_9  and  C4_12 
REMARK    5  A    between atoms: C1_16  and  C6_17 
REMARK    6  A    between atoms: C6_17  and  C7_18 
REMARK    7  A    between atoms: C9_20  and  N3_21 
ROOT
ATOM      1  C16 C75 d   1      39.662  20.128  -4.895  0.00  0.00     0.079 A 
ATOM      2  C15 C75 d   1      39.344  18.783  -5.054  0.00  0.00    -0.059 A 
ATOM      3  C14 C75 d   1      38.753  18.084  -4.005  0.00  0.00    -0.069 A 
ATOM      4  C13 C75 d   1      38.468  18.751  -2.815  0.00  0.00    -0.002 A 
ATOM      5  C18 C75 d   1      38.778  20.099  -2.677  0.00  0.00    -0.069 A 
ATOM      6  C17 C75 d   1      39.374  20.801  -3.715  0.00  0.00    -0.059 A 
ATOM      7  H5  C75 d   1      39.556  18.281  -5.991  0.00  0.00     0.085 H 
ATOM      8  H6  C75 d   1      38.517  17.032  -4.113  0.00  0.00     0.085 H 
ATOM      9  H7  C75 d   1      38.551  20.608  -1.747  0.00  0.00     0.085 H 
ATOM     10  H8  C75 d   1      39.610  21.854  -3.607  0.00  0.00     0.085 H 
ENDROOT
BRANCH   4  11
ATOM     11  C4  C75 d   1      37.790  18.165  -1.613  0.00  0.00     0.086 A 
ATOM     12  O2  C75 d   1      37.520  18.921  -0.504  0.00  0.00    -0.310 OA
ATOM     13  C1  C75 d   1      36.844  18.164   0.411  0.00  0.00     0.077 A 
ATOM     14  C2  C75 d   1      36.699  16.893  -0.140  0.00  0.00    -0.048 A 
ATOM     15  C3  C75 d   1      37.293  16.885  -1.398  0.00  0.00    -0.047 A 
ATOM     16  H10 C75 d   1      36.204  16.047   0.335  0.00  0.00     0.087 H 
ATOM     17  H9  C75 d   1      37.356  16.040  -2.082  0.00  0.00     0.087 H 
BRANCH  13  18
ATOM     18  C6  C75 d   1      36.372  18.633   1.737  0.00  0.00    -0.028 C 
ATOM     19  H11 C75 d   1      35.851  17.927   2.382  0.00  0.00     0.090 H 
BRANCH  18  20
ATOM     20  C7  C75 d   1      36.557  19.886   2.179  0.00  0.00     0.079 A 
ATOM     21  S1  C75 d   1      37.316  21.116   1.359  0.00  0.00    -0.047 SA
ATOM     22  C9  C75 d   1      37.146  22.262   2.550  0.00  0.00     0.167 A 
ATOM     23  N2  C75 d   1      36.488  21.699   3.559  0.00  0.00    -0.301 N 
ATOM     24  C8  C75 d   1      36.158  20.420   3.401  0.00  0.00     0.264 A 
ATOM     25  H13 C75 d   1      36.255  22.207   4.388  0.00  0.00     0.171 HD
ATOM     26  O1  C75 d   1      35.540  19.828   4.282  0.00  0.00    -0.267 OA
BRANCH  22  27
ATOM     27  N3  C75 d   1      37.555  23.463   2.515  0.00  0.00    -0.278 NA
ATOM     28  H12 C75 d   1      37.395  24.073   3.301  0.00  0.00     0.189 HD
ENDBRANCH  22  27
ENDBRANCH  18  20
ENDBRANCH  13  18
ENDBRANCH   4  11
BRANCH   1  29
ATOM     29  S2  C75 d   1      40.385  21.128  -6.148  0.00  0.00     0.258 S 
ATOM     30  O4  C75 d   1      39.390  22.036  -6.648  0.00  0.00    -0.201 OA
ATOM     31  O3  C75 d   1      40.856  20.294  -7.218  0.00  0.00    -0.201 OA
BRANCH  29  32
ATOM     32  N6  C75 d   1      41.612  21.958  -5.539  0.00  0.00    -0.320 N 
ATOM     33  H1  C75 d   1      42.524  21.549  -5.571  0.00  0.00     0.171 HD
BRANCH  32  34
ATOM     34  C61 C75 d   1      41.471  23.255  -4.952  0.00  0.00    -0.011 C 
ATOM     35  H2  C75 d   1      42.454  23.611  -4.610  0.00  0.00     0.057 H 
ATOM     36  H3  C75 d   1      40.783  23.197  -4.095  0.00  0.00     0.057 H 
ATOM     37  H4  C75 d   1      41.068  23.954  -5.699  0.00  0.00     0.057 H 
ENDBRANCH  32  34
ENDBRANCH  29  32
ENDBRANCH   1  29
TORSDOF 7
