REMARK  6 active torsions:
REMARK  status: ('A' for Active; 'I' for Inactive)
REMARK    1  A    between atoms: S2_2  and  N6_4 
REMARK    2  A    between atoms: S2_2  and  C16_5 
REMARK    3  A    between atoms: C13_8  and  C4_11 
REMARK    4  A    between atoms: C1_15  and  C6_16 
REMARK    5  A    between atoms: C6_16  and  C7_17 
REMARK    6  A    between atoms: C9_19  and  N3_20 
ROOT
ATOM      1  C4  C85 d   1     123.596 105.564  31.428  0.00  0.00     0.086 A 
ATOM      2  O2  C85 d   1     122.533 105.956  30.717  0.00  0.00    -0.310 OA
ATOM      3  C3  C85 d   1     124.088 104.457  30.857  0.00  0.00    -0.047 A 
ATOM      4  C2  C85 d   1     123.316 104.161  29.796  0.00  0.00    -0.048 A 
ATOM      5  C1  C85 d   1     122.353 105.090  29.715  0.00  0.00     0.077 A 
ATOM      6  H7  C85 d   1     124.959 103.896  31.192  0.00  0.00     0.087 H 
ATOM      7  H8  C85 d   1     123.450 103.316  29.122  0.00  0.00     0.087 H 
ENDROOT
BRANCH   1   8
ATOM      8  C13 C85 d   1     124.095 106.223  32.536  0.00  0.00    -0.002 A 
ATOM      9  C14 C85 d   1     125.033 105.611  33.365  0.00  0.00    -0.069 A 
ATOM     10  C15 C85 d   1     125.520 106.294  34.484  0.00  0.00    -0.059 A 
ATOM     11  H4  C85 d   1     125.384 104.609  33.144  0.00  0.00     0.085 H 
ATOM     12  C16 C85 d   1     125.072 107.593  34.759  0.00  0.00     0.079 A 
ATOM     13  H3  C85 d   1     126.243 105.819  35.138  0.00  0.00     0.085 H 
ATOM     14  C17 C85 d   1     124.131 108.196  33.927  0.00  0.00    -0.059 A 
ATOM     15  C18 C85 d   1     123.642 107.513  32.823  0.00  0.00    -0.069 A 
ATOM     16  H6  C85 d   1     123.781 109.199  34.142  0.00  0.00     0.085 H 
ATOM     17  H5  C85 d   1     122.906 107.982  32.181  0.00  0.00     0.085 H 
BRANCH  12  18
ATOM     18  S2  C85 d   1     125.686 108.466  36.163  0.00  0.00     0.256 S 
ATOM     19  O4  C85 d   1     126.177 107.478  37.191  0.00  0.00    -0.201 OA
ATOM     20  O3  C85 d   1     126.823 109.359  35.747  0.00  0.00    -0.201 OA
BRANCH  18  21
ATOM     21  N6  C85 d   1     124.485 109.377  36.805  0.00  0.00    -0.324 N 
ATOM     22  H1  C85 d   1     123.648 108.940  37.135  0.00  0.00     0.169 HD
ATOM     23  H2  C85 d   1     124.589 110.370  36.867  0.00  0.00     0.169 HD
ENDBRANCH  18  21
ENDBRANCH  12  18
ENDBRANCH   1   8
BRANCH   5  24
ATOM     24  C6  C85 d   1     121.284 105.171  28.700  0.00  0.00    -0.028 C 
ATOM     25  H9  C85 d   1     121.005 104.288  28.127  0.00  0.00     0.090 H 
BRANCH  24  26
ATOM     26  C7  C85 d   1     120.649 106.357  28.485  0.00  0.00     0.079 A 
ATOM     27  S1  C85 d   1     120.500 107.587  29.628  0.00  0.00    -0.047 SA
ATOM     28  C9  C85 d   1     119.646 108.566  28.544  0.00  0.00     0.167 A 
ATOM     29  N2  C85 d   1     119.482 107.973  27.341  0.00  0.00    -0.301 N 
ATOM     30  C8  C85 d   1     120.042 106.719  27.279  0.00  0.00     0.264 A 
ATOM     31  H11 C85 d   1     119.003 108.402  26.575  0.00  0.00     0.171 HD
ATOM     32  O1  C85 d   1     120.009 106.000  26.282  0.00  0.00    -0.267 OA
BRANCH  28  33
ATOM     33  N3  C85 d   1     119.188 109.774  28.839  0.00  0.00    -0.278 NA
ATOM     34  H10 C85 d   1     118.686 110.306  28.145  0.00  0.00     0.189 HD
ENDBRANCH  28  33
ENDBRANCH  24  26
ENDBRANCH   5  24
TORSDOF 6
