REMARK  5 active torsions:
REMARK  status: ('A' for Active; 'I' for Inactive)
REMARK    1  A    between atoms: C16_3  and  C19_20 
REMARK    2  A    between atoms: C13_6  and  C4_9 
REMARK    3  A    between atoms: C1_13  and  C6_14 
REMARK    4  A    between atoms: C6_14  and  C7_15 
REMARK    5  A    between atoms: C9_17  and  N3_18 
ROOT
ATOM      1  C4  C95 d   1      72.885  59.033  18.666  0.00  0.00     0.086 A 
ATOM      2  O2  C95 d   1      72.547  57.865  18.071  0.00  0.00    -0.310 OA
ATOM      3  C3  C95 d   1      74.176  58.946  19.032  0.00  0.00    -0.047 A 
ATOM      4  C2  C95 d   1      74.626  57.708  18.675  0.00  0.00    -0.048 A 
ATOM      5  C1  C95 d   1      73.608  57.046  18.087  0.00  0.00     0.077 A 
ATOM      6  H5  C95 d   1      74.758  59.724  19.525  0.00  0.00     0.087 H 
ATOM      7  H6  C95 d   1      75.631  57.322  18.837  0.00  0.00     0.087 H 
ENDROOT
BRANCH   1   8
ATOM      8  C13 C95 d   1      71.976  60.214  18.803  0.00  0.00    -0.002 A 
ATOM      9  C14 C95 d   1      72.345  61.330  19.557  0.00  0.00    -0.069 A 
ATOM     10  C15 C95 d   1      71.460  62.423  19.656  0.00  0.00    -0.066 A 
ATOM     11  H2  C95 d   1      73.304  61.356  20.062  0.00  0.00     0.085 H 
ATOM     12  C16 C95 d   1      70.235  62.398  18.963  0.00  0.00     0.040 A 
ATOM     13  H1  C95 d   1      71.722  63.281  20.265  0.00  0.00     0.085 H 
ATOM     14  C17 C95 d   1      69.899  61.288  18.197  0.00  0.00    -0.066 A 
ATOM     15  C18 C95 d   1      70.753  60.204  18.124  0.00  0.00    -0.069 A 
ATOM     16  H4  C95 d   1      68.961  61.273  17.654  0.00  0.00     0.085 H 
ATOM     17  H3  C95 d   1      70.473  59.338  17.535  0.00  0.00     0.085 H 
BRANCH  12  18
ATOM     18  C19 C95 d   1      69.276  63.569  19.036  0.00  0.00     0.209 C 
ATOM     19  O4  C95 d   1      68.217  63.537  18.402  0.00  0.00    -0.644 OA
ATOM     20  O3  C95 d   1      69.554  64.586  19.746  0.00  0.00    -0.644 OA
ENDBRANCH  12  18
ENDBRANCH   1   8
BRANCH   5  21
ATOM     21  C6  C95 d   1      73.635  55.671  17.513  0.00  0.00    -0.028 C 
ATOM     22  H7  C95 d   1      74.510  55.034  17.639  0.00  0.00     0.090 H 
BRANCH  21  23
ATOM     23  C7  C95 d   1      72.575  55.238  16.847  0.00  0.00     0.079 A 
ATOM     24  S1  C95 d   1      71.078  55.988  16.892  0.00  0.00    -0.047 SA
ATOM     25  C9  C95 d   1      70.409  54.863  15.841  0.00  0.00     0.167 A 
ATOM     26  N2  C95 d   1      71.313  53.932  15.439  0.00  0.00    -0.301 N 
ATOM     27  C8  C95 d   1      72.552  54.119  15.980  0.00  0.00     0.264 A 
ATOM     28  H9  C95 d   1      71.093  53.186  14.811  0.00  0.00     0.171 HD
ATOM     29  O1  C95 d   1      73.526  53.399  15.729  0.00  0.00    -0.267 OA
BRANCH  25  30
ATOM     30  N3  C95 d   1      69.132  54.891  15.437  0.00  0.00    -0.278 NA
ATOM     31  H8  C95 d   1      68.788  54.186  14.804  0.00  0.00     0.189 HD
ENDBRANCH  25  30
ENDBRANCH  21  23
ENDBRANCH   5  21
TORSDOF 5
