REMARK  15 active torsions:
REMARK  status: ('A' for Active; 'I' for Inactive)
REMARK    1  A    between atoms: C1_1  and  C2_4 
REMARK    2  A    between atoms: C2_4  and  C3_5 
REMARK    3  A    between atoms: C3_5  and  O3_6 
REMARK    4  A    between atoms: C3_5  and  C4_7 
REMARK       I    between atoms: C4_7  and  N1_9 
REMARK    5  A    between atoms: N1_9  and  C6_10 
REMARK    6  A    between atoms: C6_10  and  C7_11 
REMARK    7  A    between atoms: C6_10  and  C11_15 
REMARK    8  A    between atoms: C7_11  and  C8_12 
REMARK    9  A    between atoms: C8_12  and  C9_13 
REMARK   10  A    between atoms: C8_12  and  C10_14 
REMARK       I    between atoms: C11_15  and  N2_17 
REMARK   11  A    between atoms: N2_17  and  C12_18 
REMARK   12  A    between atoms: C12_18  and  C13_19 
REMARK   13  A    between atoms: C13_19  and  C14_20 
REMARK   14  A    between atoms: C14_20  and  C15_21 
REMARK   15  A    between atoms: C15_21  and  N3_22 
REMARK       I    between atoms: N3_22  and  C16_23 
REMARK       I    between atoms: C16_23  and  N4_24 
ROOT
ATOM      1  C6  E64 d   1       8.051   9.136  15.847  0.00  0.00     0.089 C 
ATOM      2  H6  E64 d   1       8.050   8.191  16.409  0.00  0.00     0.087 H 
ENDROOT
BRANCH   1   3
ATOM      3  N1  E64 d   1       9.020   9.132  14.754  0.00  0.00    -0.346 N 
ATOM      4  C4  E64 d   1       9.491   8.015  14.192  0.00  0.00     0.247 C 
ATOM      5  O4  E64 d   1       9.179   6.880  14.581  0.00  0.00    -0.271 OA
ATOM      6  H5  E64 d   1       9.348  10.011  14.408  0.00  0.00     0.163 HD
BRANCH   4   7
ATOM      7  C3  E64 d   1      10.433   8.254  13.032  0.00  0.00     0.121 C 
ATOM      8  H3  E64 d   1       9.834   8.261  12.110  0.00  0.00     0.098 H 
BRANCH   7   9
ATOM      9  C2  E64 d   1      11.537   7.221  12.860  0.00  0.00     0.048 C 
ATOM     10  H1  E64 d   1      12.195   7.250  13.741  0.00  0.00     0.053 H 
ATOM     11  H2  E64 d   1      11.083   6.223  12.774  0.00  0.00     0.053 H 
BRANCH   9  12
ATOM     12  C1  E64 d   1      12.366   7.496  11.614  0.00  0.00     0.175 C 
ATOM     13  O1  E64 d   1      12.868   8.646  11.441  0.00  0.00    -0.648 OA
ATOM     14  O2  E64 d   1      12.543   6.539  10.826  0.00  0.00    -0.648 OA
ENDBRANCH   9  12
ENDBRANCH   7   9
BRANCH   7  15
ATOM     15  O3  E64 d   1      11.038   9.528  13.205  0.00  0.00    -0.386 OA
ATOM     16  H4  E64 d   1      10.362  10.186  13.314  0.00  0.00     0.210 HD
ENDBRANCH   7  15
ENDBRANCH   4   7
ENDBRANCH   1   3
BRANCH   1  17
ATOM     17  C7  E64 d   1       8.433  10.332  16.705  0.00  0.00    -0.035 C 
ATOM     18  H7  E64 d   1       7.519  10.904  16.925  0.00  0.00     0.037 H 
ATOM     19  H8  E64 d   1       9.129  10.960  16.130  0.00  0.00     0.037 H 
BRANCH  17  20
ATOM     20  C8  E64 d   1       9.094   9.974  18.018  0.00  0.00    -0.059 C 
ATOM     21  H9  E64 d   1       8.282   9.777  18.733  0.00  0.00     0.038 H 
BRANCH  20  22
ATOM     22  C9  E64 d   1       9.887  11.154  18.572  0.00  0.00    -0.073 C 
ATOM     23  H10 E64 d   1      10.356  10.866  19.525  0.00  0.00     0.028 H 
ATOM     24  H11 E64 d   1       9.210  12.005  18.739  0.00  0.00     0.028 H 
ATOM     25  H12 E64 d   1      10.667  11.442  17.852  0.00  0.00     0.028 H 
ENDBRANCH  20  22
BRANCH  20  26
ATOM     26  C10 E64 d   1       9.923   8.689  17.949  0.00  0.00    -0.073 C 
ATOM     27  H13 E64 d   1       9.304   7.875  17.544  0.00  0.00     0.028 H 
ATOM     28  H14 E64 d   1      10.268   8.420  18.958  0.00  0.00     0.028 H 
ATOM     29  H15 E64 d   1      10.793   8.848  17.295  0.00  0.00     0.028 H 
ENDBRANCH  20  26
ENDBRANCH  17  20
ENDBRANCH   1  17
BRANCH   1  30
ATOM     30  C11 E64 d   1       6.703   9.455  15.274  0.00  0.00     0.240 C 
ATOM     31  O5  E64 d   1       6.618  10.305  14.389  0.00  0.00    -0.271 OA
ATOM     32  N2  E64 d   1       5.641   8.797  15.726  0.00  0.00    -0.359 N 
ATOM     33  H16 E64 d   1       5.786   8.110  16.438  0.00  0.00     0.162 HD
BRANCH  32  34
ATOM     34  C12 E64 d   1       4.275   9.010  15.252  0.00  0.00    -0.005 C 
ATOM     35  H17 E64 d   1       4.210   8.820  14.171  0.00  0.00     0.064 H 
ATOM     36  H18 E64 d   1       3.951  10.040  15.463  0.00  0.00     0.064 H 
BRANCH  34  37
ATOM     37  C13 E64 d   1       3.412   8.009  16.024  0.00  0.00    -0.049 C 
ATOM     38  H19 E64 d   1       2.442   8.483  16.235  0.00  0.00     0.035 H 
ATOM     39  H20 E64 d   1       3.920   7.777  16.971  0.00  0.00     0.035 H 
BRANCH  37  40
ATOM     40  C14 E64 d   1       3.150   6.693  15.287  0.00  0.00    -0.048 C 
ATOM     41  H21 E64 d   1       2.379   6.140  15.843  0.00  0.00     0.035 H 
ATOM     42  H22 E64 d   1       4.085   6.114  15.283  0.00  0.00     0.035 H 
BRANCH  40  43
ATOM     43  C15 E64 d   1       2.675   6.838  13.833  0.00  0.00     0.009 C 
ATOM     44  H23 E64 d   1       3.282   6.185  13.189  0.00  0.00     0.064 H 
ATOM     45  H24 E64 d   1       2.799   7.884  13.516  0.00  0.00     0.064 H 
BRANCH  43  46
ATOM     46  N3  E64 d   1       1.259   6.460  13.705  0.00  0.00    -0.227 N 
ATOM     47  C16 E64 d   1       0.533   5.416  14.155  0.00  0.00     0.665 C 
ATOM     48  N4  E64 d   1       1.064   4.439  14.904  0.00  0.00    -0.235 N 
ATOM     49  N5  E64 d   1      -0.765   5.337  13.857  0.00  0.00    -0.235 N 
ATOM     50  H26 E64 d   1       0.474   3.659  15.227  0.00  0.00     0.174 HD
ATOM     51  H27 E64 d   1       2.062   4.468  15.156  0.00  0.00     0.174 HD
ATOM     52  H28 E64 d   1      -1.207   6.069  13.284  0.00  0.00     0.174 HD
ATOM     53  H29 E64 d   1      -1.325   4.543  14.200  0.00  0.00     0.174 HD
ATOM     54  H25 E64 d   1       0.706   7.134  13.157  0.00  0.00     0.177 HD
ENDBRANCH  43  46
ENDBRANCH  40  43
ENDBRANCH  37  40
ENDBRANCH  34  37
ENDBRANCH  32  34
ENDBRANCH   1  30
TORSDOF 15
