REMARK  7 active torsions:
REMARK  status: ('A' for Active; 'I' for Inactive)
REMARK    1  A    between atoms: S2_2  and  N6_4 
REMARK    2  A    between atoms: S2_2  and  C16_5 
REMARK    3  A    between atoms: C15_6  and  C24_7 
REMARK    4  A    between atoms: C13_12  and  C4_15 
REMARK    5  A    between atoms: C1_19  and  C6_20 
REMARK    6  A    between atoms: C6_20  and  C7_21 
REMARK    7  A    between atoms: C9_23  and  N3_24 
ROOT
ATOM      1  C16 C94 d   1      69.331  62.605  18.921  0.00  0.00     0.094 A 
ATOM      2  C15 C94 d   1      70.374  62.655  19.854  0.00  0.00     0.072 A 
ATOM      3  C14 C94 d   1      71.334  61.640  19.872  0.00  0.00    -0.054 A 
ATOM      4  C13 C94 d   1      71.237  60.581  18.977  0.00  0.00    -0.001 A 
ATOM      5  C18 C94 d   1      70.184  60.527  18.076  0.00  0.00    -0.069 A 
ATOM      6  C17 C94 d   1      69.237  61.532  18.047  0.00  0.00    -0.059 A 
ATOM      7  H3  C94 d   1      72.152  61.678  20.582  0.00  0.00     0.086 H 
ATOM      8  H4  C94 d   1      70.104  59.691  17.390  0.00  0.00     0.085 H 
ATOM      9  H5  C94 d   1      68.418  61.482  17.339  0.00  0.00     0.086 H 
ENDROOT
BRANCH   4  10
ATOM     10  C4  C94 d   1      72.224  59.456  18.972  0.00  0.00     0.086 A 
ATOM     11  O2  C94 d   1      71.979  58.236  18.419  0.00  0.00    -0.310 OA
ATOM     12  C1  C94 d   1      73.082  57.450  18.552  0.00  0.00     0.077 A 
ATOM     13  C2  C94 d   1      74.064  58.198  19.195  0.00  0.00    -0.048 A 
ATOM     14  C3  C94 d   1      73.525  59.456  19.460  0.00  0.00    -0.047 A 
ATOM     15  H7  C94 d   1      75.069  57.862  19.445  0.00  0.00     0.087 H 
ATOM     16  H6  C94 d   1      74.029  60.284  19.956  0.00  0.00     0.087 H 
BRANCH  12  17
ATOM     17  C6  C94 d   1      73.186  56.059  18.058  0.00  0.00    -0.028 C 
ATOM     18  H8  C94 d   1      74.061  55.454  18.289  0.00  0.00     0.090 H 
BRANCH  17  19
ATOM     19  C7  C94 d   1      72.180  55.553  17.318  0.00  0.00     0.079 A 
ATOM     20  S1  C94 d   1      70.764  56.355  16.977  0.00  0.00    -0.047 SA
ATOM     21  C9  C94 d   1      70.178  55.067  16.106  0.00  0.00     0.167 A 
ATOM     22  N2  C94 d   1      71.046  54.050  16.057  0.00  0.00    -0.301 N 
ATOM     23  C8  C94 d   1      72.183  54.292  16.728  0.00  0.00     0.264 A 
ATOM     24  H10 C94 d   1      70.866  53.196  15.570  0.00  0.00     0.171 HD
ATOM     25  O1  C94 d   1      73.112  53.493  16.810  0.00  0.00    -0.267 OA
BRANCH  21  26
ATOM     26  N3  C94 d   1      69.040  55.056  15.541  0.00  0.00    -0.278 NA
ATOM     27  H9  C94 d   1      68.741  54.243  15.026  0.00  0.00     0.189 HD
ENDBRANCH  21  26
ENDBRANCH  17  19
ENDBRANCH  12  17
ENDBRANCH   4  10
BRANCH   2  28
ATOM     28  C24 C94 d   1      70.491  63.810  20.845  0.00  0.00     0.419 C 
ATOM     29  F26 C94 d   1      70.117  64.948  20.271  0.00  0.00    -0.166 F 
ATOM     30  F27 C94 d   1      71.753  63.916  21.241  0.00  0.00    -0.166 F 
ATOM     31  F25 C94 d   1      69.719  63.575  21.901  0.00  0.00    -0.166 F 
ENDBRANCH   2  28
BRANCH   1  32
ATOM     32  S2  C94 d   1      68.078  63.840  18.848  0.00  0.00     0.257 S 
ATOM     33  O4  C94 d   1      67.945  64.397  20.145  0.00  0.00    -0.201 OA
ATOM     34  O3  C94 d   1      68.484  64.806  17.889  0.00  0.00    -0.201 OA
BRANCH  32  35
ATOM     35  N6  C94 d   1      66.751  63.074  18.397  0.00  0.00    -0.324 N 
ATOM     36  H1  C94 d   1      66.358  62.366  18.984  0.00  0.00     0.169 HD
ATOM     37  H2  C94 d   1      66.313  63.302  17.527  0.00  0.00     0.169 HD
ENDBRANCH  32  35
ENDBRANCH   1  32
TORSDOF 7
