REMARK  7 active torsions:
REMARK  status: ('A' for Active; 'I' for Inactive)
REMARK    1  A    between atoms: S2_2  and  N6_4 
REMARK    2  A    between atoms: S2_2  and  C16_5 
REMARK    3  A    between atoms: C13_8  and  C4_11 
REMARK    4  A    between atoms: C1_15  and  C6_16 
REMARK    5  A    between atoms: C6_16  and  C7_17 
REMARK    6  A    between atoms: C6_16  and  C20_23 
REMARK    7  A    between atoms: C9_19  and  N3_20 
ROOT
ATOM      1  C4  C96 d   1       2.138  64.762   7.570  0.00  0.00     0.086 A 
ATOM      2  O2  C96 d   1       1.023  64.801   8.359  0.00  0.00    -0.309 OA
ATOM      3  C3  C96 d   1       2.146  65.903   6.774  0.00  0.00    -0.047 A 
ATOM      4  C2  C96 d   1       1.028  66.657   7.118  0.00  0.00    -0.047 A 
ATOM      5  C1  C96 d   1       0.348  65.965   8.119  0.00  0.00     0.083 A 
ATOM      6  H7  C96 d   1       2.890  66.159   6.021  0.00  0.00     0.087 H 
ATOM      7  H8  C96 d   1       0.738  67.613   6.684  0.00  0.00     0.087 H 
ENDROOT
BRANCH   1   8
ATOM      8  C13 C96 d   1       3.132  63.643   7.560  0.00  0.00    -0.002 A 
ATOM      9  C14 C96 d   1       2.994  62.613   8.484  0.00  0.00    -0.069 A 
ATOM     10  C15 C96 d   1       3.893  61.559   8.493  0.00  0.00    -0.059 A 
ATOM     11  H4  C96 d   1       2.180  62.635   9.200  0.00  0.00     0.085 H 
ATOM     12  C16 C96 d   1       4.931  61.528   7.570  0.00  0.00     0.079 A 
ATOM     13  H3  C96 d   1       3.787  60.761   9.218  0.00  0.00     0.085 H 
ATOM     14  C17 C96 d   1       5.063  62.548   6.631  0.00  0.00    -0.059 A 
ATOM     15  C18 C96 d   1       4.164  63.612   6.628  0.00  0.00    -0.069 A 
ATOM     16  H6  C96 d   1       5.865  62.514   5.903  0.00  0.00     0.085 H 
ATOM     17  H5  C96 d   1       4.268  64.411   5.903  0.00  0.00     0.085 H 
BRANCH  12  18
ATOM     18  S2  C96 d   1       6.047  60.167   7.564  0.00  0.00     0.256 S 
ATOM     19  O4  C96 d   1       7.148  60.453   6.683  0.00  0.00    -0.201 OA
ATOM     20  O3  C96 d   1       5.360  58.990   7.104  0.00  0.00    -0.201 OA
BRANCH  18  21
ATOM     21  N6  C96 d   1       6.597  59.918   9.046  0.00  0.00    -0.324 N 
ATOM     22  H1  C96 d   1       7.102  60.639   9.520  0.00  0.00     0.169 HD
ATOM     23  H2  C96 d   1       6.435  59.041   9.499  0.00  0.00     0.169 HD
ENDBRANCH  18  21
ENDBRANCH  12  18
ENDBRANCH   1   8
BRANCH   5  24
ATOM     24  C6  C96 d   1      -0.917  66.364   8.780  0.00  0.00    -0.005 C 
BRANCH  24  25
ATOM     25  C7  C96 d   1      -1.389  65.636   9.809  0.00  0.00     0.085 A 
ATOM     26  S1  C96 d   1      -0.558  64.395  10.527  0.00  0.00    -0.046 SA
ATOM     27  C9  C96 d   1      -1.753  64.170  11.656  0.00  0.00     0.167 A 
ATOM     28  N2  C96 d   1      -2.766  65.029  11.498  0.00  0.00    -0.301 N 
ATOM     29  C8  C96 d   1      -2.590  65.873  10.473  0.00  0.00     0.265 A 
ATOM     30  H10 C96 d   1      -3.574  65.040  12.087  0.00  0.00     0.171 HD
ATOM     31  O1  C96 d   1      -3.400  66.739  10.155  0.00  0.00    -0.267 OA
BRANCH  27  32
ATOM     32  N3  C96 d   1      -1.706  63.288  12.569  0.00  0.00    -0.278 NA
ATOM     33  H9  C96 d   1      -2.466  63.202  13.226  0.00  0.00     0.189 HD
ENDBRANCH  27  32
ENDBRANCH  24  25
BRANCH  24  34
ATOM     34  C20 C96 d   1      -1.587  67.656   8.397  0.00  0.00    -0.047 C 
ATOM     35  H11 C96 d   1      -1.061  68.102   7.540  0.00  0.00     0.033 H 
ATOM     36  H12 C96 d   1      -1.556  68.352   9.248  0.00  0.00     0.033 H 
ATOM     37  H13 C96 d   1      -2.634  67.459   8.123  0.00  0.00     0.033 H 
ENDBRANCH  24  34
ENDBRANCH   5  24
TORSDOF 7
