REMARK  5 active torsions:
REMARK  status: ('A' for Active; 'I' for Inactive)
REMARK    1  A    between atoms: S2_2  and  N6_4 
REMARK    2  A    between atoms: S2_2  and  C16_5 
REMARK    3  A    between atoms: C13_8  and  C4_11 
REMARK    4  A    between atoms: C1_15  and  C6_16 
REMARK    5  A    between atoms: C6_16  and  C7_17 
ROOT
ATOM      1  C4  C62 d   1      11.133 -10.142  12.013  0.00  0.00     0.086 A 
ATOM      2  O2  C62 d   1      12.286  -9.430  11.935  0.00  0.00    -0.310 OA
ATOM      3  C3  C62 d   1      11.114 -10.768  13.216  0.00  0.00    -0.047 A 
ATOM      4  C2  C62 d   1      12.257 -10.432  13.854  0.00  0.00    -0.048 A 
ATOM      5  C1  C62 d   1      12.962  -9.588  13.032  0.00  0.00     0.077 A 
ATOM      6  H7  C62 d   1      10.327 -11.418  13.596  0.00  0.00     0.087 H 
ATOM      7  H8  C62 d   1      12.564 -10.770  14.843  0.00  0.00     0.087 H 
ENDROOT
BRANCH   1   8
ATOM      8  C13 C62 d   1      10.095 -10.170  10.988  0.00  0.00    -0.002 A 
ATOM      9  C14 C62 d   1      10.126  -9.218   9.964  0.00  0.00    -0.069 A 
ATOM     10  C15 C62 d   1       9.157  -9.221   8.969  0.00  0.00    -0.059 A 
ATOM     11  H4  C62 d   1      10.912  -8.472   9.947  0.00  0.00     0.085 H 
ATOM     12  C16 C62 d   1       8.149 -10.172   8.986  0.00  0.00     0.079 A 
ATOM     13  H3  C62 d   1       9.189  -8.479   8.179  0.00  0.00     0.085 H 
ATOM     14  C17 C62 d   1       8.097 -11.120  10.025  0.00  0.00    -0.059 A 
ATOM     15  C18 C62 d   1       9.077 -11.116  11.028  0.00  0.00    -0.069 A 
ATOM     16  H6  C62 d   1       7.299 -11.853  10.050  0.00  0.00     0.085 H 
ATOM     17  H5  C62 d   1       9.041 -11.845  11.829  0.00  0.00     0.085 H 
BRANCH  12  18
ATOM     18  S2  C62 d   1       6.892 -10.148   7.732  0.00  0.00     0.256 S 
ATOM     19  O4  C62 d   1       6.456 -11.550   7.429  0.00  0.00    -0.201 OA
ATOM     20  O3  C62 d   1       5.730  -9.360   8.229  0.00  0.00    -0.201 OA
BRANCH  18  21
ATOM     21  N6  C62 d   1       7.476  -9.452   6.366  0.00  0.00    -0.324 N 
ATOM     22  H1  C62 d   1       8.262  -9.854   5.896  0.00  0.00     0.169 HD
ATOM     23  H2  C62 d   1       7.046  -8.625   6.003  0.00  0.00     0.169 HD
ENDBRANCH  18  21
ENDBRANCH  12  18
ENDBRANCH   1   8
BRANCH   5  24
ATOM     24  C6  C62 d   1      14.246  -8.976  13.325  0.00  0.00    -0.028 C 
ATOM     25  H9  C62 d   1      14.883  -9.402  14.099  0.00  0.00     0.090 H 
BRANCH  24  26
ATOM     26  C7  C62 d   1      14.676  -7.831  12.613  0.00  0.00     0.080 A 
ATOM     27  S1  C62 d   1      13.707  -6.905  11.577  0.00  0.00    -0.024 SA
ATOM     28  C9  C62 d   1      14.950  -5.858  11.245  0.00  0.00     0.291 A 
ATOM     29  N2  C62 d   1      16.093  -6.188  11.912  0.00  0.00    -0.283 N 
ATOM     30  O5  C62 d   1      14.849  -4.890  10.488  0.00  0.00    -0.260 OA
ATOM     31  C8  C62 d   1      15.958  -7.306  12.690  0.00  0.00     0.266 A 
ATOM     32  H10 C62 d   1      16.943  -5.666  11.840  0.00  0.00     0.172 HD
ATOM     33  O1  C62 d   1      16.865  -7.791  13.369  0.00  0.00    -0.267 OA
ENDBRANCH  24  26
ENDBRANCH   5  24
TORSDOF 5
