REMARK  11 active torsions:
REMARK  status: ('A' for Active; 'I' for Inactive)
REMARK    1  A    between atoms: C7_7  and  C1_1 
REMARK    2  A    between atoms: C5_5  and  O8_8 
REMARK    3  A    between atoms: C9_9  and  C7_7 
REMARK    4  A    between atoms: O8_8  and  C29_29 
REMARK    5  A    between atoms: C10_10  and  C9_9 
REMARK    6  A    between atoms: C9_9  and  N12_12 
REMARK    7  A    between atoms: O11_11  and  C10_10 
REMARK    8  A    between atoms: C13_13  and  O11_11 
REMARK    9  A    between atoms: C24_24  and  C17_17 
REMARK   10  A    between atoms: C27_27  and  C28_28 
REMARK   11  A    between atoms: C29_29  and  C30_30 
ROOT
ATOM      1  C9  SS5 d   1      13.367   8.361   2.277  0.00  0.00     0.124 C 
ATOM      2  H   SS5 d   1      13.468   9.213   2.950  0.00  0.00     0.087 H 
ENDROOT
BRANCH   1   3
ATOM      3  C7  SS5 d   1      14.730   8.047   1.670  0.00  0.00    -0.013 C 
ATOM      4  H   SS5 d   1      14.617   7.118   1.112  0.00  0.00     0.043 H 
ATOM      5  H   SS5 d   1      15.015   8.915   1.076  0.00  0.00     0.043 H 
BRANCH   3   6
ATOM      6  C1  SS5 d   1      15.839   7.821   2.662  0.00  0.00    -0.053 A 
ATOM      7  C2  SS5 d   1      16.099   6.557   3.256  0.00  0.00    -0.077 A 
ATOM      8  C3  SS5 d   1      17.164   6.412   4.171  0.00  0.00    -0.080 A 
ATOM      9  H   SS5 d   1      15.476   5.699   3.005  0.00  0.00     0.084 H 
ATOM     10  C4  SS5 d   1      17.986   7.536   4.502  0.00  0.00    -0.051 A 
ATOM     11  H   SS5 d   1      17.361   5.442   4.627  0.00  0.00     0.083 H 
ATOM     12  C5  SS5 d   1      17.732   8.824   3.905  0.00  0.00     0.069 A 
ATOM     13  H   SS5 d   1      18.808   7.418   5.208  0.00  0.00     0.087 H 
ATOM     14  C6  SS5 d   1      16.661   8.928   3.000  0.00  0.00    -0.045 A 
ATOM     15  H   SS5 d   1      16.454   9.895   2.541  0.00  0.00     0.088 H 
BRANCH  12  16
ATOM     16  O8  SS5 d   1      18.453  10.033   4.122  0.00  0.00    -0.351 OA
BRANCH  16  17
ATOM     17  C29 SS5 d   1      19.557  10.017   5.016  0.00  0.00     0.029 C 
ATOM     18  H   SS5 d   1      20.300   9.333   4.607  0.00  0.00     0.075 H 
ATOM     19  H   SS5 d   1      19.182   9.716   5.994  0.00  0.00     0.075 H 
BRANCH  17  20
ATOM     20  C30 SS5 d   1      20.237  11.400   5.182  0.00  0.00    -0.033 C 
ATOM     21  C31 SS5 d   1      21.549  11.504   4.363  0.00  0.00    -0.060 C 
ATOM     22  C32 SS5 d   1      22.231  12.884   4.541  0.00  0.00    -0.065 C 
ATOM     23  H   SS5 d   1      21.305  11.376   3.308  0.00  0.00     0.033 H 
ATOM     24  H   SS5 d   1      22.235  10.735   4.717  0.00  0.00     0.033 H 
ATOM     25  C33 SS5 d   1      21.270  14.056   4.216  0.00  0.00    -0.065 C 
ATOM     26  H   SS5 d   1      23.076  12.937   3.854  0.00  0.00     0.033 H 
ATOM     27  H   SS5 d   1      22.542  12.978   5.582  0.00  0.00     0.033 H 
ATOM     28  C34 SS5 d   1      19.931  13.955   4.980  0.00  0.00    -0.065 C 
ATOM     29  H   SS5 d   1      21.051  14.024   3.149  0.00  0.00     0.033 H 
ATOM     30  H   SS5 d   1      21.758  14.983   4.516  0.00  0.00     0.033 H 
ATOM     31  C35 SS5 d   1      19.274  12.569   4.804  0.00  0.00    -0.060 C 
ATOM     32  H   SS5 d   1      19.252  14.709   4.582  0.00  0.00     0.033 H 
ATOM     33  H   SS5 d   1      20.129  14.108   6.041  0.00  0.00     0.033 H 
ATOM     34  H   SS5 d   1      18.409  12.520   5.465  0.00  0.00     0.033 H 
ATOM     35  H   SS5 d   1      19.003  12.456   3.754  0.00  0.00     0.033 H 
ATOM     36  H   SS5 d   1      20.489  11.492   6.239  0.00  0.00     0.043 H 
ENDBRANCH  17  20
ENDBRANCH  16  17
ENDBRANCH  12  16
ENDBRANCH   3   6
ENDBRANCH   1   3
BRANCH   1  37
ATOM     37  C10 SS5 d   1      12.382   8.665   1.151  0.00  0.00     0.053 C 
ATOM     38  H   SS5 d   1      12.276   7.781   0.523  0.00  0.00     0.078 H 
ATOM     39  H   SS5 d   1      12.759   9.503   0.565  0.00  0.00     0.078 H 
BRANCH  37  40
ATOM     40  O11 SS5 d   1      11.113   9.008   1.685  0.00  0.00    -0.348 OA
BRANCH  40  41
ATOM     41  C13 SS5 d   1      10.109   9.361   0.767  0.00  0.00     0.087 A 
ATOM     42  C14 SS5 d   1      10.314   9.683  -0.615  0.00  0.00     0.034 A 
ATOM     43  N15 SS5 d   1       9.292  10.016  -1.429  0.00  0.00    -0.269 NA
ATOM     44  H   SS5 d   1      11.326   9.658  -1.020  0.00  0.00     0.119 H 
ATOM     45  C16 SS5 d   1       8.017  10.052  -0.943  0.00  0.00     0.013 A 
ATOM     46  C17 SS5 d   1       7.700   9.755   0.406  0.00  0.00    -0.006 A 
ATOM     47  H   SS5 d   1       7.208  10.321  -1.622  0.00  0.00     0.116 H 
ATOM     48  C18 SS5 d   1       8.786   9.410   1.243  0.00  0.00    -0.037 A 
ATOM     49  H   SS5 d   1       8.592   9.175   2.289  0.00  0.00     0.089 H 
BRANCH  46  50
ATOM     50  C24 SS5 d   1       6.275   9.785   0.921  0.00  0.00    -0.023 A 
ATOM     51  C19 SS5 d   1       5.179   9.566   0.036  0.00  0.00    -0.070 A 
ATOM     52  C20 SS5 d   1       3.835   9.569   0.486  0.00  0.00    -0.052 A 
ATOM     53  H   SS5 d   1       5.381   9.391  -1.021  0.00  0.00     0.084 H 
ATOM     54  C21 SS5 d   1       3.559   9.788   1.827  0.00  0.00     0.089 A 
ATOM     55  H   SS5 d   1       3.022   9.400  -0.220  0.00  0.00     0.087 H 
ATOM     56  C22 SS5 d   1       4.640  10.018   2.773  0.00  0.00     0.019 A 
ATOM     57  N25 SS5 d   1       2.436   9.855   2.594  0.00  0.00    -0.174 NA
ATOM     58  C23 SS5 d   1       5.964  10.014   2.313  0.00  0.00    -0.058 A 
ATOM     59  C27 SS5 d   1       4.027  10.212   4.083  0.00  0.00     0.036 A 
ATOM     60  H   SS5 d   1       6.775  10.187   3.020  0.00  0.00     0.086 H 
ATOM     61  N26 SS5 d   1       2.714  10.097   3.883  0.00  0.00    -0.281 N 
ATOM     62  H   SS5 d   1       2.011  10.182   4.617  0.00  0.00     0.189 HD
BRANCH  59  63
ATOM     63  C28 SS5 d   1       4.656  10.484   5.431  0.00  0.00    -0.035 C 
ATOM     64  H   SS5 d   1       5.324   9.663   5.691  0.00  0.00     0.035 H 
ATOM     65  H   SS5 d   1       5.223  11.414   5.385  0.00  0.00     0.035 H 
ATOM     66  H   SS5 d   1       3.873  10.571   6.185  0.00  0.00     0.035 H 
ENDBRANCH  59  63
ENDBRANCH  46  50
ENDBRANCH  40  41
ENDBRANCH  37  40
ENDBRANCH   1  37
BRANCH   1  67
ATOM     67  N12 SS5 d   1      12.866   7.207   3.013  0.00  0.00    -0.073 N 
ATOM     68  H   SS5 d   1      11.955   7.430   3.413  0.00  0.00     0.274 HD
ATOM     69  H   SS5 d   1      12.775   6.414   2.378  0.00  0.00     0.274 HD
ATOM     70  H   SS5 d   1      13.519   6.972   3.761  0.00  0.00     0.274 HD
ENDBRANCH   1  67
TORSDOF 11
