REMARK  6 active torsions:
REMARK  status: ('A' for Active; 'I' for Inactive)
REMARK    1  A    between atoms: C2'_10  and  O2'_11 
REMARK    2  A    between atoms: C1'_12  and  N9_13 
REMARK    3  A    between atoms: C2_20  and  N2_21 
REMARK    4  A    between atoms: C2'_33  and  O2'_34 
REMARK    5  A    between atoms: C1'_35  and  N9_36 
REMARK    6  A    between atoms: C2_43  and  N2_44 
ROOT
ATOM      1  P   C2E d   1      76.910  63.988  70.313  0.00  0.00     0.408 P 
ATOM      2  O1P C2E d   1      76.901  62.523  70.600  0.00  0.00    -0.624 OA
ATOM      3  O2P C2E d   1      76.654  64.885  71.497  0.00  0.00    -0.624 OA
ATOM      4  O5' C2E d   1      78.365  64.479  69.858  0.00  0.00    -0.287 OA
ATOM      5  C5' C2E d   1      78.645  65.590  68.993  0.00  0.00     0.058 C 
ATOM      6  C4' C2E d   1      79.711  64.947  68.142  0.00  0.00     0.090 C 
ATOM      7  O4' C2E d   1      81.029  65.308  68.546  0.00  0.00    -0.353 OA
ATOM      8  C3' C2E d   1      79.663  64.920  66.608  0.00  0.00     0.106 C 
ATOM      9  O3' C2E d   1      78.842  65.917  65.982  0.00  0.00    -0.279 OA
ATOM     10  C2' C2E d   1      81.150  64.968  66.276  0.00  0.00     0.106 C 
ATOM     11  C1' C2E d   1      81.867  64.664  67.583  0.00  0.00     0.139 C 
ATOM     12  P   C2E d   1      78.047  65.259  64.738  0.00  0.00     0.408 P 
ATOM     13  O1P C2E d   1      79.000  64.373  63.959  0.00  0.00    -0.624 OA
ATOM     14  O2P C2E d   1      77.244  66.347  64.026  0.00  0.00    -0.624 OA
ATOM     15  O5' C2E d   1      76.885  64.330  65.301  0.00  0.00    -0.287 OA
ATOM     16  C5' C2E d   1      75.906  65.016  66.072  0.00  0.00     0.058 C 
ATOM     17  C4' C2E d   1      75.092  64.058  66.918  0.00  0.00     0.090 C 
ATOM     18  O4' C2E d   1      74.396  63.072  66.141  0.00  0.00    -0.353 OA
ATOM     19  C3' C2E d   1      75.802  63.390  68.105  0.00  0.00     0.106 C 
ATOM     20  O3' C2E d   1      75.805  64.348  69.175  0.00  0.00    -0.279 OA
ATOM     21  C2' C2E d   1      74.883  62.184  68.261  0.00  0.00     0.106 C 
ATOM     22  C1' C2E d   1      74.333  61.860  66.892  0.00  0.00     0.139 C 
ATOM     23  H1  C2E d   1      79.026  66.461  69.547  0.00  0.00     0.079 H 
ATOM     24  H2  C2E d   1      77.766  65.887  68.402  0.00  0.00     0.079 H 
ATOM     25  H3  C2E d   1      79.611  63.885  68.410  0.00  0.00     0.090 H 
ATOM     26  H4  C2E d   1      79.258  63.950  66.283  0.00  0.00     0.092 H 
ATOM     27  H5  C2E d   1      81.397  64.227  65.502  0.00  0.00     0.093 H 
ATOM     28  H7  C2E d   1      82.874  65.106  67.591  0.00  0.00     0.122 H 
ATOM     29  H13 C2E d   1      75.230  65.555  65.392  0.00  0.00     0.079 H 
ATOM     30  H14 C2E d   1      76.412  65.735  66.733  0.00  0.00     0.079 H 
ATOM     31  H15 C2E d   1      74.312  64.688  67.371  0.00  0.00     0.090 H 
ATOM     32  H16 C2E d   1      76.833  63.080  67.882  0.00  0.00     0.092 H 
ATOM     33  H17 C2E d   1      75.420  61.329  68.697  0.00  0.00     0.093 H 
ATOM     34  H19 C2E d   1      73.301  61.490  66.975  0.00  0.00     0.122 H 
ENDROOT
BRANCH  11  35
ATOM     35  N9  C2E d   1      81.986  63.189  67.801  0.00  0.00    -0.295 N 
ATOM     36  C8  C2E d   1      81.360  62.452  68.752  0.00  0.00     0.071 A 
ATOM     37  N7  C2E d   1      81.693  61.155  68.648  0.00  0.00    -0.234 NA
ATOM     38  H8  C2E d   1      80.679  62.857  69.499  0.00  0.00     0.144 H 
ATOM     39  C5  C2E d   1      82.562  61.073  67.627  0.00  0.00     0.171 A 
ATOM     40  C6  C2E d   1      83.243  59.999  67.089  0.00  0.00     0.292 A 
ATOM     41  C4  C2E d   1      82.738  62.346  67.095  0.00  0.00     0.161 A 
ATOM     42  O6  C2E d   1      83.127  58.843  67.555  0.00  0.00    -0.265 OA
ATOM     43  N1  C2E d   1      84.036  60.212  66.054  0.00  0.00    -0.154 N 
ATOM     44  C2  C2E d   1      84.198  61.427  65.553  0.00  0.00     0.680 A 
ATOM     45  H9  C2E d   1      84.523  59.442  65.641  0.00  0.00     0.187 HD
ATOM     46  N3  C2E d   1      83.566  62.511  66.052  0.00  0.00    -0.174 N 
ATOM     47  H12 C2E d   1      83.716  63.444  65.641  0.00  0.00     0.186 HD
BRANCH  44  48
ATOM     48  N2  C2E d   1      85.032  61.533  64.511  0.00  0.00    -0.234 N 
ATOM     49  H10 C2E d   1      85.200  62.452  64.077  0.00  0.00     0.174 HD
ATOM     50  H11 C2E d   1      85.506  60.696  64.143  0.00  0.00     0.174 HD
ENDBRANCH  44  48
ENDBRANCH  11  35
BRANCH  10  51
ATOM     51  O2' C2E d   1      81.548  66.264  65.856  0.00  0.00    -0.388 OA
ATOM     52  H6  C2E d   1      81.058  66.508  65.080  0.00  0.00     0.210 HD
ENDBRANCH  10  51
BRANCH  21  53
ATOM     53  O2' C2E d   1      73.777  62.553  69.050  0.00  0.00    -0.388 OA
ATOM     54  H18 C2E d   1      74.080  62.839  69.904  0.00  0.00     0.210 HD
ENDBRANCH  21  53
BRANCH  22  55
ATOM     55  N9  C2E d   1      75.165  60.889  66.170  0.00  0.00    -0.295 N 
ATOM     56  C8  C2E d   1      76.156  61.179  65.313  0.00  0.00     0.071 A 
ATOM     57  N7  C2E d   1      76.674  60.035  64.823  0.00  0.00    -0.234 NA
ATOM     58  H20 C2E d   1      76.490  62.183  65.054  0.00  0.00     0.144 H 
ATOM     59  C5  C2E d   1      75.986  59.010  65.377  0.00  0.00     0.171 A 
ATOM     60  C6  C2E d   1      76.047  57.612  65.269  0.00  0.00     0.292 A 
ATOM     61  C4  C2E d   1      75.045  59.572  66.226  0.00  0.00     0.161 A 
ATOM     62  O6  C2E d   1      76.863  56.991  64.541  0.00  0.00    -0.265 OA
ATOM     63  N1  C2E d   1      75.206  56.885  65.981  0.00  0.00    -0.154 N 
ATOM     64  C2  C2E d   1      74.324  57.444  66.773  0.00  0.00     0.680 A 
ATOM     65  H21 C2E d   1      75.243  55.888  65.915  0.00  0.00     0.187 HD
ATOM     66  N3  C2E d   1      74.220  58.767  66.916  0.00  0.00    -0.174 N 
ATOM     67  H24 C2E d   1      73.513  59.167  67.550  0.00  0.00     0.186 HD
BRANCH  64  68
ATOM     68  N2  C2E d   1      73.504  56.652  67.448  0.00  0.00    -0.234 N 
ATOM     69  H22 C2E d   1      72.799  57.059  68.079  0.00  0.00     0.174 HD
ATOM     70  H23 C2E d   1      73.572  55.630  67.341  0.00  0.00     0.174 HD
ENDBRANCH  64  68
ENDBRANCH  22  55
TORSDOF 6
