REMARK  29 active torsions:
REMARK  status: ('A' for Active; 'I' for Inactive)
REMARK    1  A    between atoms: C1_1  and  O2_2 
REMARK    2  A    between atoms: O2_2  and  C3_3 
REMARK    3  A    between atoms: C3_3  and  C4_4 
REMARK    4  A    between atoms: C4_4  and  C5_5 
REMARK    5  A    between atoms: C5_5  and  O6_6 
REMARK    6  A    between atoms: O6_6  and  C7_7 
REMARK    7  A    between atoms: C9_9  and  C15_15 
REMARK    8  A    between atoms: C12_12  and  O13_13 
REMARK    9  A    between atoms: O13_13  and  C14_14 
REMARK   10  A    between atoms: C15_15  and  C16_16 
REMARK   11  A    between atoms: C16_16  and  C17_17 
REMARK   12  A    between atoms: C16_16  and  C20_20 
REMARK   13  A    between atoms: C17_17  and  C18_18 
REMARK   14  A    between atoms: C17_17  and  C19_19 
REMARK   15  A    between atoms: C20_20  and  C21_21 
REMARK   16  A    between atoms: C21_21  and  N22_22 
REMARK   17  A    between atoms: C21_21  and  C23_23 
REMARK   18  A    between atoms: C23_23  and  O24_24 
REMARK   19  A    between atoms: C23_23  and  C25_25 
REMARK   20  A    between atoms: C25_25  and  C26_26 
REMARK   21  A    between atoms: C26_26  and  C27_27 
REMARK   22  A    between atoms: C26_26  and  C30_30 
REMARK   23  A    between atoms: C27_27  and  C28_28 
REMARK   24  A    between atoms: C27_27  and  C29_29 
REMARK       I    between atoms: C30_30  and  N32_32 
REMARK   25  A    between atoms: N32_32  and  C33_33 
REMARK   26  A    between atoms: C33_33  and  C34_34 
REMARK   27  A    between atoms: C34_34  and  C35_35 
REMARK   28  A    between atoms: C34_34  and  C36_36 
REMARK   29  A    between atoms: C34_34  and  C37_37 
REMARK       I    between atoms: C37_37  and  N39_39 
ROOT
ATOM      1  C20 C41 d   1       8.062  46.681  68.460  0.00  0.00    -0.032 C 
ATOM      2  H26 C41 d   1       8.288  46.517  67.396  0.00  0.00     0.036 H 
ATOM      3  H27 C41 d   1       7.419  47.567  68.566  0.00  0.00     0.036 H 
ENDROOT
BRANCH   1   4
ATOM      4  C16 C41 d   1       9.383  46.961  69.190  0.00  0.00    -0.046 C 
ATOM      5  H18 C41 d   1       9.956  46.025  69.262  0.00  0.00     0.041 H 
BRANCH   4   6
ATOM      6  C15 C41 d   1       9.056  47.457  70.611  0.00  0.00    -0.037 C 
ATOM      7  H16 C41 d   1       8.387  48.327  70.533  0.00  0.00     0.040 H 
ATOM      8  H17 C41 d   1       8.545  46.649  71.155  0.00  0.00     0.040 H 
BRANCH   6   9
ATOM      9  C9  C41 d   1      10.299  47.867  71.403  0.00  0.00    -0.055 A 
ATOM     10  C8  C41 d   1      11.344  46.953  71.600  0.00  0.00    -0.042 A 
ATOM     11  C7  C41 d   1      12.448  47.361  72.310  0.00  0.00     0.102 A 
ATOM     12  H10 C41 d   1      11.283  45.947  71.201  0.00  0.00     0.088 H 
ATOM     13  C12 C41 d   1      12.532  48.672  72.845  0.00  0.00     0.101 A 
ATOM     14  C11 C41 d   1      11.492  49.598  72.654  0.00  0.00    -0.048 A 
ATOM     15  C10 C41 d   1      10.386  49.186  71.933  0.00  0.00    -0.074 A 
ATOM     16  H12 C41 d   1      11.555  50.602  73.058  0.00  0.00     0.087 H 
ATOM     17  H11 C41 d   1       9.570  49.880  71.768  0.00  0.00     0.084 H 
BRANCH  11  18
ATOM     18  O6  C41 d   1      13.573  46.552  72.543  0.00  0.00    -0.348 OA
BRANCH  18  19
ATOM     19  C5  C41 d   1      13.767  45.364  71.765  0.00  0.00     0.028 C 
ATOM     20  H8  C41 d   1      14.520  44.734  72.262  0.00  0.00     0.075 H 
ATOM     21  H9  C41 d   1      12.813  44.819  71.706  0.00  0.00     0.075 H 
BRANCH  19  22
ATOM     22  C4  C41 d   1      14.246  45.678  70.342  0.00  0.00    -0.025 C 
ATOM     23  H6  C41 d   1      13.455  46.227  69.810  0.00  0.00     0.039 H 
ATOM     24  H7  C41 d   1      15.151  46.301  70.397  0.00  0.00     0.039 H 
BRANCH  22  25
ATOM     25  C3  C41 d   1      14.569  44.393  69.572  0.00  0.00     0.021 C 
ATOM     26  H4  C41 d   1      13.634  43.846  69.378  0.00  0.00     0.074 H 
ATOM     27  H5  C41 d   1      15.044  44.657  68.616  0.00  0.00     0.074 H 
BRANCH  25  28
ATOM     28  O2  C41 d   1      15.467  43.542  70.327  0.00  0.00    -0.396 OA
BRANCH  28  29
ATOM     29  C1  C41 d   1      15.015  42.206  70.232  0.00  0.00     0.004 C 
ATOM     30  H1  C41 d   1      15.689  41.550  70.802  0.00  0.00     0.066 H 
ATOM     31  H2  C41 d   1      15.007  41.896  69.177  0.00  0.00     0.066 H 
ATOM     32  H3  C41 d   1      13.998  42.133  70.644  0.00  0.00     0.066 H 
ENDBRANCH  28  29
ENDBRANCH  25  28
ENDBRANCH  22  25
ENDBRANCH  19  22
ENDBRANCH  18  19
ENDBRANCH  11  18
BRANCH  13  33
ATOM     33  O13 C41 d   1      13.716  48.942  73.590  0.00  0.00    -0.353 OA
BRANCH  33  34
ATOM     34  C14 C41 d   1      13.931  50.247  74.158  0.00  0.00     0.010 C 
ATOM     35  H13 C41 d   1      14.893  50.261  74.692  0.00  0.00     0.066 H 
ATOM     36  H14 C41 d   1      13.118  50.479  74.861  0.00  0.00     0.066 H 
ATOM     37  H15 C41 d   1      13.947  50.998  73.355  0.00  0.00     0.066 H 
ENDBRANCH  33  34
ENDBRANCH  13  33
ENDBRANCH   6   9
ENDBRANCH   4   6
BRANCH   4  38
ATOM     38  C17 C41 d   1      10.244  48.004  68.417  0.00  0.00    -0.057 C 
ATOM     39  H19 C41 d   1      11.133  48.217  69.028  0.00  0.00     0.039 H 
BRANCH  38  40
ATOM     40  C18 C41 d   1      10.734  47.434  67.079  0.00  0.00    -0.073 C 
ATOM     41  H20 C41 d   1      11.338  48.191  66.557  0.00  0.00     0.028 H 
ATOM     42  H21 C41 d   1       9.868  47.163  66.457  0.00  0.00     0.028 H 
ATOM     43  H22 C41 d   1      11.347  46.540  67.264  0.00  0.00     0.028 H 
ENDBRANCH  38  40
BRANCH  38  44
ATOM     44  C19 C41 d   1       9.481  49.339  68.234  0.00  0.00    -0.073 C 
ATOM     45  H23 C41 d   1       9.150  49.709  69.215  0.00  0.00     0.028 H 
ATOM     46  H24 C41 d   1       8.605  49.175  67.589  0.00  0.00     0.028 H 
ATOM     47  H25 C41 d   1      10.146  50.081  67.768  0.00  0.00     0.028 H 
ENDBRANCH  38  44
ENDBRANCH   4  38
ENDBRANCH   1   4
BRANCH   1  48
ATOM     48  C21 C41 d   1       7.283  45.464  68.973  0.00  0.00     0.125 C 
ATOM     49  H28 C41 d   1       7.075  45.591  70.046  0.00  0.00     0.087 H 
BRANCH  48  50
ATOM     50  N22 C41 d   1       8.109  44.251  68.770  0.00  0.00    -0.073 N 
ATOM     51  H29 C41 d   1       7.607  43.443  69.104  0.00  0.00     0.274 HD
ATOM     52  H30 C41 d   1       8.973  44.344  69.280  0.00  0.00     0.274 HD
ATOM     53  H31 C41 d   1       8.308  44.141  67.788  0.00  0.00     0.274 HD
ENDBRANCH  48  50
BRANCH  48  54
ATOM     54  C23 C41 d   1       5.949  45.318  68.214  0.00  0.00     0.063 C 
ATOM     55  H32 C41 d   1       5.466  46.303  68.136  0.00  0.00     0.086 H 
BRANCH  54  56
ATOM     56  O24 C41 d   1       6.223  44.801  66.908  0.00  0.00    -0.393 OA
ATOM     57  H33 C41 d   1       6.796  45.401  66.445  0.00  0.00     0.210 HD
ENDBRANCH  54  56
BRANCH  54  58
ATOM     58  C25 C41 d   1       4.993  44.333  68.923  0.00  0.00    -0.027 C 
ATOM     59  H34 C41 d   1       4.738  44.748  69.909  0.00  0.00     0.038 H 
ATOM     60  H35 C41 d   1       5.518  43.375  69.053  0.00  0.00     0.038 H 
BRANCH  58  61
ATOM     61  C26 C41 d   1       3.673  44.065  68.151  0.00  0.00     0.029 C 
ATOM     62  H36 C41 d   1       3.918  43.512  67.232  0.00  0.00     0.055 H 
BRANCH  61  63
ATOM     63  C27 C41 d   1       2.660  43.206  68.976  0.00  0.00    -0.049 C 
ATOM     64  H37 C41 d   1       2.368  43.783  69.866  0.00  0.00     0.040 H 
BRANCH  63  65
ATOM     65  C28 C41 d   1       1.386  42.909  68.149  0.00  0.00    -0.072 C 
ATOM     66  H38 C41 d   1       0.691  42.305  68.751  0.00  0.00     0.028 H 
ATOM     67  H39 C41 d   1       1.660  42.355  67.239  0.00  0.00     0.028 H 
ATOM     68  H40 C41 d   1       0.901  43.856  67.870  0.00  0.00     0.028 H 
ENDBRANCH  63  65
BRANCH  63  69
ATOM     69  C29 C41 d   1       3.296  41.897  69.440  0.00  0.00    -0.072 C 
ATOM     70  H41 C41 d   1       4.200  42.117  70.027  0.00  0.00     0.028 H 
ATOM     71  H42 C41 d   1       3.566  41.290  68.564  0.00  0.00     0.028 H 
ATOM     72  H43 C41 d   1       2.580  41.342  70.064  0.00  0.00     0.028 H 
ENDBRANCH  63  69
ENDBRANCH  61  63
BRANCH  61  73
ATOM     73  C30 C41 d   1       3.042  45.399  67.765  0.00  0.00     0.222 C 
ATOM     74  O31 C41 d   1       2.704  46.224  68.628  0.00  0.00    -0.273 OA
ATOM     75  N32 C41 d   1       2.932  45.622  66.463  0.00  0.00    -0.360 N 
ATOM     76  H44 C41 d   1       3.228  44.900  65.838  0.00  0.00     0.162 HD
BRANCH  75  77
ATOM     77  C33 C41 d   1       2.406  46.856  65.882  0.00  0.00     0.010 C 
ATOM     78  H45 C41 d   1       3.185  47.294  65.240  0.00  0.00     0.065 H 
ATOM     79  H46 C41 d   1       2.174  47.551  66.703  0.00  0.00     0.065 H 
BRANCH  77  80
ATOM     80  C34 C41 d   1       1.149  46.671  65.045  0.00  0.00     0.049 C 
BRANCH  80  81
ATOM     81  C35 C41 d   1       1.389  45.696  63.877  0.00  0.00    -0.059 C 
ATOM     82  H47 C41 d   1       0.462  45.586  63.295  0.00  0.00     0.029 H 
ATOM     83  H48 C41 d   1       1.691  44.716  64.274  0.00  0.00     0.029 H 
ATOM     84  H49 C41 d   1       2.185  46.090  63.228  0.00  0.00     0.029 H 
ENDBRANCH  80  81
BRANCH  80  85
ATOM     85  C36 C41 d   1       0.781  48.030  64.479  0.00  0.00    -0.059 C 
ATOM     86  H50 C41 d   1       0.607  48.736  65.304  0.00  0.00     0.029 H 
ATOM     87  H51 C41 d   1      -0.134  47.940  63.874  0.00  0.00     0.029 H 
ATOM     88  H52 C41 d   1       1.603  48.399  63.848  0.00  0.00     0.029 H 
ENDBRANCH  80  85
BRANCH  80  89
ATOM     89  C37 C41 d   1       0.112  46.250  65.915  0.00  0.00     0.225 C 
ATOM     90  O38 C41 d   1      -0.381  45.130  65.757  0.00  0.00    -0.273 OA
ATOM     91  N39 C41 d   1      -0.230  47.035  66.933  0.00  0.00    -0.369 N 
ATOM     92  H53 C41 d   1      -0.959  46.755  67.557  0.00  0.00     0.159 HD
ATOM     93  H54 C41 d   1       0.242  47.905  67.074  0.00  0.00     0.159 HD
ENDBRANCH  80  89
ENDBRANCH  77  80
ENDBRANCH  75  77
ENDBRANCH  61  73
ENDBRANCH  58  61
ENDBRANCH  54  58
ENDBRANCH  48  54
ENDBRANCH   1  48
TORSDOF 29
