REMARK  26 active torsions:
REMARK  status: ('A' for Active; 'I' for Inactive)
REMARK    1  A    between atoms: O3_2  and  C2_1 
REMARK    2  A    between atoms: C4_3  and  O3_2 
REMARK    3  A    between atoms: C5_4  and  C4_3 
REMARK    4  A    between atoms: C6_5  and  C5_4 
REMARK    5  A    between atoms: O7_6  and  C6_5 
REMARK    6  A    between atoms: C11_10  and  O7_6 
REMARK    7  A    between atoms: O8_7  and  C9_8 
REMARK    8  A    between atoms: C12_11  and  O8_7 
REMARK    9  A    between atoms: C15_14  and  C16_15 
REMARK   10  A    between atoms: C16_15  and  C17_16 
REMARK   11  A    between atoms: C17_16  and  C18_17 
REMARK   12  A    between atoms: C17_16  and  C21_20 
REMARK   13  A    between atoms: C18_17  and  C19_18 
REMARK   14  A    between atoms: C18_17  and  C20_19 
REMARK   15  A    between atoms: C21_20  and  C22_21 
REMARK   16  A    between atoms: C22_21  and  N23_22 
REMARK   17  A    between atoms: C22_21  and  C24_23 
REMARK   18  A    between atoms: C24_23  and  O25_24 
REMARK   19  A    between atoms: C24_23  and  C26_25 
REMARK   20  A    between atoms: C26_25  and  C27_26 
REMARK   21  A    between atoms: C27_26  and  C28_27 
REMARK   22  A    between atoms: C27_26  and  C29_28 
REMARK       I    between atoms: C29_28  and  N31_30 
REMARK   23  A    between atoms: N31_30  and  C32_31 
REMARK   24  A    between atoms: C32_31  and  C33_32 
REMARK   25  A    between atoms: C33_32  and  C34_33 
REMARK   26  A    between atoms: C34_33  and  C35_34 
ROOT
ATOM      1  C17 C61 d   1       9.725  48.899  69.556  0.00  0.00    -0.046 C 
ATOM      2  H18 C61 d   1      10.639  48.346  69.819  0.00  0.00     0.041 H 
ENDROOT
BRANCH   1   3
ATOM      3  C16 C61 d   1       9.029  49.383  70.828  0.00  0.00    -0.037 C 
ATOM      4  H16 C61 d   1       8.432  50.281  70.610  0.00  0.00     0.040 H 
ATOM      5  H17 C61 d   1       8.373  48.592  71.220  0.00  0.00     0.040 H 
BRANCH   3   6
ATOM      6  C15 C61 d   1      10.107  49.713  71.846  0.00  0.00    -0.055 A 
ATOM      7  C10 C61 d   1      11.150  48.815  72.011  0.00  0.00    -0.042 A 
ATOM      8  C11 C61 d   1      12.183  49.090  72.927  0.00  0.00     0.102 A 
ATOM      9  H13 C61 d   1      11.170  47.898  71.433  0.00  0.00     0.088 H 
ATOM     10  C12 C61 d   1      12.167  50.266  73.680  0.00  0.00     0.101 A 
ATOM     11  C13 C61 d   1      11.122  51.173  73.513  0.00  0.00    -0.048 A 
ATOM     12  C14 C61 d   1      10.094  50.903  72.587  0.00  0.00    -0.074 A 
ATOM     13  H14 C61 d   1      11.100  52.087  74.096  0.00  0.00     0.087 H 
ATOM     14  H15 C61 d   1       9.291  51.618  72.448  0.00  0.00     0.084 H 
BRANCH   8  15
ATOM     15  O7  C61 d   1      13.237  48.126  73.099  0.00  0.00    -0.348 OA
BRANCH  15  16
ATOM     16  C6  C61 d   1      13.284  47.261  71.971  0.00  0.00     0.028 C 
ATOM     17  H8  C61 d   1      12.368  46.653  71.944  0.00  0.00     0.075 H 
ATOM     18  H9  C61 d   1      13.350  47.866  71.055  0.00  0.00     0.075 H 
BRANCH  16  19
ATOM     19  C5  C61 d   1      14.488  46.344  72.049  0.00  0.00    -0.025 C 
ATOM     20  H6  C61 d   1      15.402  46.944  72.173  0.00  0.00     0.039 H 
ATOM     21  H7  C61 d   1      14.378  45.662  72.905  0.00  0.00     0.039 H 
BRANCH  19  22
ATOM     22  C4  C61 d   1      14.579  45.525  70.743  0.00  0.00     0.021 C 
ATOM     23  H4  C61 d   1      13.898  44.663  70.796  0.00  0.00     0.074 H 
ATOM     24  H5  C61 d   1      14.303  46.158  69.887  0.00  0.00     0.074 H 
BRANCH  22  25
ATOM     25  O3  C61 d   1      15.916  45.072  70.593  0.00  0.00    -0.396 OA
BRANCH  25  26
ATOM     26  C2  C61 d   1      15.879  43.908  69.803  0.00  0.00     0.004 C 
ATOM     27  H1  C61 d   1      16.901  43.526  69.665  0.00  0.00     0.066 H 
ATOM     28  H2  C61 d   1      15.440  44.144  68.823  0.00  0.00     0.066 H 
ATOM     29  H3  C61 d   1      15.267  43.144  70.305  0.00  0.00     0.066 H 
ENDBRANCH  25  26
ENDBRANCH  22  25
ENDBRANCH  19  22
ENDBRANCH  16  19
ENDBRANCH  15  16
ENDBRANCH   8  15
BRANCH  10  30
ATOM     30  O8  C61 d   1      13.217  50.543  74.617  0.00  0.00    -0.353 OA
BRANCH  30  31
ATOM     31  C9  C61 d   1      12.985  50.815  76.033  0.00  0.00     0.010 C 
ATOM     32  H10 C61 d   1      13.947  50.995  76.534  0.00  0.00     0.066 H 
ATOM     33  H11 C61 d   1      12.487  49.950  76.496  0.00  0.00     0.066 H 
ATOM     34  H12 C61 d   1      12.346  51.704  76.136  0.00  0.00     0.066 H 
ENDBRANCH  30  31
ENDBRANCH  10  30
ENDBRANCH   3   6
ENDBRANCH   1   3
BRANCH   1  35
ATOM     35  C18 C61 d   1      10.109  50.136  68.719  0.00  0.00    -0.057 C 
ATOM     36  H19 C61 d   1      10.777  50.800  69.287  0.00  0.00     0.039 H 
BRANCH  35  37
ATOM     37  C19 C61 d   1      10.761  49.639  67.624  0.00  0.00    -0.073 C 
ATOM     38  H20 C61 d   1      11.069  50.470  66.972  0.00  0.00     0.028 H 
ATOM     39  H21 C61 d   1      10.088  48.968  67.070  0.00  0.00     0.028 H 
ATOM     40  H22 C61 d   1      11.650  49.079  67.950  0.00  0.00     0.028 H 
ENDBRANCH  35  37
BRANCH  35  41
ATOM     41  C20 C61 d   1       8.863  50.884  68.351  0.00  0.00    -0.073 C 
ATOM     42  H23 C61 d   1       8.379  51.261  69.264  0.00  0.00     0.028 H 
ATOM     43  H24 C61 d   1       8.173  50.210  67.822  0.00  0.00     0.028 H 
ATOM     44  H25 C61 d   1       9.123  51.730  67.697  0.00  0.00     0.028 H 
ENDBRANCH  35  41
ENDBRANCH   1  35
BRANCH   1  45
ATOM     45  C21 C61 d   1       8.783  47.967  68.809  0.00  0.00    -0.032 C 
ATOM     46  H26 C61 d   1       9.367  47.308  68.150  0.00  0.00     0.036 H 
ATOM     47  H27 C61 d   1       8.082  48.562  68.205  0.00  0.00     0.036 H 
BRANCH  45  48
ATOM     48  C22 C61 d   1       7.991  47.111  69.819  0.00  0.00     0.125 C 
ATOM     49  H28 C61 d   1       7.569  47.763  70.598  0.00  0.00     0.087 H 
BRANCH  48  50
ATOM     50  N23 C61 d   1       8.885  46.135  70.435  0.00  0.00    -0.073 N 
ATOM     51  H29 C61 d   1       8.368  45.575  71.095  0.00  0.00     0.274 HD
ATOM     52  H30 C61 d   1       9.630  46.617  70.914  0.00  0.00     0.274 HD
ATOM     53  H31 C61 d   1       9.274  45.539  69.722  0.00  0.00     0.274 HD
ENDBRANCH  48  50
BRANCH  48  54
ATOM     54  C24 C61 d   1       6.844  46.377  69.090  0.00  0.00     0.063 C 
ATOM     55  H32 C61 d   1       6.246  47.131  68.557  0.00  0.00     0.086 H 
BRANCH  54  56
ATOM     56  O25 C61 d   1       7.356  45.427  68.117  0.00  0.00    -0.393 OA
ATOM     57  H33 C61 d   1       7.878  45.888  67.471  0.00  0.00     0.210 HD
ENDBRANCH  54  56
BRANCH  54  58
ATOM     58  C26 C61 d   1       5.928  45.642  70.068  0.00  0.00    -0.028 C 
ATOM     59  H34 C61 d   1       5.342  46.365  70.655  0.00  0.00     0.038 H 
ATOM     60  H35 C61 d   1       6.524  45.016  70.748  0.00  0.00     0.038 H 
BRANCH  58  61
ATOM     61  C27 C61 d   1       5.005  44.776  69.237  0.00  0.00     0.023 C 
ATOM     62  H36 C61 d   1       5.615  44.251  68.487  0.00  0.00     0.054 H 
BRANCH  61  63
ATOM     63  C28 C61 d   1       4.264  43.699  70.174  0.00  0.00    -0.065 C 
ATOM     64  H37 C61 d   1       3.597  43.076  69.560  0.00  0.00     0.028 H 
ATOM     65  H38 C61 d   1       3.674  44.224  70.940  0.00  0.00     0.028 H 
ATOM     66  H39 C61 d   1       5.014  43.060  70.663  0.00  0.00     0.028 H 
ENDBRANCH  61  63
BRANCH  61  67
ATOM     67  C29 C61 d   1       3.894  45.566  68.506  0.00  0.00     0.225 C 
ATOM     68  O30 C61 d   1       3.071  46.254  69.121  0.00  0.00    -0.273 OA
ATOM     69  N31 C61 d   1       3.846  45.415  67.194  0.00  0.00    -0.337 N 
ATOM     70  H40 C61 d   1       4.566  44.884  66.747  0.00  0.00     0.168 HD
BRANCH  69  71
ATOM     71  C32 C61 d   1       2.801  45.983  66.379  0.00  0.00    -0.024 C 
ATOM     72  H41 C61 d   1       2.146  45.345  65.787  0.00  0.00     0.110 H 
BRANCH  71  73
ATOM     73  C33 C61 d   1       2.641  47.450  66.366  0.00  0.00    -0.088 C 
ATOM     74  H42 C61 d   1       3.233  48.144  66.960  0.00  0.00     0.078 H 
BRANCH  73  75
ATOM     75  C34 C61 d   1       1.518  47.862  65.393  0.00  0.00    -0.052 C 
ATOM     76  H43 C61 d   1       0.581  47.985  65.957  0.00  0.00     0.038 H 
ATOM     77  H44 C61 d   1       1.390  47.073  64.637  0.00  0.00     0.038 H 
BRANCH  75  78
ATOM     78  C35 C61 d   1       1.860  49.195  64.681  0.00  0.00    -0.073 C 
ATOM     79  H45 C61 d   1       1.044  49.464  63.995  0.00  0.00     0.027 H 
ATOM     80  H46 C61 d   1       2.794  49.078  64.112  0.00  0.00     0.027 H 
ATOM     81  H47 C61 d   1       1.985  49.990  65.431  0.00  0.00     0.027 H 
ENDBRANCH  75  78
ENDBRANCH  73  75
ENDBRANCH  71  73
ENDBRANCH  69  71
ENDBRANCH  61  67
ENDBRANCH  58  61
ENDBRANCH  54  58
ENDBRANCH  48  54
ENDBRANCH  45  48
ENDBRANCH   1  45
TORSDOF 26
