REMARK  20 active torsions:
REMARK  status: ('A' for Active; 'I' for Inactive)
REMARK    1  A    between atoms: C6_6  and  C7_7 
REMARK    2  A    between atoms: C7_7  and  N8_8 
REMARK    3  A    between atoms: C15_13  and  C17_17 
REMARK    4  A    between atoms: C17_17  and  O19_19 
REMARK    5  A    between atoms: O19_19  and  C20_20 
REMARK    6  A    between atoms: C20_20  and  C21_21 
REMARK    7  A    between atoms: C21_21  and  C22_22 
REMARK    8  A    between atoms: C21_21  and  C23_23 
REMARK    9  A    between atoms: C23_23  and  C24_24 
REMARK   10  A    between atoms: C24_24  and  N25_25 
REMARK   11  A    between atoms: C24_24  and  C26_26 
REMARK   12  A    between atoms: C26_26  and  O27_27 
REMARK   13  A    between atoms: C26_26  and  C28_28 
REMARK   14  A    between atoms: C28_28  and  C29_29 
REMARK   15  A    between atoms: C29_29  and  C30_30 
REMARK   16  A    between atoms: C29_29  and  C31_31 
REMARK       I    between atoms: C31_31  and  N33_33 
REMARK   17  A    between atoms: N33_33  and  C34_34 
REMARK   18  A    between atoms: C34_34  and  C35_35 
REMARK   19  A    between atoms: C35_35  and  C36_36 
REMARK   20  A    between atoms: C36_36  and  C37_37 
ROOT
ATOM      1  C21 C80 d   1       8.302  48.046  69.388  0.00  0.00    -0.034 C 
ATOM      2  H15 C80 d   1       7.678  48.729  69.983  0.00  0.00     0.042 H 
ENDROOT
BRANCH   1   3
ATOM      3  C20 C80 d   1       9.726  48.369  69.395  0.00  0.00     0.032 C 
ATOM      4  H13 C80 d   1      10.280  47.636  70.000  0.00  0.00     0.075 H 
ATOM      5  H14 C80 d   1      10.121  48.370  68.368  0.00  0.00     0.075 H 
BRANCH   3   6
ATOM      6  O19 C80 d   1       9.839  49.651  69.961  0.00  0.00    -0.317 OA
BRANCH   6   7
ATOM      7  C17 C80 d   1      10.036  49.646  71.198  0.00  0.00     0.295 C 
ATOM      8  O18 C80 d   1       9.163  50.137  71.924  0.00  0.00    -0.259 OA
BRANCH   7   9
ATOM      9  C15 C80 d   1      11.207  49.169  71.818  0.00  0.00     0.067 A 
ATOM     10  C16 C80 d   1      11.829  47.942  71.743  0.00  0.00    -0.003 A 
ATOM     11  N8  C80 d   1      12.821  48.043  72.590  0.00  0.00    -0.351 N 
ATOM     12  H8  C80 d   1      11.558  47.088  71.124  0.00  0.00     0.113 H 
ATOM     13  C9  C80 d   1      12.869  49.294  73.128  0.00  0.00     0.045 A 
ATOM     14  C14 C80 d   1      11.798  50.068  72.666  0.00  0.00     0.008 A 
ATOM     15  C10 C80 d   1      13.774  49.832  74.037  0.00  0.00    -0.056 A 
ATOM     16  C13 C80 d   1      11.611  51.368  73.089  0.00  0.00    -0.070 A 
ATOM     17  C12 C80 d   1      12.518  51.889  73.997  0.00  0.00    -0.082 A 
ATOM     18  H9  C80 d   1      10.781  51.962  72.723  0.00  0.00     0.084 H 
ATOM     19  C11 C80 d   1      13.585  51.136  74.466  0.00  0.00    -0.081 A 
ATOM     20  H12 C80 d   1      12.392  52.907  74.349  0.00  0.00     0.083 H 
ATOM     21  H11 C80 d   1      14.278  51.573  75.176  0.00  0.00     0.083 H 
ATOM     22  H10 C80 d   1      14.609  49.244  74.402  0.00  0.00     0.087 H 
BRANCH  11  23
ATOM     23  C7  C80 d   1      13.726  46.964  72.961  0.00  0.00     0.023 C 
ATOM     24  H6  C80 d   1      14.584  47.415  73.481  0.00  0.00     0.072 H 
ATOM     25  H7  C80 d   1      13.185  46.301  73.652  0.00  0.00     0.072 H 
BRANCH  23  26
ATOM     26  C6  C80 d   1      14.274  46.103  71.833  0.00  0.00    -0.040 A 
ATOM     27  C1  C80 d   1      15.098  46.628  70.863  0.00  0.00    -0.075 A 
ATOM     28  C2  C80 d   1      15.633  45.801  69.877  0.00  0.00    -0.082 A 
ATOM     29  H1  C80 d   1      15.331  47.687  70.866  0.00  0.00     0.084 H 
ATOM     30  C3  C80 d   1      15.353  44.448  69.841  0.00  0.00    -0.083 A 
ATOM     31  H2  C80 d   1      16.283  46.228  69.122  0.00  0.00     0.083 H 
ATOM     32  C4  C80 d   1      14.526  43.922  70.809  0.00  0.00    -0.082 A 
ATOM     33  H3  C80 d   1      15.775  43.815  69.069  0.00  0.00     0.083 H 
ATOM     34  C5  C80 d   1      13.992  44.751  71.795  0.00  0.00    -0.075 A 
ATOM     35  H4  C80 d   1      14.290  42.864  70.804  0.00  0.00     0.083 H 
ATOM     36  H5  C80 d   1      13.341  44.325  72.549  0.00  0.00     0.084 H 
ENDBRANCH  23  26
ENDBRANCH  11  23
ENDBRANCH   7   9
ENDBRANCH   6   7
ENDBRANCH   3   6
ENDBRANCH   1   3
BRANCH   1  37
ATOM     37  C22 C80 d   1       8.058  48.191  67.921  0.00  0.00    -0.071 C 
ATOM     38  H16 C80 d   1       7.001  47.980  67.703  0.00  0.00     0.028 H 
ATOM     39  H17 C80 d   1       8.694  47.482  67.372  0.00  0.00     0.028 H 
ATOM     40  H18 C80 d   1       8.299  49.218  67.609  0.00  0.00     0.028 H 
ENDBRANCH   1  37
BRANCH   1  41
ATOM     41  C23 C80 d   1       8.213  46.644  69.915  0.00  0.00    -0.031 C 
ATOM     42  H19 C80 d   1       8.678  46.656  70.912  0.00  0.00     0.036 H 
ATOM     43  H20 C80 d   1       8.813  46.018  69.238  0.00  0.00     0.036 H 
BRANCH  41  44
ATOM     44  C24 C80 d   1       6.870  45.943  70.074  0.00  0.00     0.125 C 
ATOM     45  H21 C80 d   1       6.267  46.519  70.792  0.00  0.00     0.087 H 
BRANCH  44  46
ATOM     46  N25 C80 d   1       7.010  44.579  70.529  0.00  0.00    -0.073 N 
ATOM     47  H22 C80 d   1       6.098  44.159  70.618  0.00  0.00     0.274 HD
ATOM     48  H23 C80 d   1       7.473  44.569  71.424  0.00  0.00     0.274 HD
ATOM     49  H24 C80 d   1       7.556  44.057  69.862  0.00  0.00     0.274 HD
ENDBRANCH  44  46
BRANCH  44  50
ATOM     50  C26 C80 d   1       6.141  45.806  68.806  0.00  0.00     0.063 C 
ATOM     51  H25 C80 d   1       5.637  44.890  69.147  0.00  0.00     0.086 H 
BRANCH  50  52
ATOM     52  O27 C80 d   1       6.971  45.067  67.930  0.00  0.00    -0.393 OA
ATOM     53  H26 C80 d   1       7.788  45.535  67.800  0.00  0.00     0.210 HD
ENDBRANCH  50  52
BRANCH  50  54
ATOM     54  C28 C80 d   1       4.776  46.390  68.528  0.00  0.00    -0.028 C 
ATOM     55  H27 C80 d   1       4.939  47.260  67.875  0.00  0.00     0.038 H 
ATOM     56  H28 C80 d   1       4.381  46.728  69.498  0.00  0.00     0.038 H 
BRANCH  54  57
ATOM     57  C29 C80 d   1       3.691  45.586  67.891  0.00  0.00     0.022 C 
ATOM     58  H29 C80 d   1       3.991  45.219  66.898  0.00  0.00     0.054 H 
BRANCH  57  59
ATOM     59  C30 C80 d   1       3.302  44.437  68.776  0.00  0.00    -0.065 C 
ATOM     60  H30 C80 d   1       2.503  43.856  68.293  0.00  0.00     0.028 H 
ATOM     61  H31 C80 d   1       2.942  44.823  69.741  0.00  0.00     0.028 H 
ATOM     62  H32 C80 d   1       4.176  43.790  68.943  0.00  0.00     0.028 H 
ENDBRANCH  57  59
BRANCH  57  63
ATOM     63  C31 C80 d   1       2.539  46.561  67.803  0.00  0.00     0.221 C 
ATOM     64  O32 C80 d   1       1.813  46.735  68.779  0.00  0.00    -0.273 OA
ATOM     65  N33 C80 d   1       2.352  47.348  66.756  0.00  0.00    -0.361 N 
ATOM     66  H33 C80 d   1       2.659  48.299  66.798  0.00  0.00     0.162 HD
BRANCH  65  67
ATOM     67  C34 C80 d   1       1.719  46.867  65.563  0.00  0.00    -0.005 C 
ATOM     68  H34 C80 d   1       0.954  46.120  65.822  0.00  0.00     0.064 H 
ATOM     69  H35 C80 d   1       2.469  46.410  64.901  0.00  0.00     0.064 H 
BRANCH  67  70
ATOM     70  C35 C80 d   1       1.082  48.026  64.879  0.00  0.00    -0.051 C 
ATOM     71  H36 C80 d   1       0.482  48.596  65.603  0.00  0.00     0.035 H 
ATOM     72  H37 C80 d   1       0.432  47.664  64.069  0.00  0.00     0.035 H 
BRANCH  70  73
ATOM     73  C36 C80 d   1       2.165  48.920  64.301  0.00  0.00    -0.067 C 
ATOM     74  H38 C80 d   1       2.948  49.055  65.062  0.00  0.00     0.032 H 
ATOM     75  H39 C80 d   1       1.718  49.895  64.057  0.00  0.00     0.032 H 
BRANCH  73  76
ATOM     76  C37 C80 d   1       2.829  48.339  63.002  0.00  0.00    -0.076 C 
ATOM     77  H40 C80 d   1       3.600  49.036  62.641  0.00  0.00     0.027 H 
ATOM     78  H41 C80 d   1       2.061  48.207  62.225  0.00  0.00     0.027 H 
ATOM     79  H42 C80 d   1       3.291  47.367  63.230  0.00  0.00     0.027 H 
ENDBRANCH  73  76
ENDBRANCH  70  73
ENDBRANCH  67  70
ENDBRANCH  65  67
ENDBRANCH  57  63
ENDBRANCH  54  57
ENDBRANCH  50  54
ENDBRANCH  44  50
ENDBRANCH  41  44
ENDBRANCH   1  41
TORSDOF 20
