REMARK  25 active torsions:
REMARK  status: ('A' for Active; 'I' for Inactive)
REMARK    1  A    between atoms: C1_1  and  O2_2 
REMARK    2  A    between atoms: O2_2  and  C3_3 
REMARK    3  A    between atoms: C3_3  and  C4_4 
REMARK    4  A    between atoms: C4_4  and  C5_5 
REMARK    5  A    between atoms: C5_5  and  O6_6 
REMARK    6  A    between atoms: O6_6  and  C7_7 
REMARK    7  A    between atoms: C12_12  and  C13_13 
REMARK       I    between atoms: C13_13  and  N15_15 
REMARK    8  A    between atoms: N15_15  and  C16_16 
REMARK    9  A    between atoms: C16_16  and  C17_17 
REMARK   10  A    between atoms: C17_17  and  C18_18 
REMARK   11  A    between atoms: C17_17  and  C21_21 
REMARK   12  A    between atoms: C18_18  and  C19_19 
REMARK   13  A    between atoms: C18_18  and  C20_20 
REMARK   14  A    between atoms: C21_21  and  C22_22 
REMARK   15  A    between atoms: C22_22  and  N23_23 
REMARK   16  A    between atoms: C22_22  and  C24_24 
REMARK   17  A    between atoms: C24_24  and  O25_25 
REMARK   18  A    between atoms: C24_24  and  C26_26 
REMARK   19  A    between atoms: C26_26  and  C27_27 
REMARK   20  A    between atoms: C27_27  and  C28_28 
REMARK   21  A    between atoms: C27_27  and  C29_29 
REMARK       I    between atoms: C29_29  and  N31_31 
REMARK   22  A    between atoms: N31_31  and  C32_32 
REMARK   23  A    between atoms: C32_32  and  C33_33 
REMARK   24  A    between atoms: C33_33  and  C34_34 
REMARK   25  A    between atoms: C34_34  and  C35_35 
ROOT
ATOM      1  C17 C39 d   1       9.392  47.917  69.310  0.00  0.00    -0.034 C 
ATOM      2  H17 C39 d   1      10.079  47.140  68.944  0.00  0.00     0.043 H 
ENDROOT
BRANCH   1   3
ATOM      3  C16 C39 d   1       9.442  47.901  70.804  0.00  0.00    -0.001 C 
ATOM      4  H15 C39 d   1       8.510  48.324  71.206  0.00  0.00     0.064 H 
ATOM      5  H16 C39 d   1       9.556  46.865  71.155  0.00  0.00     0.064 H 
BRANCH   3   6
ATOM      6  N15 C39 d   1      10.560  48.687  71.258  0.00  0.00    -0.356 N 
ATOM      7  C13 C39 d   1      10.459  49.442  72.317  0.00  0.00     0.254 C 
ATOM      8  O14 C39 d   1       9.382  49.578  72.862  0.00  0.00    -0.268 OA
ATOM      9  H14 C39 d   1      11.424  48.654  70.755  0.00  0.00     0.162 HD
BRANCH   7  10
ATOM     10  C12 C39 d   1      11.617  49.763  72.991  0.00  0.00     0.065 A 
ATOM     11  C7  C39 d   1      12.681  48.842  73.037  0.00  0.00     0.084 A 
ATOM     12  C8  C39 d   1      13.873  49.217  73.595  0.00  0.00    -0.050 A 
ATOM     13  C9  C39 d   1      14.002  50.483  74.091  0.00  0.00    -0.080 A 
ATOM     14  H10 C39 d   1      14.702  48.520  73.643  0.00  0.00     0.087 H 
ATOM     15  C10 C39 d   1      12.953  51.370  74.024  0.00  0.00    -0.082 A 
ATOM     16  H11 C39 d   1      14.939  50.791  74.541  0.00  0.00     0.083 H 
ATOM     17  C11 C39 d   1      11.755  51.027  73.473  0.00  0.00    -0.065 A 
ATOM     18  H12 C39 d   1      13.083  52.370  74.421  0.00  0.00     0.083 H 
ATOM     19  H13 C39 d   1      10.939  51.738  73.421  0.00  0.00     0.085 H 
BRANCH  11  20
ATOM     20  O6  C39 d   1      12.703  47.557  72.515  0.00  0.00    -0.350 OA
BRANCH  20  21
ATOM     21  C5  C39 d   1      13.606  47.168  71.488  0.00  0.00     0.028 C 
ATOM     22  H8  C39 d   1      13.163  47.414  70.511  0.00  0.00     0.075 H 
ATOM     23  H9  C39 d   1      14.549  47.721  71.613  0.00  0.00     0.075 H 
BRANCH  21  24
ATOM     24  C4  C39 d   1      13.899  45.674  71.536  0.00  0.00    -0.025 C 
ATOM     25  H6  C39 d   1      14.556  45.474  72.395  0.00  0.00     0.039 H 
ATOM     26  H7  C39 d   1      12.949  45.136  71.668  0.00  0.00     0.039 H 
BRANCH  24  27
ATOM     27  C3  C39 d   1      14.581  45.153  70.271  0.00  0.00     0.021 C 
ATOM     28  H4  C39 d   1      13.877  44.513  69.718  0.00  0.00     0.074 H 
ATOM     29  H5  C39 d   1      14.874  46.006  69.641  0.00  0.00     0.074 H 
BRANCH  27  30
ATOM     30  O2  C39 d   1      15.737  44.398  70.601  0.00  0.00    -0.396 OA
BRANCH  30  31
ATOM     31  C1  C39 d   1      15.512  43.043  70.278  0.00  0.00     0.004 C 
ATOM     32  H1  C39 d   1      16.405  42.453  70.532  0.00  0.00     0.066 H 
ATOM     33  H2  C39 d   1      15.306  42.952  69.201  0.00  0.00     0.066 H 
ATOM     34  H3  C39 d   1      14.650  42.668  70.849  0.00  0.00     0.066 H 
ENDBRANCH  30  31
ENDBRANCH  27  30
ENDBRANCH  24  27
ENDBRANCH  21  24
ENDBRANCH  20  21
ENDBRANCH  11  20
ENDBRANCH   7  10
ENDBRANCH   3   6
ENDBRANCH   1   3
BRANCH   1  35
ATOM     35  C18 C39 d   1       9.800  49.260  68.680  0.00  0.00    -0.056 C 
ATOM     36  H18 C39 d   1       9.351  49.212  67.677  0.00  0.00     0.039 H 
BRANCH  35  37
ATOM     37  C19 C39 d   1      11.295  49.422  68.404  0.00  0.00    -0.073 C 
ATOM     38  H19 C39 d   1      11.480  50.410  67.957  0.00  0.00     0.028 H 
ATOM     39  H20 C39 d   1      11.627  48.637  67.709  0.00  0.00     0.028 H 
ATOM     40  H21 C39 d   1      11.854  49.336  69.348  0.00  0.00     0.028 H 
ENDBRANCH  35  37
BRANCH  35  41
ATOM     41  C20 C39 d   1       9.175  50.511  69.295  0.00  0.00    -0.073 C 
ATOM     42  H22 C39 d   1       8.103  50.337  69.471  0.00  0.00     0.028 H 
ATOM     43  H23 C39 d   1       9.300  51.360  68.607  0.00  0.00     0.028 H 
ATOM     44  H24 C39 d   1       9.671  50.737  70.250  0.00  0.00     0.028 H 
ENDBRANCH  35  41
ENDBRANCH   1  35
BRANCH   1  45
ATOM     45  C21 C39 d   1       8.000  47.610  68.832  0.00  0.00    -0.031 C 
ATOM     46  H25 C39 d   1       8.090  47.460  67.746  0.00  0.00     0.036 H 
ATOM     47  H26 C39 d   1       7.415  48.521  69.029  0.00  0.00     0.036 H 
BRANCH  45  48
ATOM     48  C22 C39 d   1       7.150  46.477  69.322  0.00  0.00     0.125 C 
ATOM     49  H27 C39 d   1       6.675  46.765  70.271  0.00  0.00     0.087 H 
BRANCH  48  50
ATOM     50  N23 C39 d   1       7.983  45.327  69.501  0.00  0.00    -0.073 N 
ATOM     51  H28 C39 d   1       7.424  44.556  69.831  0.00  0.00     0.274 HD
ATOM     52  H29 C39 d   1       8.702  45.535  70.177  0.00  0.00     0.274 HD
ATOM     53  H30 C39 d   1       8.410  45.081  68.621  0.00  0.00     0.274 HD
ENDBRANCH  48  50
BRANCH  48  54
ATOM     54  C24 C39 d   1       6.090  46.055  68.324  0.00  0.00     0.063 C 
ATOM     55  H31 C39 d   1       5.686  46.944  67.817  0.00  0.00     0.086 H 
BRANCH  54  56
ATOM     56  O25 C39 d   1       6.788  45.218  67.403  0.00  0.00    -0.393 OA
ATOM     57  H32 C39 d   1       7.487  45.714  66.993  0.00  0.00     0.210 HD
ENDBRANCH  54  56
BRANCH  54  58
ATOM     58  C26 C39 d   1       4.959  45.279  68.907  0.00  0.00    -0.028 C 
ATOM     59  H33 C39 d   1       4.647  45.778  69.836  0.00  0.00     0.038 H 
ATOM     60  H34 C39 d   1       5.324  44.268  69.139  0.00  0.00     0.038 H 
BRANCH  58  61
ATOM     61  C27 C39 d   1       3.751  45.145  68.024  0.00  0.00     0.022 C 
ATOM     62  H35 C39 d   1       4.071  44.779  67.037  0.00  0.00     0.054 H 
BRANCH  61  63
ATOM     63  C28 C39 d   1       2.810  44.158  68.653  0.00  0.00    -0.065 C 
ATOM     64  H36 C39 d   1       1.918  44.047  68.019  0.00  0.00     0.028 H 
ATOM     65  H37 C39 d   1       2.510  44.520  69.648  0.00  0.00     0.028 H 
ATOM     66  H38 C39 d   1       3.312  43.185  68.753  0.00  0.00     0.028 H 
ENDBRANCH  61  63
BRANCH  61  67
ATOM     67  C29 C39 d   1       3.017  46.429  67.848  0.00  0.00     0.221 C 
ATOM     68  O30 C39 d   1       3.100  47.277  68.708  0.00  0.00    -0.273 OA
ATOM     69  N31 C39 d   1       2.284  46.673  66.805  0.00  0.00    -0.361 N 
ATOM     70  H39 C39 d   1       1.643  45.986  66.465  0.00  0.00     0.162 HD
BRANCH  69  71
ATOM     71  C32 C39 d   1       2.406  47.942  66.147  0.00  0.00    -0.005 C 
ATOM     72  H40 C39 d   1       3.445  48.297  66.213  0.00  0.00     0.064 H 
ATOM     73  H41 C39 d   1       1.738  48.674  66.624  0.00  0.00     0.064 H 
BRANCH  71  74
ATOM     74  C33 C39 d   1       2.021  47.767  64.710  0.00  0.00    -0.051 C 
ATOM     75  H42 C39 d   1       0.934  47.614  64.643  0.00  0.00     0.035 H 
ATOM     76  H43 C39 d   1       2.541  46.888  64.301  0.00  0.00     0.035 H 
BRANCH  74  77
ATOM     77  C34 C39 d   1       2.403  48.995  63.899  0.00  0.00    -0.067 C 
ATOM     78  H44 C39 d   1       3.210  49.529  64.422  0.00  0.00     0.032 H 
ATOM     79  H45 C39 d   1       1.524  49.651  63.813  0.00  0.00     0.032 H 
BRANCH  77  80
ATOM     80  C35 C39 d   1       2.894  48.620  62.464  0.00  0.00    -0.076 C 
ATOM     81  H46 C39 d   1       3.159  49.536  61.916  0.00  0.00     0.027 H 
ATOM     82  H47 C39 d   1       2.092  48.091  61.928  0.00  0.00     0.027 H 
ATOM     83  H48 C39 d   1       3.777  47.969  62.537  0.00  0.00     0.027 H 
ENDBRANCH  77  80
ENDBRANCH  74  77
ENDBRANCH  71  74
ENDBRANCH  69  71
ENDBRANCH  61  67
ENDBRANCH  58  61
ENDBRANCH  54  58
ENDBRANCH  48  54
ENDBRANCH  45  48
ENDBRANCH   1  45
TORSDOF 25
