REMARK  23 active torsions:
REMARK  status: ('A' for Active; 'I' for Inactive)
REMARK    1  A    between atoms: C1_1  and  O2_2 
REMARK    2  A    between atoms: O2_2  and  C3_3 
REMARK    3  A    between atoms: C3_3  and  C4_4 
REMARK    4  A    between atoms: C4_4  and  C5_5 
REMARK    5  A    between atoms: C5_5  and  O6_6 
REMARK    6  A    between atoms: O6_6  and  C7_7 
REMARK    7  A    between atoms: C12_12  and  C13_13 
REMARK       I    between atoms: C13_13  and  N15_16 
REMARK    8  A    between atoms: N15_16  and  C16_15 
REMARK    9  A    between atoms: C16_15  and  C17_18 
REMARK   10  A    between atoms: C17_18  and  C18_17 
REMARK   11  A    between atoms: C17_18  and  C19_19 
REMARK   12  A    between atoms: C19_19  and  C20_21 
REMARK   13  A    between atoms: C20_21  and  N21_20 
REMARK   14  A    between atoms: C20_21  and  C22_22 
REMARK   15  A    between atoms: C22_22  and  O23_23 
REMARK   16  A    between atoms: C22_22  and  C24_24 
REMARK   17  A    between atoms: C24_24  and  C25_25 
REMARK   18  A    between atoms: C25_25  and  C26_26 
REMARK   19  A    between atoms: C25_25  and  C27_27 
REMARK       I    between atoms: C27_27  and  N29_30 
REMARK   20  A    between atoms: N29_30  and  C30_29 
REMARK   21  A    between atoms: C30_29  and  C31_31 
REMARK   22  A    between atoms: C31_31  and  C32_32 
REMARK   23  A    between atoms: C32_32  and  C33_33 
ROOT
ATOM      1  C19 C40 d   1      82.430  17.981 -38.779  0.00  0.00    -0.032 C 
ATOM      2  H21 C40 d   1      82.057  18.211 -39.788  0.00  0.00     0.036 H 
ATOM      3  H22 C40 d   1      81.747  17.272 -38.289  0.00  0.00     0.036 H 
ENDROOT
BRANCH   1   4
ATOM      4  C17 C40 d   1      82.414  19.253 -37.985  0.00  0.00    -0.040 C 
ATOM      5  H20 C40 d   1      83.082  19.991 -38.454  0.00  0.00     0.042 H 
BRANCH   4   6
ATOM      6  C16 C40 d   1      82.916  18.962 -36.615  0.00  0.00    -0.002 C 
ATOM      7  H14 C40 d   1      82.670  17.929 -36.328  0.00  0.00     0.064 H 
ATOM      8  H15 C40 d   1      84.005  19.106 -36.568  0.00  0.00     0.064 H 
BRANCH   6   9
ATOM      9  N15 C40 d   1      82.247  19.898 -35.745  0.00  0.00    -0.356 N 
ATOM     10  C13 C40 d   1      81.807  19.494 -34.583  0.00  0.00     0.254 C 
ATOM     11  O14 C40 d   1      81.831  18.295 -34.379  0.00  0.00    -0.268 OA
ATOM     12  H16 C40 d   1      82.121  20.849 -36.029  0.00  0.00     0.162 HD
BRANCH  10  13
ATOM     13  C12 C40 d   1      81.741  20.372 -33.487  0.00  0.00     0.065 A 
ATOM     14  C7  C40 d   1      82.711  21.347 -33.288  0.00  0.00     0.084 A 
ATOM     15  C8  C40 d   1      82.606  22.181 -32.187  0.00  0.00    -0.050 A 
ATOM     16  C9  C40 d   1      81.584  22.074 -31.290  0.00  0.00    -0.080 A 
ATOM     17  H10 C40 d   1      83.361  22.944 -32.033  0.00  0.00     0.087 H 
ATOM     18  C10 C40 d   1      80.640  21.129 -31.495  0.00  0.00    -0.082 A 
ATOM     19  H11 C40 d   1      81.530  22.733 -30.431  0.00  0.00     0.083 H 
ATOM     20  C11 C40 d   1      80.715  20.290 -32.585  0.00  0.00    -0.065 A 
ATOM     21  H12 C40 d   1      79.817  21.030 -30.796  0.00  0.00     0.083 H 
ATOM     22  H13 C40 d   1      79.941  19.545 -32.732  0.00  0.00     0.085 H 
BRANCH  14  23
ATOM     23  O6  C40 d   1      83.707  21.709 -34.179  0.00  0.00    -0.350 OA
BRANCH  23  24
ATOM     24  C5  C40 d   1      83.686  22.981 -34.803  0.00  0.00     0.028 C 
ATOM     25  H8  C40 d   1      83.150  22.887 -35.759  0.00  0.00     0.075 H 
ATOM     26  H9  C40 d   1      83.145  23.678 -34.146  0.00  0.00     0.075 H 
BRANCH  24  27
ATOM     27  C4  C40 d   1      85.057  23.558 -35.082  0.00  0.00    -0.025 C 
ATOM     28  H6  C40 d   1      85.539  23.918 -34.161  0.00  0.00     0.039 H 
ATOM     29  H7  C40 d   1      85.711  22.824 -35.575  0.00  0.00     0.039 H 
BRANCH  27  30
ATOM     30  C3  C40 d   1      84.708  24.697 -36.006  0.00  0.00     0.021 C 
ATOM     31  H4  C40 d   1      84.673  24.339 -37.045  0.00  0.00     0.074 H 
ATOM     32  H5  C40 d   1      83.730  25.117 -35.730  0.00  0.00     0.074 H 
BRANCH  30  33
ATOM     33  O2  C40 d   1      85.701  25.673 -35.871  0.00  0.00    -0.396 OA
BRANCH  33  34
ATOM     34  C1  C40 d   1      86.293  25.635 -37.160  0.00  0.00     0.004 C 
ATOM     35  H1  C40 d   1      87.112  26.367 -37.209  0.00  0.00     0.066 H 
ATOM     36  H2  C40 d   1      85.535  25.881 -37.919  0.00  0.00     0.066 H 
ATOM     37  H3  C40 d   1      86.690  24.627 -37.352  0.00  0.00     0.066 H 
ENDBRANCH  33  34
ENDBRANCH  30  33
ENDBRANCH  27  30
ENDBRANCH  24  27
ENDBRANCH  23  24
ENDBRANCH  14  23
ENDBRANCH  10  13
ENDBRANCH   6   9
ENDBRANCH   4   6
BRANCH   4  38
ATOM     38  C18 C40 d   1      80.961  19.811 -38.005  0.00  0.00    -0.071 C 
ATOM     39  H17 C40 d   1      80.656  20.003 -39.044  0.00  0.00     0.028 H 
ATOM     40  H18 C40 d   1      80.921  20.749 -37.432  0.00  0.00     0.028 H 
ATOM     41  H19 C40 d   1      80.279  19.076 -37.553  0.00  0.00     0.028 H 
ENDBRANCH   4  38
ENDBRANCH   1   4
BRANCH   1  42
ATOM     42  C20 C40 d   1      83.733  17.319 -38.924  0.00  0.00     0.125 C 
ATOM     43  H26 C40 d   1      84.007  16.819 -37.983  0.00  0.00     0.087 H 
BRANCH  42  44
ATOM     44  N21 C40 d   1      84.768  18.249 -39.287  0.00  0.00    -0.073 N 
ATOM     45  H23 C40 d   1      85.644  17.759 -39.377  0.00  0.00     0.274 HD
ATOM     46  H24 C40 d   1      84.850  18.956 -38.573  0.00  0.00     0.274 HD
ATOM     47  H25 C40 d   1      84.535  18.685 -40.166  0.00  0.00     0.274 HD
ENDBRANCH  42  44
BRANCH  42  48
ATOM     48  C22 C40 d   1      83.565  16.302 -40.036  0.00  0.00     0.063 C 
ATOM     49  H27 C40 d   1      82.520  15.965 -40.101  0.00  0.00     0.086 H 
BRANCH  48  50
ATOM     50  O23 C40 d   1      83.943  17.105 -41.157  0.00  0.00    -0.393 OA
ATOM     51  H28 C40 d   1      83.359  17.851 -41.222  0.00  0.00     0.210 HD
ENDBRANCH  48  50
BRANCH  48  52
ATOM     52  C24 C40 d   1      84.486  15.065 -39.962  0.00  0.00    -0.028 C 
ATOM     53  H29 C40 d   1      84.146  14.434 -39.128  0.00  0.00     0.038 H 
ATOM     54  H30 C40 d   1      85.511  15.412 -39.765  0.00  0.00     0.038 H 
BRANCH  52  55
ATOM     55  C25 C40 d   1      84.507  14.220 -41.213  0.00  0.00     0.022 C 
ATOM     56  H31 C40 d   1      84.586  14.909 -42.067  0.00  0.00     0.054 H 
BRANCH  55  57
ATOM     57  C26 C40 d   1      85.648  13.288 -41.234  0.00  0.00    -0.065 C 
ATOM     58  H32 C40 d   1      85.621  12.696 -42.161  0.00  0.00     0.028 H 
ATOM     59  H33 C40 d   1      85.587  12.614 -40.367  0.00  0.00     0.028 H 
ATOM     60  H34 C40 d   1      86.588  13.858 -41.190  0.00  0.00     0.028 H 
ENDBRANCH  55  57
BRANCH  55  61
ATOM     61  C27 C40 d   1      83.320  13.351 -41.416  0.00  0.00     0.221 C 
ATOM     62  O28 C40 d   1      82.697  12.922 -40.451  0.00  0.00    -0.273 OA
ATOM     63  N29 C40 d   1      83.016  13.048 -42.659  0.00  0.00    -0.361 N 
ATOM     64  H37 C40 d   1      83.651  13.287 -43.393  0.00  0.00     0.162 HD
BRANCH  63  65
ATOM     65  C30 C40 d   1      81.774  12.373 -42.982  0.00  0.00    -0.005 C 
ATOM     66  H35 C40 d   1      81.709  11.447 -42.393  0.00  0.00     0.064 H 
ATOM     67  H36 C40 d   1      81.771  12.127 -44.054  0.00  0.00     0.064 H 
BRANCH  65  68
ATOM     68  C31 C40 d   1      80.563  13.239 -42.673  0.00  0.00    -0.051 C 
ATOM     69  H38 C40 d   1      80.761  14.260 -43.032  0.00  0.00     0.035 H 
ATOM     70  H39 C40 d   1      80.413  13.256 -41.583  0.00  0.00     0.035 H 
BRANCH  68  71
ATOM     71  C32 C40 d   1      79.289  12.733 -43.330  0.00  0.00    -0.067 C 
ATOM     72  H40 C40 d   1      79.458  12.630 -44.412  0.00  0.00     0.032 H 
ATOM     73  H41 C40 d   1      78.480  13.457 -43.153  0.00  0.00     0.032 H 
BRANCH  71  74
ATOM     74  C33 C40 d   1      78.874  11.349 -42.743  0.00  0.00    -0.076 C 
ATOM     75  H42 C40 d   1      77.951  11.005 -43.233  0.00  0.00     0.027 H 
ATOM     76  H43 C40 d   1      78.700  11.447 -41.661  0.00  0.00     0.027 H 
ATOM     77  H44 C40 d   1      79.678  10.619 -42.920  0.00  0.00     0.027 H 
ENDBRANCH  71  74
ENDBRANCH  68  71
ENDBRANCH  65  68
ENDBRANCH  63  65
ENDBRANCH  55  61
ENDBRANCH  52  55
ENDBRANCH  48  52
ENDBRANCH  42  48
ENDBRANCH   1  42
TORSDOF 23
