REMARK  20 active torsions:
REMARK  status: ('A' for Active; 'I' for Inactive)
REMARK    1  A    between atoms: C1_1  and  O2_2 
REMARK    2  A    between atoms: O2_2  and  C3_3 
REMARK    3  A    between atoms: C3_3  and  C5_5 
REMARK       I    between atoms: N13_13  and  C15_15 
REMARK    4  A    between atoms: C15_15  and  C17_17 
REMARK    5  A    between atoms: C17_17  and  C18_18 
REMARK    6  A    between atoms: C18_18  and  C19_19 
REMARK    7  A    between atoms: C18_18  and  C20_20 
REMARK    8  A    between atoms: C18_18  and  C21_21 
REMARK    9  A    between atoms: C21_21  and  C22_22 
REMARK   10  A    between atoms: C22_22  and  N23_23 
REMARK   11  A    between atoms: C22_22  and  C24_24 
REMARK   12  A    between atoms: C24_24  and  O25_25 
REMARK   13  A    between atoms: C24_24  and  C26_26 
REMARK   14  A    between atoms: C26_26  and  C27_27 
REMARK   15  A    between atoms: C27_27  and  C28_28 
REMARK   16  A    between atoms: C27_27  and  C29_29 
REMARK       I    between atoms: C29_29  and  N31_31 
REMARK   17  A    between atoms: N31_31  and  C32_32 
REMARK   18  A    between atoms: C32_32  and  C33_33 
REMARK   19  A    between atoms: C33_33  and  C34_34 
REMARK   20  A    between atoms: C34_34  and  C35_35 
ROOT
ATOM      1  C18 C47 d   1       8.928  48.084  69.623  0.00  0.00    -0.037 C 
ENDROOT
BRANCH   1   2
ATOM      2  C17 C47 d   1       9.486  47.302  70.710  0.00  0.00     0.016 C 
ATOM      3  H13 C47 d   1       8.689  46.770  71.250  0.00  0.00     0.048 H 
ATOM      4  H14 C47 d   1      10.217  46.576  70.326  0.00  0.00     0.048 H 
BRANCH   2   5
ATOM      5  C15 C47 d   1      10.171  48.320  71.629  0.00  0.00     0.225 C 
ATOM      6  N13 C47 d   1      11.530  48.168  71.971  0.00  0.00    -0.317 N 
ATOM      7  C12 C47 d   1      12.248  49.242  72.760  0.00  0.00     0.043 C 
ATOM      8  C14 C47 d   1      12.167  46.963  71.600  0.00  0.00     0.015 C 
ATOM      9  C7  C47 d   1      13.500  48.817  73.336  0.00  0.00    -0.030 C 
ATOM     10  C11 C47 d   1      11.682  50.616  73.060  0.00  0.00    -0.056 C 
ATOM     11  C6  C47 d   1      14.003  47.479  72.968  0.00  0.00    -0.025 C 
ATOM     12  C8  C47 d   1      14.295  49.779  74.056  0.00  0.00    -0.075 C 
ATOM     13  C5  C47 d   1      13.611  47.137  71.547  0.00  0.00     0.050 C 
ATOM     14  H5  C47 d   1      15.100  47.469  73.053  0.00  0.00     0.041 H 
ATOM     15  H6  C47 d   1      13.575  46.731  73.651  0.00  0.00     0.041 H 
ATOM     16  H4  C47 d   1      13.996  47.787  70.747  0.00  0.00     0.058 H 
ATOM     17  C9  C47 d   1      13.673  51.138  74.323  0.00  0.00    -0.082 C 
ATOM     18  H7  C47 d   1      15.297  49.542  74.394  0.00  0.00     0.084 H 
ATOM     19  C10 C47 d   1      12.419  51.522  73.845  0.00  0.00    -0.081 C 
ATOM     20  H8  C47 d   1      14.234  51.850  74.918  0.00  0.00     0.083 H 
ATOM     21  H9  C47 d   1      12.019  52.503  74.075  0.00  0.00     0.083 H 
ATOM     22  H10 C47 d   1      10.711  50.900  72.670  0.00  0.00     0.086 H 
ATOM     23  H11 C47 d   1      11.924  46.185  72.338  0.00  0.00     0.066 H 
ATOM     24  H12 C47 d   1      11.804  46.654  70.609  0.00  0.00     0.066 H 
ATOM     25  O16 C47 d   1       9.543  49.324  72.006  0.00  0.00    -0.273 OA
BRANCH  13  26
ATOM     26  C3  C47 d   1      14.067  45.728  71.581  0.00  0.00     0.264 C 
ATOM     27  O4  C47 d   1      13.510  44.949  72.393  0.00  0.00    -0.265 OA
BRANCH  26  28
ATOM     28  O2  C47 d   1      15.065  45.160  70.722  0.00  0.00    -0.326 OA
BRANCH  28  29
ATOM     29  C1  C47 d   1      15.046  43.641  70.821  0.00  0.00     0.013 C 
ATOM     30  H1  C47 d   1      15.816  43.221  70.157  0.00  0.00     0.067 H 
ATOM     31  H2  C47 d   1      14.057  43.266  70.519  0.00  0.00     0.067 H 
ATOM     32  H3  C47 d   1      15.251  43.339  71.859  0.00  0.00     0.067 H 
ENDBRANCH  28  29
ENDBRANCH  26  28
ENDBRANCH  13  26
ENDBRANCH   2   5
ENDBRANCH   1   2
BRANCH   1  33
ATOM     33  C19 C47 d   1       9.914  48.972  68.973  0.00  0.00    -0.069 C 
ATOM     34  H15 C47 d   1       9.425  49.532  68.162  0.00  0.00     0.028 H 
ATOM     35  H16 C47 d   1      10.734  48.368  68.558  0.00  0.00     0.028 H 
ATOM     36  H17 C47 d   1      10.317  49.678  69.715  0.00  0.00     0.028 H 
ENDBRANCH   1  33
BRANCH   1  37
ATOM     37  C20 C47 d   1       7.756  49.004  70.032  0.00  0.00    -0.069 C 
ATOM     38  H18 C47 d   1       6.976  48.406  70.527  0.00  0.00     0.028 H 
ATOM     39  H19 C47 d   1       7.337  49.484  69.136  0.00  0.00     0.028 H 
ATOM     40  H20 C47 d   1       8.121  49.776  70.725  0.00  0.00     0.028 H 
ENDBRANCH   1  37
BRANCH   1  41
ATOM     41  C21 C47 d   1       8.464  47.155  68.622  0.00  0.00    -0.029 C 
ATOM     42  H21 C47 d   1       9.308  46.561  68.241  0.00  0.00     0.037 H 
ATOM     43  H22 C47 d   1       7.996  47.702  67.790  0.00  0.00     0.037 H 
BRANCH  41  44
ATOM     44  C22 C47 d   1       7.443  46.243  69.284  0.00  0.00     0.125 C 
ATOM     45  H23 C47 d   1       7.077  46.675  70.227  0.00  0.00     0.087 H 
BRANCH  44  46
ATOM     46  N23 C47 d   1       8.247  44.903  69.506  0.00  0.00    -0.073 N 
ATOM     47  H24 C47 d   1       7.649  44.222  69.947  0.00  0.00     0.274 HD
ATOM     48  H25 C47 d   1       9.044  45.083  70.097  0.00  0.00     0.274 HD
ATOM     49  H26 C47 d   1       8.562  44.548  68.616  0.00  0.00     0.274 HD
ENDBRANCH  44  46
BRANCH  44  50
ATOM     50  C24 C47 d   1       6.266  45.900  68.356  0.00  0.00     0.063 C 
ATOM     51  H27 C47 d   1       5.855  46.728  67.760  0.00  0.00     0.086 H 
BRANCH  50  52
ATOM     52  O25 C47 d   1       6.983  44.873  67.557  0.00  0.00    -0.393 OA
ATOM     53  H28 C47 d   1       7.736  45.270  67.136  0.00  0.00     0.210 HD
ENDBRANCH  50  52
BRANCH  50  54
ATOM     54  C26 C47 d   1       5.193  45.264  69.368  0.00  0.00    -0.028 C 
ATOM     55  H29 C47 d   1       4.837  46.025  70.078  0.00  0.00     0.038 H 
ATOM     56  H30 C47 d   1       5.639  44.425  69.923  0.00  0.00     0.038 H 
BRANCH  54  57
ATOM     57  C27 C47 d   1       4.043  44.772  68.495  0.00  0.00     0.022 C 
ATOM     58  H31 C47 d   1       4.462  44.275  67.608  0.00  0.00     0.054 H 
BRANCH  57  59
ATOM     59  C28 C47 d   1       3.276  43.662  69.278  0.00  0.00    -0.065 C 
ATOM     60  H32 C47 d   1       2.441  43.292  68.666  0.00  0.00     0.028 H 
ATOM     61  H33 C47 d   1       2.885  44.080  70.218  0.00  0.00     0.028 H 
ATOM     62  H34 C47 d   1       3.962  42.832  69.503  0.00  0.00     0.028 H 
ENDBRANCH  57  59
BRANCH  57  63
ATOM     63  C29 C47 d   1       3.315  46.040  67.972  0.00  0.00     0.221 C 
ATOM     64  O30 C47 d   1       3.535  47.102  68.428  0.00  0.00    -0.273 OA
ATOM     65  N31 C47 d   1       2.500  45.994  66.996  0.00  0.00    -0.361 N 
ATOM     66  H35 C47 d   1       2.178  45.089  66.717  0.00  0.00     0.162 HD
BRANCH  65  67
ATOM     67  C32 C47 d   1       1.996  47.124  66.253  0.00  0.00    -0.005 C 
ATOM     68  H36 C47 d   1       1.329  47.731  66.883  0.00  0.00     0.064 H 
ATOM     69  H37 C47 d   1       1.449  46.784  65.361  0.00  0.00     0.064 H 
BRANCH  67  70
ATOM     70  C33 C47 d   1       3.130  47.868  65.880  0.00  0.00    -0.051 C 
ATOM     71  H38 C47 d   1       4.010  47.213  65.793  0.00  0.00     0.035 H 
ATOM     72  H39 C47 d   1       3.333  48.659  66.617  0.00  0.00     0.035 H 
BRANCH  70  73
ATOM     73  C34 C47 d   1       2.792  48.456  64.571  0.00  0.00    -0.067 C 
ATOM     74  H40 C47 d   1       2.392  47.705  63.874  0.00  0.00     0.032 H 
ATOM     75  H41 C47 d   1       3.656  48.959  64.111  0.00  0.00     0.032 H 
BRANCH  73  76
ATOM     76  C35 C47 d   1       1.674  49.496  65.032  0.00  0.00    -0.076 C 
ATOM     77  H42 C47 d   1       1.297  50.042  64.155  0.00  0.00     0.027 H 
ATOM     78  H43 C47 d   1       2.109  50.209  65.748  0.00  0.00     0.027 H 
ATOM     79  H44 C47 d   1       0.845  48.955  65.511  0.00  0.00     0.027 H 
ENDBRANCH  73  76
ENDBRANCH  70  73
ENDBRANCH  67  70
ENDBRANCH  65  67
ENDBRANCH  57  63
ENDBRANCH  54  57
ENDBRANCH  50  54
ENDBRANCH  44  50
ENDBRANCH  41  44
ENDBRANCH   1  41
TORSDOF 20
