REMARK  25 active torsions:
REMARK  status: ('A' for Active; 'I' for Inactive)
REMARK    1  A    between atoms: C32_7  and  N10_8 
REMARK    2  A    between atoms: C30_10  and  C31_11 
REMARK    3  A    between atoms: C29_13  and  C28_14 
REMARK       I    between atoms: C28_14  and  N8_16 
REMARK    4  A    between atoms: N8_16  and  C23_17 
REMARK    5  A    between atoms: C23_17  and  C24_18 
REMARK    6  A    between atoms: C23_17  and  C22_25 
REMARK    7  A    between atoms: C24_18  and  C25_19 
REMARK    8  A    between atoms: C25_19  and  C26_20 
REMARK    9  A    between atoms: C26_20  and  N5_21 
REMARK       I    between atoms: N5_21  and  C27_22 
REMARK       I    between atoms: C27_22  and  N6_23 
REMARK       I    between atoms: C22_25  and  N4_27 
REMARK   10  A    between atoms: N4_27  and  C17_28 
REMARK   11  A    between atoms: C17_28  and  C18_29 
REMARK   12  A    between atoms: C17_28  and  C16_33 
REMARK   13  A    between atoms: C18_29  and  C19_30 
REMARK   14  A    between atoms: C19_30  and  C20_31 
REMARK   15  A    between atoms: C19_30  and  C21_32 
REMARK       I    between atoms: C16_33  and  N3_35 
REMARK   16  A    between atoms: N3_35  and  C11_36 
REMARK   17  A    between atoms: C11_36  and  C12_37 
REMARK   18  A    between atoms: C11_36  and  C10_41 
REMARK   19  A    between atoms: C12_37  and  C15_38 
REMARK   20  A    between atoms: C12_37  and  C13_39 
REMARK   21  A    between atoms: C13_39  and  C14_40 
REMARK       I    between atoms: C10_41  and  N2_43 
REMARK   22  A    between atoms: N2_43  and  C8_44 
REMARK   23  A    between atoms: C8_44  and  C9_45 
REMARK   24  A    between atoms: C8_44  and  C7_48 
REMARK       I    between atoms: C9_45  and  N1_47 
REMARK   25  A    between atoms: C7_48  and  C6_49 
ROOT
ATOM      1  C17 C35 d   1      41.675  24.578   0.056  0.00  0.00     0.089 C 
ATOM      2  H22 C35 d   1      42.023  24.000  -0.813  0.00  0.00     0.087 H 
ENDROOT
BRANCH   1   3
ATOM      3  N4  C35 d   1      40.559  23.888   0.720  0.00  0.00    -0.346 N 
ATOM      4  C22 C35 d   1      40.402  22.566   0.678  0.00  0.00     0.241 C 
ATOM      5  O4  C35 d   1      41.147  21.811   0.056  0.00  0.00    -0.271 OA
ATOM      6  H21 C35 d   1      39.890  24.434   1.224  0.00  0.00     0.163 HD
BRANCH   4   7
ATOM      7  C23 C35 d   1      39.217  21.994   1.460  0.00  0.00     0.090 C 
ATOM      8  H9  C35 d   1      38.640  22.807   1.924  0.00  0.00     0.087 H 
BRANCH   7   9
ATOM      9  N8  C35 d   1      38.372  21.251   0.514  0.00  0.00    -0.341 N 
ATOM     10  C28 C35 d   1      37.889  21.881  -0.565  0.00  0.00     0.291 C 
ATOM     11  O5  C35 d   1      38.093  23.076  -0.806  0.00  0.00    -0.264 OA
ATOM     12  H8  C35 d   1      38.160  20.287   0.674  0.00  0.00     0.163 HD
BRANCH  10  13
ATOM     13  C29 C35 d   1      36.995  21.071  -1.508  0.00  0.00     0.239 A 
ATOM     14  N9  C35 d   1      36.704  21.498  -2.735  0.00  0.00    -0.140 NA
ATOM     15  N10 C35 d   1      35.981  20.635  -3.236  0.00  0.00    -0.218 N 
ATOM     16  C30 C35 d   1      35.722  19.635  -2.398  0.00  0.00     0.127 A 
ATOM     17  N11 C35 d   1      36.375  19.908  -1.276  0.00  0.00    -0.208 NA
BRANCH  15  18
ATOM     18  C32 C35 d   1      35.424  20.764  -4.425  0.00  0.00     0.060 A 
ATOM     19  C37 C35 d   1      36.142  21.296  -5.488  0.00  0.00    -0.053 A 
ATOM     20  C36 C35 d   1      35.478  21.469  -6.697  0.00  0.00    -0.060 A 
ATOM     21  H1  C35 d   1      37.186  21.567  -5.379  0.00  0.00     0.087 H 
ATOM     22  C35 C35 d   1      34.124  21.158  -6.788  0.00  0.00     0.034 A 
ATOM     23  H2  C35 d   1      36.011  21.844  -7.563  0.00  0.00     0.086 H 
ATOM     24 CL   C35 d   1      33.305  21.352  -8.286  0.00  0.00    -0.084 Cl
ATOM     25  C34 C35 d   1      33.395  20.656  -5.718  0.00  0.00    -0.060 A 
ATOM     26  C33 C35 d   1      34.067  20.470  -4.521  0.00  0.00    -0.053 A 
ATOM     27  H3  C35 d   1      32.342  20.419  -5.816  0.00  0.00     0.086 H 
ATOM     28  H4  C35 d   1      33.534  20.094  -3.655  0.00  0.00     0.087 H 
ENDBRANCH  15  18
BRANCH  16  29
ATOM     29  C31 C35 d   1      34.858  18.404  -2.713  0.00  0.00    -0.019 C 
ATOM     30  H5  C35 d   1      34.821  17.747  -1.832  0.00  0.00     0.037 H 
ATOM     31  H6  C35 d   1      35.295  17.857  -3.561  0.00  0.00     0.037 H 
ATOM     32  H7  C35 d   1      33.839  18.728  -2.971  0.00  0.00     0.037 H 
ENDBRANCH  16  29
ENDBRANCH  10  13
ENDBRANCH   7   9
BRANCH   7  33
ATOM     33  C24 C35 d   1      39.739  21.043   2.543  0.00  0.00    -0.036 C 
ATOM     34  H10 C35 d   1      40.751  20.716   2.263  0.00  0.00     0.036 H 
ATOM     35  H11 C35 d   1      39.072  20.170   2.592  0.00  0.00     0.036 H 
BRANCH  33  36
ATOM     36  C25 C35 d   1      39.803  21.686   3.934  0.00  0.00    -0.048 C 
ATOM     37  H12 C35 d   1      39.111  21.161   4.609  0.00  0.00     0.035 H 
ATOM     38  H13 C35 d   1      39.511  22.744   3.860  0.00  0.00     0.035 H 
BRANCH  36  39
ATOM     39  C26 C35 d   1      41.224  21.592   4.492  0.00  0.00     0.009 C 
ATOM     40  H14 C35 d   1      41.317  22.273   5.351  0.00  0.00     0.064 H 
ATOM     41  H15 C35 d   1      41.937  21.890   3.709  0.00  0.00     0.064 H 
BRANCH  39  42
ATOM     42  N5  C35 d   1      41.540  20.215   4.933  0.00  0.00    -0.227 N 
ATOM     43  C27 C35 d   1      41.729  19.959   6.232  0.00  0.00     0.665 C 
ATOM     44  N6  C35 d   1      42.004  18.726   6.651  0.00  0.00    -0.235 N 
ATOM     45  N7  C35 d   1      41.616  20.940   7.127  0.00  0.00    -0.235 N 
ATOM     46  H17 C35 d   1      42.147  18.543   7.654  0.00  0.00     0.174 HD
ATOM     47  H18 C35 d   1      42.074  17.955   5.972  0.00  0.00     0.174 HD
ATOM     48  H19 C35 d   1      41.404  21.899   6.816  0.00  0.00     0.174 HD
ATOM     49  H20 C35 d   1      41.741  20.739   8.130  0.00  0.00     0.174 HD
ATOM     50  H16 C35 d   1      41.614  19.456   4.241  0.00  0.00     0.177 HD
ENDBRANCH  39  42
ENDBRANCH  36  39
ENDBRANCH  33  36
ENDBRANCH   7  33
ENDBRANCH   4   7
ENDBRANCH   1   3
BRANCH   1  51
ATOM     51  C18 C35 d   1      41.235  25.990  -0.373  0.00  0.00    -0.035 C 
ATOM     52  H23 C35 d   1      42.122  26.573  -0.660  0.00  0.00     0.037 H 
ATOM     53  H24 C35 d   1      40.729  26.483   0.470  0.00  0.00     0.037 H 
BRANCH  51  54
ATOM     54  C19 C35 d   1      40.267  25.917  -1.572  0.00  0.00    -0.059 C 
ATOM     55  H25 C35 d   1      39.419  25.295  -1.249  0.00  0.00     0.038 H 
BRANCH  54  56
ATOM     56  C20 C35 d   1      39.701  27.291  -1.948  0.00  0.00    -0.073 C 
ATOM     57  H26 C35 d   1      39.019  27.185  -2.805  0.00  0.00     0.028 H 
ATOM     58  H27 C35 d   1      40.526  27.966  -2.218  0.00  0.00     0.028 H 
ATOM     59  H28 C35 d   1      39.151  27.708  -1.091  0.00  0.00     0.028 H 
ENDBRANCH  54  56
BRANCH  54  60
ATOM     60  C21 C35 d   1      40.867  25.241  -2.805  0.00  0.00    -0.073 C 
ATOM     61  H29 C35 d   1      41.270  24.257  -2.524  0.00  0.00     0.028 H 
ATOM     62  H30 C35 d   1      41.677  25.867  -3.209  0.00  0.00     0.028 H 
ATOM     63  H31 C35 d   1      40.086  25.113  -3.569  0.00  0.00     0.028 H 
ENDBRANCH  54  60
ENDBRANCH  51  54
ENDBRANCH   1  51
BRANCH   1  64
ATOM     64  C16 C35 d   1      42.788  24.746   1.084  0.00  0.00     0.241 C 
ATOM     65  O3  C35 d   1      42.573  25.493   2.033  0.00  0.00    -0.271 OA
ATOM     66  N3  C35 d   1      43.932  24.066   0.922  0.00  0.00    -0.346 N 
ATOM     67  H32 C35 d   1      44.049  23.454   0.140  0.00  0.00     0.163 HD
BRANCH  66  68
ATOM     68  C11 C35 d   1      45.021  24.230   1.913  0.00  0.00     0.092 C 
ATOM     69  H33 C35 d   1      44.584  24.570   2.864  0.00  0.00     0.088 H 
BRANCH  68  70
ATOM     70  C12 C35 d   1      45.891  22.988   2.212  0.00  0.00    -0.030 C 
ATOM     71  H34 C35 d   1      45.845  22.314   1.344  0.00  0.00     0.043 H 
BRANCH  70  72
ATOM     72  C15 C35 d   1      47.356  23.401   2.457  0.00  0.00    -0.071 C 
ATOM     73  H35 C35 d   1      47.959  22.506   2.668  0.00  0.00     0.028 H 
ATOM     74  H36 C35 d   1      47.405  24.087   3.316  0.00  0.00     0.028 H 
ATOM     75  H37 C35 d   1      47.749  23.905   1.562  0.00  0.00     0.028 H 
ENDBRANCH  70  72
BRANCH  70  76
ATOM     76  C13 C35 d   1      45.398  22.232   3.459  0.00  0.00    -0.063 C 
ATOM     77  H38 C35 d   1      44.818  22.923   4.088  0.00  0.00     0.033 H 
ATOM     78  H39 C35 d   1      46.270  21.867   4.022  0.00  0.00     0.033 H 
BRANCH  76  79
ATOM     79  C14 C35 d   1      44.512  21.037   3.089  0.00  0.00    -0.076 C 
ATOM     80  H40 C35 d   1      44.183  20.527   4.006  0.00  0.00     0.027 H 
ATOM     81  H41 C35 d   1      45.085  20.335   2.465  0.00  0.00     0.027 H 
ATOM     82  H42 C35 d   1      43.633  21.391   2.531  0.00  0.00     0.027 H 
ENDBRANCH  76  79
ENDBRANCH  70  76
ENDBRANCH  68  70
BRANCH  68  83
ATOM     83  C10 C35 d   1      45.894  25.313   1.319  0.00  0.00     0.241 C 
ATOM     84  O2  C35 d   1      46.408  25.094   0.225  0.00  0.00    -0.271 OA
ATOM     85  N2  C35 d   1      45.974  26.442   2.022  0.00  0.00    -0.346 N 
ATOM     86  H43 C35 d   1      45.520  26.490   2.912  0.00  0.00     0.163 HD
BRANCH  85  87
ATOM     87  C8  C35 d   1      46.707  27.620   1.536  0.00  0.00     0.093 C 
ATOM     88  H44 C35 d   1      46.645  27.630   0.438  0.00  0.00     0.088 H 
BRANCH  87  89
ATOM     89  C9  C35 d   1      48.178  27.594   1.936  0.00  0.00     0.238 C 
ATOM     90  O1  C35 d   1      49.040  27.657   1.059  0.00  0.00    -0.271 OA
ATOM     91  N1  C35 d   1      48.441  27.566   3.244  0.00  0.00    -0.368 N 
ATOM     92  H45 C35 d   1      49.389  27.548   3.563  0.00  0.00     0.159 HD
ATOM     93  H46 C35 d   1      47.691  27.563   3.905  0.00  0.00     0.159 HD
ENDBRANCH  87  89
BRANCH  87  94
ATOM     94  C7  C35 d   1      46.080  28.907   2.076  0.00  0.00    -0.014 C 
ATOM     95  H47 C35 d   1      46.768  29.747   1.900  0.00  0.00     0.043 H 
ATOM     96  H48 C35 d   1      45.903  28.799   3.156  0.00  0.00     0.043 H 
BRANCH  94  97
ATOM     97  C6  C35 d   1      44.756  29.187   1.376  0.00  0.00    -0.056 A 
ATOM     98  C5  C35 d   1      43.535  29.155   2.042  0.00  0.00    -0.074 A 
ATOM     99  C4  C35 d   1      42.379  29.409   1.302  0.00  0.00    -0.045 A 
ATOM    100  H49 C35 d   1      43.483  28.939   3.103  0.00  0.00     0.084 H 
ATOM    101  C1  C35 d   1      42.437  29.707  -0.062  0.00  0.00     0.116 A 
ATOM    102  H50 C35 d   1      41.415  29.374   1.796  0.00  0.00     0.088 H 
ATOM    103  F1  C35 d   1      41.337  29.933  -0.810  0.00  0.00    -0.206 F 
ATOM    104  C2  C35 d   1      43.658  29.716  -0.715  0.00  0.00    -0.045 A 
ATOM    105  C3  C35 d   1      44.807  29.421   0.006  0.00  0.00    -0.074 A 
ATOM    106  H51 C35 d   1      43.716  29.950  -1.772  0.00  0.00     0.088 H 
ATOM    107  H52 C35 d   1      45.760  29.372  -0.508  0.00  0.00     0.084 H 
ENDBRANCH  94  97
ENDBRANCH  87  94
ENDBRANCH  85  87
ENDBRANCH  68  83
ENDBRANCH  66  68
ENDBRANCH   1  64
TORSDOF 25
