REMARK  3 active torsions:
REMARK  status: ('A' for Active; 'I' for Inactive)
REMARK    1  A    between atoms: N22_1  and  C21_2 
REMARK    2  A    between atoms: C2_10  and  N5_11 
REMARK    3  A    between atoms: C1_16  and  C3_17 
ROOT
ATOM      1  C21 LZL d   1       2.164 -26.390  24.694  0.00  0.00     0.722 A 
ATOM      2  N20 LZL d   1       1.484 -25.534  25.507  0.00  0.00    -0.074 NA
ATOM      3  C15 LZL d   1       1.874 -24.263  25.709  0.00  0.00     0.035 A 
ATOM      4  C9  LZL d   1       3.017 -23.805  25.065  0.00  0.00     0.032 A 
ATOM      5  C4  LZL d   1       3.493 -22.510  25.223  0.00  0.00    -0.053 A 
ATOM      6  N18 LZL d   1       3.282 -26.006  24.034  0.00  0.00    -0.043 NA
ATOM      7  C12 LZL d   1       3.749 -24.749  24.178  0.00  0.00     0.182 A 
ATOM      8  N6  LZL d   1       4.862 -24.352  23.530  0.00  0.00    -0.209 NA
ATOM      9  C2  LZL d   1       5.359 -23.097  23.651  0.00  0.00     0.139 A 
ATOM     10  C1  LZL d   1       4.642 -22.117  24.537  0.00  0.00     0.021 A 
ATOM     11  H3  LZL d   1       1.308 -23.608  26.362  0.00  0.00     0.117 H 
ATOM     12  H4  LZL d   1       2.977 -21.812  25.872  0.00  0.00     0.086 H 
ENDROOT
BRANCH   9  13
ATOM     13  N5  LZL d   1       6.527 -22.810  22.904  0.00  0.00    -0.365 N 
ATOM     14  C11 LZL d   1       6.834 -21.794  21.960  0.00  0.00    -0.003 C 
ATOM     15  C17 LZL d   1       8.153 -22.012  21.609  0.00  0.00    -0.049 C 
ATOM     16  H5  LZL d   1       6.715 -20.798  22.412  0.00  0.00     0.064 H 
ATOM     17  H6  LZL d   1       6.181 -21.877  21.078  0.00  0.00     0.064 H 
ATOM     18  C16 LZL d   1       8.292 -23.358  21.735  0.00  0.00    -0.049 C 
ATOM     19  H7  LZL d   1       8.835 -21.480  22.289  0.00  0.00     0.035 H 
ATOM     20  H8  LZL d   1       8.344 -21.692  20.574  0.00  0.00     0.035 H 
ATOM     21  C10 LZL d   1       7.664 -23.677  22.938  0.00  0.00    -0.003 C 
ATOM     22  H9  LZL d   1       9.356 -23.635  21.770  0.00  0.00     0.035 H 
ATOM     23  H10 LZL d   1       7.805 -23.877  20.896  0.00  0.00     0.035 H 
ATOM     24  H11 LZL d   1       7.362 -24.735  22.966  0.00  0.00     0.064 H 
ATOM     25  H12 LZL d   1       8.311 -23.457  23.800  0.00  0.00     0.064 H 
ENDBRANCH   9  13
BRANCH  10  26
ATOM     26  C3  LZL d   1       5.136 -20.734  24.742  0.00  0.00    -0.022 A 
ATOM     27  C8  LZL d   1       4.447 -19.625  24.253  0.00  0.00    -0.072 A 
ATOM     28  C14 LZL d   1       4.956 -18.346  24.478  0.00  0.00    -0.082 A 
ATOM     29  H13 LZL d   1       3.523 -19.756  23.702  0.00  0.00     0.084 H 
ATOM     30  C19 LZL d   1       6.141 -18.186  25.196  0.00  0.00    -0.083 A 
ATOM     31  H14 LZL d   1       4.431 -17.478  24.096  0.00  0.00     0.083 H 
ATOM     32  C13 LZL d   1       6.826 -19.292  25.693  0.00  0.00    -0.082 A 
ATOM     33  H15 LZL d   1       6.533 -17.190  25.369  0.00  0.00     0.083 H 
ATOM     34  C7  LZL d   1       6.318 -20.570  25.470  0.00  0.00    -0.072 A 
ATOM     35  H16 LZL d   1       7.747 -19.160  26.249  0.00  0.00     0.083 H 
ATOM     36  H17 LZL d   1       6.839 -21.437  25.861  0.00  0.00     0.084 H 
ENDBRANCH  10  26
BRANCH   1  37
ATOM     37  N22 LZL d   1       1.720 -27.658  24.534  0.00  0.00    -0.231 N 
ATOM     38  H1  LZL d   1       0.872 -27.973  25.026  0.00  0.00     0.174 HD
ATOM     39  H2  LZL d   1       2.230 -28.309  23.920  0.00  0.00     0.174 HD
ENDBRANCH   1  37
TORSDOF 3
