REMARK  18 active torsions:
REMARK  status: ('A' for Active; 'I' for Inactive)
REMARK    1  A    between atoms: CBI_1  and  CBJ_2 
REMARK    2  A    between atoms: CBN_7  and  OBO_8 
REMARK    3  A    between atoms: OBO_8  and  CBP_9 
REMARK    4  A    between atoms: CBK_12  and  CBH_13 
REMARK    5  A    between atoms: CBH_13  and  CBF_14 
REMARK       I    between atoms: CBF_14  and  N_16 
REMARK    6  A    between atoms: N_16  and  CA_17 
REMARK    7  A    between atoms: CA_17  and  CB_18 
REMARK    8  A    between atoms: CA_17  and  C_27 
REMARK    9  A    between atoms: CB_18  and  CAV_19 
REMARK   10  A    between atoms: CAV_19  and  CAW_20 
REMARK   11  A    between atoms: CAW_20  and  CAX_21 
REMARK   12  A    between atoms: CAX_21  and  CAY_22 
REMARK   13  A    between atoms: CAY_22  and  CAZ_23 
REMARK       I    between atoms: CAZ_23  and  NBA_25 
REMARK   14  A    between atoms: NBA_25  and  OBB_26 
REMARK       I    between atoms: C_27  and  NAR_29 
REMARK   15  A    between atoms: NAR_29  and  CAQ_30 
REMARK   16  A    between atoms: CAQ_30  and  CAP_31 
REMARK   17  A    between atoms: CAP_31  and  CAL_32 
REMARK   18  A    between atoms: CAG_40  and  CAF_41 
ROOT
ATOM      1  CA  V5X d   1      16.076   6.857  51.496  0.00  0.00     0.089 C 
ATOM      2  H14 V5X d   1      16.068   6.872  52.596  0.00  0.00     0.087 H 
ENDROOT
BRANCH   1   3
ATOM      3  N   V5X d   1      14.850   7.647  51.151  0.00  0.00    -0.348 N 
ATOM      4  CBF V5X d   1      14.262   7.875  49.979  0.00  0.00     0.222 C 
ATOM      5  OBG V5X d   1      14.639   7.458  48.882  0.00  0.00    -0.273 OA
ATOM      6  H13 V5X d   1      14.398   8.075  51.933  0.00  0.00     0.163 HD
BRANCH   4   7
ATOM      7  CBH V5X d   1      13.008   8.749  50.117  0.00  0.00     0.036 C 
ATOM      8  H11 V5X d   1      12.317   8.527  49.290  0.00  0.00     0.054 H 
ATOM      9  H12 V5X d   1      12.515   8.529  51.076  0.00  0.00     0.054 H 
BRANCH   7  10
ATOM     10  CBK V5X d   1      13.393  10.240  50.072  0.00  0.00    -0.015 A 
ATOM     11  CBJ V5X d   1      13.340  11.168  51.098  0.00  0.00     0.013 A 
ATOM     12  NBQ V5X d   1      13.775  12.362  50.678  0.00  0.00    -0.359 N 
ATOM     13  CBR V5X d   1      14.102  12.268  49.390  0.00  0.00     0.043 A 
ATOM     14  H4  V5X d   1      13.845  13.212  51.255  0.00  0.00     0.166 HD
ATOM     15  CBS V5X d   1      14.602  13.209  48.478  0.00  0.00    -0.054 A 
ATOM     16  CBL V5X d   1      13.869  10.948  48.983  0.00  0.00     0.002 A 
ATOM     17  CBT V5X d   1      14.860  12.811  47.160  0.00  0.00    -0.049 A 
ATOM     18  H5  V5X d   1      14.786  14.231  48.789  0.00  0.00     0.087 H 
ATOM     19  CBN V5X d   1      14.624  11.486  46.757  0.00  0.00     0.069 A 
ATOM     20  H6  V5X d   1      15.244  13.530  46.446  0.00  0.00     0.087 H 
ATOM     21  CBM V5X d   1      14.131  10.555  47.672  0.00  0.00    -0.038 A 
ATOM     22  H10 V5X d   1      13.953   9.531  47.364  0.00  0.00     0.089 H 
BRANCH  11  23
ATOM     23  CBI V5X d   1      12.871  10.850  52.541  0.00  0.00    -0.037 C 
ATOM     24  H1  V5X d   1      12.568   9.794  52.604  0.00  0.00     0.035 H 
ATOM     25  H2  V5X d   1      12.016  11.492  52.799  0.00  0.00     0.035 H 
ATOM     26  H3  V5X d   1      13.696  11.037  53.244  0.00  0.00     0.035 H 
ENDBRANCH  11  23
BRANCH  19  27
ATOM     27  OBO V5X d   1      14.882  11.060  45.483  0.00  0.00    -0.356 OA
BRANCH  27  28
ATOM     28  CBP V5X d   1      14.024  11.676  44.511  0.00  0.00     0.010 C 
ATOM     29  H7  V5X d   1      14.275  11.298  43.509  0.00  0.00     0.066 H 
ATOM     30  H8  V5X d   1      14.164  12.767  44.537  0.00  0.00     0.066 H 
ATOM     31  H9  V5X d   1      12.976  11.435  44.742  0.00  0.00     0.066 H 
ENDBRANCH  27  28
ENDBRANCH  19  27
ENDBRANCH   7  10
ENDBRANCH   4   7
ENDBRANCH   1   3
BRANCH   1  32
ATOM     32  CB  V5X d   1      17.399   7.565  51.130  0.00  0.00    -0.038 C 
ATOM     33  H15 V5X d   1      17.522   8.452  51.769  0.00  0.00     0.036 H 
ATOM     34  H16 V5X d   1      17.362   7.876  50.075  0.00  0.00     0.036 H 
BRANCH  32  35
ATOM     35  CAV V5X d   1      18.602   6.621  51.337  0.00  0.00    -0.063 C 
ATOM     36  H17 V5X d   1      18.975   6.327  50.345  0.00  0.00     0.033 H 
ATOM     37  H18 V5X d   1      18.244   5.730  51.873  0.00  0.00     0.033 H 
BRANCH  35  38
ATOM     38  CAW V5X d   1      19.773   7.202  52.124  0.00  0.00    -0.065 C 
ATOM     39  H19 V5X d   1      19.549   7.127  53.198  0.00  0.00     0.033 H 
ATOM     40  H20 V5X d   1      19.895   8.260  51.848  0.00  0.00     0.033 H 
BRANCH  38  41
ATOM     41  CAX V5X d   1      21.091   6.462  51.840  0.00  0.00    -0.057 C 
ATOM     42  H21 V5X d   1      21.315   6.536  50.766  0.00  0.00     0.033 H 
ATOM     43  H22 V5X d   1      20.971   5.404  52.117  0.00  0.00     0.033 H 
BRANCH  41  44
ATOM     44  CAY V5X d   1      22.262   7.048  52.629  0.00  0.00     0.011 C 
ATOM     45  H23 V5X d   1      22.294   6.564  53.616  0.00  0.00     0.047 H 
ATOM     46  H24 V5X d   1      22.092   8.127  52.755  0.00  0.00     0.047 H 
BRANCH  44  47
ATOM     47  CAZ V5X d   1      23.631   6.846  51.941  0.00  0.00     0.240 C 
ATOM     48  OBE V5X d   1      24.167   5.734  51.826  0.00  0.00    -0.271 OA
ATOM     49  NBA V5X d   1      24.191   7.964  51.522  0.00  0.00    -0.237 N 
ATOM     50  H25 V5X d   1      23.710   8.830  51.660  0.00  0.00     0.197 HD
BRANCH  49  51
ATOM     51  OBB V5X d   1      25.409   7.974  50.905  0.00  0.00    -0.287 OA
ATOM     52  H26 V5X d   1      25.367   7.447  50.115  0.00  0.00     0.244 HD
ENDBRANCH  49  51
ENDBRANCH  44  47
ENDBRANCH  41  44
ENDBRANCH  38  41
ENDBRANCH  35  38
ENDBRANCH  32  35
ENDBRANCH   1  32
BRANCH   1  53
ATOM     53  C   V5X d   1      16.101   5.323  51.172  0.00  0.00     0.240 C 
ATOM     54  O   V5X d   1      16.629   4.814  50.181  0.00  0.00    -0.271 OA
ATOM     55  NAR V5X d   1      15.571   4.585  52.118  0.00  0.00    -0.359 N 
ATOM     56  H27 V5X d   1      15.177   5.039  52.917  0.00  0.00     0.162 HD
BRANCH  55  57
ATOM     57  CAQ V5X d   1      15.533   3.112  52.051  0.00  0.00    -0.001 C 
ATOM     58  H28 V5X d   1      14.849   2.770  52.841  0.00  0.00     0.064 H 
ATOM     59  H29 V5X d   1      16.550   2.752  52.265  0.00  0.00     0.064 H 
BRANCH  57  60
ATOM     60  CAP V5X d   1      15.079   2.437  50.730  0.00  0.00    -0.023 C 
ATOM     61  H30 V5X d   1      15.754   2.700  49.902  0.00  0.00     0.042 H 
ATOM     62  H31 V5X d   1      14.051   2.731  50.472  0.00  0.00     0.042 H 
BRANCH  60  63
ATOM     63  CAL V5X d   1      15.158   0.933  51.048  0.00  0.00    -0.017 A 
ATOM     64  CAM V5X d   1      14.532   0.403  52.172  0.00  0.00    -0.001 A 
ATOM     65  CAN V5X d   1      13.741   1.002  53.164  0.00  0.00    -0.070 A 
ATOM     66  CAI V5X d   1      14.816  -0.955  52.181  0.00  0.00     0.043 A 
ATOM     67  CAO V5X d   1      13.217   0.243  54.199  0.00  0.00    -0.082 A 
ATOM     68  H32 V5X d   1      13.538   2.066  53.121  0.00  0.00     0.084 H 
ATOM     69  CAK V5X d   1      13.510  -1.114  54.204  0.00  0.00    -0.081 A 
ATOM     70  H33 V5X d   1      12.604   0.691  54.973  0.00  0.00     0.083 H 
ATOM     71  CAJ V5X d   1      14.297  -1.711  53.216  0.00  0.00    -0.056 A 
ATOM     72  H34 V5X d   1      13.114  -1.732  55.002  0.00  0.00     0.083 H 
ATOM     73  H35 V5X d   1      14.502  -2.774  53.261  0.00  0.00     0.086 H 
ATOM     74  NAH V5X d   1      15.592  -1.249  51.122  0.00  0.00    -0.354 N 
ATOM     75  CAG V5X d   1      15.854  -0.124  50.425  0.00  0.00     0.050 A 
ATOM     76  H36 V5X d   1      15.934  -2.190  50.880  0.00  0.00     0.166 HD
BRANCH  75  77
ATOM     77  CAF V5X d   1      16.546   0.000  49.203  0.00  0.00    -0.009 A 
ATOM     78  CAE V5X d   1      16.615  -1.109  48.358  0.00  0.00    -0.071 A 
ATOM     79  CAD V5X d   1      17.218  -1.033  47.105  0.00  0.00    -0.082 A 
ATOM     80  H37 V5X d   1      16.189  -2.051  48.685  0.00  0.00     0.084 H 
ATOM     81  CAA V5X d   1      17.748   0.173  46.657  0.00  0.00    -0.083 A 
ATOM     82  H38 V5X d   1      17.275  -1.915  46.477  0.00  0.00     0.083 H 
ATOM     83  CAB V5X d   1      17.661   1.298  47.477  0.00  0.00    -0.082 A 
ATOM     84  H39 V5X d   1      18.222   0.237  45.684  0.00  0.00     0.083 H 
ATOM     85  CAC V5X d   1      17.048   1.213  48.732  0.00  0.00    -0.071 A 
ATOM     86  H40 V5X d   1      18.071   2.243  47.140  0.00  0.00     0.083 H 
ATOM     87  H41 V5X d   1      16.962   2.102  49.346  0.00  0.00     0.084 H 
ENDBRANCH  75  77
ENDBRANCH  60  63
ENDBRANCH  57  60
ENDBRANCH  55  57
ENDBRANCH   1  53
TORSDOF 18
