REMARK WARNING: 32 MAX_TORS EXCEEDED!!!
REMARK  35 active torsions:
REMARK  status: ('A' for Active; 'I' for Inactive)
REMARK    1  A    between atoms: N_1  and  CA_2 
REMARK    2  A    between atoms: CA_2  and  C_3 
REMARK    3  A    between atoms: CA_2  and  CB_5 
REMARK       I    between atoms: C_3  and  N_10 
REMARK    4  A    between atoms: CB_5  and  CG_6 
REMARK    5  A    between atoms: CG_6  and  CD_7 
REMARK    6  A    between atoms: CD_7  and  CE_8 
REMARK    7  A    between atoms: CE_8  and  NZ_9 
REMARK    8  A    between atoms: N_10  and  CA_11 
REMARK    9  A    between atoms: CA_11  and  C_12 
REMARK   10  A    between atoms: CA_11  and  CB_14 
REMARK       I    between atoms: C_12  and  N_16 
REMARK   11  A    between atoms: CB_14  and  OG_15 
REMARK   12  A    between atoms: N_16  and  CA_17 
REMARK   13  A    between atoms: CA_17  and  C_18 
REMARK   14  A    between atoms: CA_17  and  CB_20 
REMARK       I    between atoms: C_18  and  N_21 
REMARK   15  A    between atoms: N_21  and  CA_22 
REMARK   16  A    between atoms: CA_22  and  CB_23 
REMARK   17  A    between atoms: CA_22  and  C_30 
REMARK   18  A    between atoms: CB_23  and  CG2_24 
REMARK   19  A    between atoms: CB_23  and  OG1_25 
REMARK   20  A    between atoms: OG1_25  and  P_26 
REMARK       I    between atoms: C_30  and  N_32 
REMARK   21  A    between atoms: N_32  and  CA_33 
REMARK   22  A    between atoms: CA_33  and  C_34 
REMARK   23  A    between atoms: CA_33  and  CB_36 
REMARK       I    between atoms: C_34  and  N_39 
REMARK   24  A    between atoms: CB_36  and  OG1_37 
REMARK   25  A    between atoms: CB_36  and  CG2_38 
REMARK   26  A    between atoms: N_39  and  CA_40 
REMARK   27  A    between atoms: CA_40  and  C_41 
REMARK   28  A    between atoms: CA_40  and  CB_43 
REMARK       I    between atoms: C_41  and  N_46 
REMARK   29  A    between atoms: CB_43  and  OG1_44 
REMARK   30  A    between atoms: CB_43  and  CG2_45 
REMARK   31  A    between atoms: N_46  and  CA_47 
REMARK   32  A    between atoms: CA_47  and  C_48 
REMARK   33  A    between atoms: CA_47  and  CB_50 
REMARK       I    between atoms: C_48  and  N_53 
REMARK   34  A    between atoms: CB_50  and  CG1_51 
REMARK   35  A    between atoms: CB_50  and  CG2_52 
ROOT
ATOM      1  CA  TPO d   1      30.604  19.341  29.403  0.00  0.00     0.114 C 
ATOM      2  H27 TPO d   1      30.764  20.363  29.776  0.00  0.00     0.091 H 
ENDROOT
BRANCH   1   3
ATOM      3  N   TPO d   1      29.314  18.874  29.923  0.00  0.00    -0.344 N 
ATOM      4  C   ALA d   1      28.876  19.173  31.145  0.00  0.00     0.240 C 
ATOM      5  O   ALA d   1      29.499  19.861  31.942  0.00  0.00    -0.271 OA
ATOM      6  H26 TPO d   1      28.738  18.306  29.334  0.00  0.00     0.163 HD
BRANCH   4   7
ATOM      7  CA  ALA d   1      27.525  18.623  31.519  0.00  0.00     0.086 C 
ATOM      8  H22 ALA d   1      27.464  17.584  31.164  0.00  0.00     0.086 H 
BRANCH   7   9
ATOM      9  N   ALA d   1      27.314  18.626  32.962  0.00  0.00    -0.346 N 
ATOM     10  C   SER d   1      27.689  17.591  33.707  0.00  0.00     0.243 C 
ATOM     11  O   SER d   1      28.249  16.607  33.227  0.00  0.00    -0.271 OA
ATOM     12  H21 ALA d   1      26.882  19.416  33.396  0.00  0.00     0.163 HD
BRANCH  10  13
ATOM     13  CA  SER d   1      27.405  17.662  35.211  0.00  0.00     0.109 C 
ATOM     14  H17 SER d   1      26.416  18.121  35.359  0.00  0.00     0.090 H 
BRANCH  13  15
ATOM     15  N   SER d   1      27.397  16.324  35.803  0.00  0.00    -0.344 N 
ATOM     16  C   LYS d   1      26.441  15.435  35.529  0.00  0.00     0.249 C 
ATOM     17  O   LYS d   1      25.497  15.686  34.769  0.00  0.00    -0.271 OA
ATOM     18  H16 SER d   1      28.131  16.068  36.432  0.00  0.00     0.163 HD
BRANCH  16  19
ATOM     19  CA  LYS d   1      26.550  14.057  36.216  0.00  0.00     0.176 C 
ATOM     20  H4  LYS d   1      26.447  14.197  37.302  0.00  0.00     0.099 H 
BRANCH  19  21
ATOM     21  N   LYS d   1      25.459  13.153  35.741  0.00  0.00    -0.067 N 
ATOM     22  H1  LYS d   1      25.542  12.258  36.197  0.00  0.00     0.275 HD
ATOM     23  H2  LYS d   1      25.535  13.030  34.743  0.00  0.00     0.275 HD
ATOM     24  H3  LYS d   1      24.564  13.561  35.962  0.00  0.00     0.275 HD
ENDBRANCH  19  21
BRANCH  19  25
ATOM     25  CB  LYS d   1      27.920  13.413  35.928  0.00  0.00    -0.030 C 
ATOM     26  H5  LYS d   1      27.907  12.388  36.328  0.00  0.00     0.036 H 
ATOM     27  H6  LYS d   1      28.691  14.001  36.449  0.00  0.00     0.036 H 
BRANCH  25  28
ATOM     28  CG  LYS d   1      28.296  13.341  34.446  0.00  0.00    -0.061 C 
ATOM     29  H7  LYS d   1      28.292  14.358  34.028  0.00  0.00     0.033 H 
ATOM     30  H8  LYS d   1      27.552  12.725  33.919  0.00  0.00     0.033 H 
BRANCH  28  31
ATOM     31  CD  LYS d   1      29.680  12.728  34.242  0.00  0.00    -0.043 C 
ATOM     32  H9  LYS d   1      29.575  11.640  34.118  0.00  0.00     0.035 H 
ATOM     33  H10 LYS d   1      30.299  12.938  35.126  0.00  0.00     0.035 H 
BRANCH  31  34
ATOM     34  CE  LYS d   1      30.362  13.303  33.012  0.00  0.00     0.080 C 
ATOM     35  H11 LYS d   1      29.665  13.255  32.163  0.00  0.00     0.075 H 
ATOM     36  H12 LYS d   1      31.256  12.703  32.787  0.00  0.00     0.075 H 
BRANCH  34  37
ATOM     37  NZ  LYS d   1      30.772  14.722  33.221  0.00  0.00    -0.079 N 
ATOM     38  H13 LYS d   1      31.220  15.069  32.387  0.00  0.00     0.274 HD
ATOM     39  H14 LYS d   1      31.416  14.775  33.995  0.00  0.00     0.274 HD
ATOM     40  H15 LYS d   1      29.958  15.281  33.422  0.00  0.00     0.274 HD
ENDBRANCH  34  37
ENDBRANCH  31  34
ENDBRANCH  28  31
ENDBRANCH  25  28
ENDBRANCH  19  25
ENDBRANCH  16  19
ENDBRANCH  13  15
BRANCH  13  41
ATOM     41  CB  SER d   1      28.455  18.518  35.911  0.00  0.00     0.044 C 
ATOM     42  H18 SER d   1      28.332  19.567  35.603  0.00  0.00     0.077 H 
ATOM     43  H19 SER d   1      29.458  18.167  35.626  0.00  0.00     0.077 H 
BRANCH  41  44
ATOM     44  OG  SER d   1      28.309  18.424  37.321  0.00  0.00    -0.398 OA
ATOM     45  H20 SER d   1      28.417  17.519  37.590  0.00  0.00     0.209 HD
ENDBRANCH  41  44
ENDBRANCH  13  41
ENDBRANCH  10  13
ENDBRANCH   7   9
BRANCH   7  46
ATOM     46  CB  ALA d   1      26.453  19.429  30.841  0.00  0.00    -0.049 C 
ATOM     47  H23 ALA d   1      26.620  19.421  29.754  0.00  0.00     0.030 H 
ATOM     48  H24 ALA d   1      26.485  20.465  31.209  0.00  0.00     0.030 H 
ATOM     49  H25 ALA d   1      25.469  18.991  31.064  0.00  0.00     0.030 H 
ENDBRANCH   7  46
ENDBRANCH   4   7
ENDBRANCH   1   3
BRANCH   1  50
ATOM     50  CB  TPO d   1      31.769  18.460  29.907  0.00  0.00     0.076 C 
ATOM     51  H28 TPO d   1      32.680  18.730  29.352  0.00  0.00     0.087 H 
BRANCH  50  52
ATOM     52  CG2 TPO d   1      32.031  18.679  31.398  0.00  0.00    -0.049 C 
ATOM     53  H29 TPO d   1      32.864  18.038  31.722  0.00  0.00     0.031 H 
ATOM     54  H30 TPO d   1      31.127  18.423  31.971  0.00  0.00     0.031 H 
ATOM     55  H31 TPO d   1      32.290  19.733  31.574  0.00  0.00     0.031 H 
ENDBRANCH  50  52
BRANCH  50  56
ATOM     56  OG1 TPO d   1      31.461  17.089  29.647  0.00  0.00    -0.275 OA
BRANCH  56  57
ATOM     57  P   TPO d   1      32.561  15.944  29.909  0.00  0.00     0.422 P 
ATOM     58  O1P TPO d   1      32.416  15.267  31.218  0.00  0.00    -0.617 OA
ATOM     59  O2P TPO d   1      32.434  14.926  28.668  0.00  0.00    -0.617 OA
ATOM     60  O3P TPO d   1      33.991  16.660  29.738  0.00  0.00    -0.617 OA
ENDBRANCH  56  57
ENDBRANCH  50  56
ENDBRANCH   1  50
BRANCH   1  61
ATOM     61  C   TPO d   1      30.615  19.389  27.856  0.00  0.00     0.243 C 
ATOM     62  O   TPO d   1      29.695  18.887  27.212  0.00  0.00    -0.271 OA
ATOM     63  N   THR d   1      31.648  19.997  27.268  0.00  0.00    -0.344 N 
ATOM     64  H32 THR d   1      32.368  20.391  27.839  0.00  0.00     0.163 HD
BRANCH  63  65
ATOM     65  CA  THR d   1      31.759  20.104  25.810  0.00  0.00     0.113 C 
ATOM     66  H33 THR d   1      31.044  20.867  25.468  0.00  0.00     0.091 H 
BRANCH  65  67
ATOM     67  C   THR d   1      31.426  18.787  25.126  0.00  0.00     0.243 C 
ATOM     68  O   THR d   1      31.477  17.733  25.753  0.00  0.00    -0.271 OA
ATOM     69  N   THR d   1      31.101  18.842  23.837  0.00  0.00    -0.344 N 
ATOM     70  H39 THR d   1      31.102  19.723  23.364  0.00  0.00     0.163 HD
BRANCH  69  71
ATOM     71  CA  THR d   1      30.743  17.629  23.105  0.00  0.00     0.113 C 
ATOM     72  H40 THR d   1      31.167  16.783  23.666  0.00  0.00     0.091 H 
BRANCH  71  73
ATOM     73  C   THR d   1      31.259  17.531  21.668  0.00  0.00     0.243 C 
ATOM     74  O   THR d   1      32.198  16.786  21.374  0.00  0.00    -0.271 OA
ATOM     75  N   VAL d   1      30.613  18.265  20.769  0.00  0.00    -0.346 N 
ATOM     76  H46 VAL d   1      29.851  18.841  21.064  0.00  0.00     0.163 HD
BRANCH  75  77
ATOM     77  CA  VAL d   1      30.990  18.249  19.363  0.00  0.00     0.092 C 
ATOM     78  H47 VAL d   1      31.784  17.502  19.216  0.00  0.00     0.088 H 
BRANCH  77  79
ATOM     79  C   VAL d   1      31.523  19.625  18.960  0.00  0.00     0.238 C 
ATOM     80  O   VAL d   1      31.605  20.502  19.850  0.00  0.00    -0.271 OA
ATOM     81  N   MET d   1      31.864  19.805  17.770  0.00  0.00    -0.368 N 
ATOM     82  H55 MET d   1      32.216  20.695  17.480  0.00  0.00     0.159 HD
ATOM     83  H56 MET d   1      31.785  19.059  17.109  0.00  0.00     0.159 HD
ENDBRANCH  77  79
BRANCH  77  84
ATOM     84  CB  VAL d   1      29.768  17.863  18.475  0.00  0.00    -0.033 C 
ATOM     85  H48 VAL d   1      29.076  18.717  18.434  0.00  0.00     0.042 H 
BRANCH  84  86
ATOM     86  CG1 VAL d   1      30.214  17.526  17.059  0.00  0.00    -0.071 C 
ATOM     87  H49 VAL d   1      29.337  17.257  16.452  0.00  0.00     0.028 H 
ATOM     88  H50 VAL d   1      30.914  16.678  17.087  0.00  0.00     0.028 H 
ATOM     89  H51 VAL d   1      30.714  18.399  16.614  0.00  0.00     0.028 H 
ENDBRANCH  84  86
BRANCH  84  90
ATOM     90  CG2 VAL d   1      29.049  16.676  19.086  0.00  0.00    -0.071 C 
ATOM     91  H52 VAL d   1      28.730  16.927  20.108  0.00  0.00     0.028 H 
ATOM     92  H53 VAL d   1      29.728  15.811  19.116  0.00  0.00     0.028 H 
ATOM     93  H54 VAL d   1      28.167  16.428  18.477  0.00  0.00     0.028 H 
ENDBRANCH  84  90
ENDBRANCH  77  84
ENDBRANCH  75  77
ENDBRANCH  71  73
BRANCH  71  94
ATOM     94  CB  THR d   1      29.220  17.465  23.051  0.00  0.00     0.060 C 
ATOM     95  H41 THR d   1      28.973  16.578  22.449  0.00  0.00     0.086 H 
BRANCH  94  96
ATOM     96  OG1 THR d   1      28.646  18.628  22.445  0.00  0.00    -0.393 OA
ATOM     97  H42 THR d   1      27.702  18.532  22.409  0.00  0.00     0.210 HD
ENDBRANCH  94  96
BRANCH  94  98
ATOM     98  CG2 THR d   1      28.652  17.294  24.442  0.00  0.00    -0.050 C 
ATOM     99  H43 THR d   1      27.560  17.178  24.380  0.00  0.00     0.031 H 
ATOM    100  H44 THR d   1      28.893  18.180  25.048  0.00  0.00     0.031 H 
ATOM    101  H45 THR d   1      29.090  16.400  24.909  0.00  0.00     0.031 H 
ENDBRANCH  94  98
ENDBRANCH  71  94
ENDBRANCH  69  71
ENDBRANCH  65  67
BRANCH  65 102
ATOM    102  CB  THR d   1      33.179  20.533  25.387  0.00  0.00     0.060 C 
ATOM    103  H34 THR d   1      33.907  19.817  25.796  0.00  0.00     0.086 H 
BRANCH 102 104
ATOM    104  OG1 THR d   1      33.450  21.839  25.909  0.00  0.00    -0.393 OA
ATOM    105  H35 THR d   1      34.324  22.107  25.651  0.00  0.00     0.210 HD
ENDBRANCH 102 104
BRANCH 102 106
ATOM    106  CG2 THR d   1      33.313  20.567  23.863  0.00  0.00    -0.050 C 
ATOM    107  H36 THR d   1      34.333  20.875  23.591  0.00  0.00     0.031 H 
ATOM    108  H37 THR d   1      32.590  21.285  23.447  0.00  0.00     0.031 H 
ATOM    109  H38 THR d   1      33.112  19.566  23.455  0.00  0.00     0.031 H 
ENDBRANCH 102 106
ENDBRANCH  65 102
ENDBRANCH  63  65
ENDBRANCH   1  61
TORSDOF 35
