REMARK WARNING: 32 MAX_TORS EXCEEDED!!!
REMARK  50 active torsions:
REMARK  status: ('A' for Active; 'I' for Inactive)
REMARK    1  A    between atoms: N_1  and  CA_2 
REMARK    2  A    between atoms: CA_2  and  C_3 
REMARK    3  A    between atoms: CA_2  and  CB_5 
REMARK       I    between atoms: C_3  and  N_6 
REMARK    4  A    between atoms: N_6  and  CA_7 
REMARK    5  A    between atoms: CA_7  and  C_8 
REMARK    6  A    between atoms: CA_7  and  CB_10 
REMARK       I    between atoms: C_8  and  N_17 
REMARK    7  A    between atoms: CB_10  and  CG_11 
REMARK    8  A    between atoms: CG_11  and  CD_12 
REMARK    9  A    between atoms: CD_12  and  NE_13 
REMARK       I    between atoms: NE_13  and  CZ_14 
REMARK       I    between atoms: CZ_14  and  NH1_15 
REMARK       I    between atoms: CZ_14  and  NH2_16 
REMARK   10  A    between atoms: N_17  and  CA_18 
REMARK   11  A    between atoms: CA_18  and  C_19 
REMARK   12  A    between atoms: CA_18  and  CB_21 
REMARK       I    between atoms: C_19  and  N_24 
REMARK   13  A    between atoms: CB_21  and  OG1_22 
REMARK   14  A    between atoms: CB_21  and  CG2_23 
REMARK   15  A    between atoms: N_24  and  CA_25 
REMARK   16  A    between atoms: CA_25  and  CB_26 
REMARK   17  A    between atoms: CA_25  and  C_31 
REMARK   18  A    between atoms: CB_26  and  CG_27 
REMARK   19  A    between atoms: CG_27  and  CD_28 
REMARK   20  A    between atoms: CD_28  and  CE_29 
REMARK   21  A    between atoms: CE_29  and  NZ_30 
REMARK   22  A    between atoms: NZ_30  and  CM1_33 
REMARK   23  A    between atoms: NZ_30  and  CM2_34 
REMARK   24  A    between atoms: NZ_30  and  CM3_35 
REMARK       I    between atoms: C_31  and  N_36 
REMARK   25  A    between atoms: N_36  and  CA_37 
REMARK   26  A    between atoms: CA_37  and  C_38 
REMARK   27  A    between atoms: CA_37  and  CB_40 
REMARK       I    between atoms: C_38  and  N_45 
REMARK   28  A    between atoms: CB_40  and  CG_41 
REMARK   29  A    between atoms: CG_41  and  CD_42 
REMARK       I    between atoms: CD_42  and  NE2_44 
REMARK   30  A    between atoms: N_45  and  CA_46 
REMARK   31  A    between atoms: CA_46  and  C_47 
REMARK   32  A    between atoms: CA_46  and  CB_49 
REMARK       I    between atoms: C_47  and  N_52 
REMARK   33  A    between atoms: CB_49  and  OG1_50 
REMARK   34  A    between atoms: CB_49  and  CG2_51 
REMARK   35  A    between atoms: N_52  and  CA_53 
REMARK   36  A    between atoms: CA_53  and  C_54 
REMARK   37  A    between atoms: CA_53  and  CB_56 
REMARK       I    between atoms: C_54  and  N_57 
REMARK   38  A    between atoms: N_57  and  CA_58 
REMARK   39  A    between atoms: CA_58  and  C_59 
REMARK   40  A    between atoms: CA_58  and  CB_61 
REMARK       I    between atoms: C_59  and  N_68 
REMARK   41  A    between atoms: CB_61  and  CG_62 
REMARK   42  A    between atoms: CG_62  and  CD_63 
REMARK   43  A    between atoms: CD_63  and  NE_64 
REMARK       I    between atoms: NE_64  and  CZ_65 
REMARK       I    between atoms: CZ_65  and  NH1_66 
REMARK   44  A    between atoms: N_68  and  CA_69 
REMARK   45  A    between atoms: CA_69  and  C_70 
REMARK   46  A    between atoms: CA_69  and  CB_72 
REMARK   47  A    between atoms: CB_72  and  CG_73 
REMARK   48  A    between atoms: CG_73  and  CD_74 
REMARK   49  A    between atoms: CD_74  and  CE_75 
REMARK   50  A    between atoms: CE_75  and  NZ_76 
ROOT
ATOM      1  CA  GLN d   1      16.015   6.986  33.022  0.00  0.00     0.090 C 
ATOM      2  H48 GLN d   1      15.960   6.193  33.782  0.00  0.00     0.087 H 
ENDROOT
BRANCH   1   3
ATOM      3  N   GLN d   1      14.759   7.716  33.050  0.00  0.00    -0.346 N 
ATOM      4  C   M3L d   1      14.559   8.793  32.304  0.00  0.00     0.241 C 
ATOM      5  O   M3L d   1      15.420   9.261  31.555  0.00  0.00    -0.271 OA
ATOM      6  H47 GLN d   1      14.025   7.397  33.649  0.00  0.00     0.163 HD
BRANCH   4   7
ATOM      7  CA  M3L d   1      13.185   9.444  32.424  0.00  0.00     0.089 C 
ATOM      8  H29 M3L d   1      12.748   9.225  33.409  0.00  0.00     0.087 H 
BRANCH   7   9
ATOM      9  N   M3L d   1      13.365  10.881  32.278  0.00  0.00    -0.346 N 
ATOM     10  C   THR d   1      12.824  11.763  33.107  0.00  0.00     0.243 C 
ATOM     11  O   THR d   1      12.103  11.452  34.049  0.00  0.00    -0.271 OA
ATOM     12  H28 M3L d   1      13.921  11.218  31.519  0.00  0.00     0.163 HD
BRANCH  10  13
ATOM     13  CA  THR d   1      13.154  13.216  32.816  0.00  0.00     0.113 C 
ATOM     14  H22 THR d   1      12.904  13.434  31.767  0.00  0.00     0.091 H 
BRANCH  13  15
ATOM     15  N   THR d   1      12.408  14.129  33.666  0.00  0.00    -0.344 N 
ATOM     16  C   ARG d   1      11.786  15.192  33.170  0.00  0.00     0.241 C 
ATOM     17  O   ARG d   1      11.776  15.476  31.964  0.00  0.00    -0.271 OA
ATOM     18  H21 THR d   1      12.362  13.952  34.649  0.00  0.00     0.163 HD
BRANCH  16  19
ATOM     19  CA  ARG d   1      11.097  16.074  34.194  0.00  0.00     0.089 C 
ATOM     20  H9  ARG d   1      11.540  15.867  35.179  0.00  0.00     0.087 H 
BRANCH  19  21
ATOM     21  N   ARG d   1      11.328  17.468  33.872  0.00  0.00    -0.346 N 
ATOM     22  C   ALA d   1      12.451  18.041  34.277  0.00  0.00     0.248 C 
ATOM     23  O   ALA d   1      13.290  17.435  34.949  0.00  0.00    -0.271 OA
ATOM     24  H8  ARG d   1      10.650  17.989  33.352  0.00  0.00     0.163 HD
BRANCH  22  25
ATOM     25  CA  ALA d   1      12.660  19.502  33.898  0.00  0.00     0.172 C 
ATOM     26  H4  ALA d   1      11.681  19.990  33.783  0.00  0.00     0.098 H 
BRANCH  25  27
ATOM     27  N   ALA d   1      13.428  20.191  34.982  0.00  0.00    -0.067 N 
ATOM     28  H1  ALA d   1      13.567  21.158  34.733  0.00  0.00     0.275 HD
ATOM     29  H2  ALA d   1      14.323  19.742  35.097  0.00  0.00     0.275 HD
ATOM     30  H3  ALA d   1      12.911  20.138  35.846  0.00  0.00     0.275 HD
ENDBRANCH  25  27
BRANCH  25  31
ATOM     31  CB  ALA d   1      13.420  19.592  32.579  0.00  0.00    -0.042 C 
ATOM     32  H5  ALA d   1      12.847  19.083  31.790  0.00  0.00     0.030 H 
ATOM     33  H6  ALA d   1      14.402  19.109  32.688  0.00  0.00     0.030 H 
ATOM     34  H7  ALA d   1      13.559  20.649  32.307  0.00  0.00     0.030 H 
ENDBRANCH  25  31
ENDBRANCH  22  25
ENDBRANCH  19  21
BRANCH  19  35
ATOM     35  CB  ARG d   1       9.605  15.781  34.277  0.00  0.00    -0.036 C 
ATOM     36  H10 ARG d   1       9.455  14.693  34.223  0.00  0.00     0.036 H 
ATOM     37  H11 ARG d   1       9.102  16.263  33.426  0.00  0.00     0.036 H 
BRANCH  35  38
ATOM     38  CG  ARG d   1       8.979  16.300  35.577  0.00  0.00    -0.048 C 
ATOM     39  H12 ARG d   1       7.941  15.943  35.639  0.00  0.00     0.035 H 
ATOM     40  H13 ARG d   1       8.988  17.400  35.562  0.00  0.00     0.035 H 
BRANCH  38  41
ATOM     41  CD  ARG d   1       9.750  15.812  36.819  0.00  0.00     0.009 C 
ATOM     42  H14 ARG d   1      10.643  16.440  36.952  0.00  0.00     0.064 H 
ATOM     43  H15 ARG d   1      10.056  14.768  36.660  0.00  0.00     0.064 H 
BRANCH  41  44
ATOM     44  NE  ARG d   1       8.935  15.886  38.032  0.00  0.00    -0.227 N 
ATOM     45  CZ  ARG d   1       8.659  14.846  38.818  0.00  0.00     0.665 C 
ATOM     46  NH1 ARG d   1       9.136  13.640  38.527  0.00  0.00    -0.235 N 
ATOM     47  NH2 ARG d   1       7.888  15.005  39.889  0.00  0.00    -0.235 N 
ATOM     48  H17 ARG d   1       8.920  12.839  39.138  0.00  0.00     0.174 HD
ATOM     49  H18 ARG d   1       9.722  13.506  37.691  0.00  0.00     0.174 HD
ATOM     50  H19 ARG d   1       7.515  15.937  40.121  0.00  0.00     0.174 HD
ATOM     51  H20 ARG d   1       7.664  14.197  40.487  0.00  0.00     0.174 HD
ATOM     52  H16 ARG d   1       8.549  16.804  38.296  0.00  0.00     0.177 HD
ENDBRANCH  41  44
ENDBRANCH  38  41
ENDBRANCH  35  38
ENDBRANCH  19  35
ENDBRANCH  16  19
ENDBRANCH  13  15
BRANCH  13  53
ATOM     53  CB  THR d   1      14.668  13.416  33.031  0.00  0.00     0.060 C 
ATOM     54  H23 THR d   1      15.223  12.721  32.384  0.00  0.00     0.086 H 
BRANCH  53  55
ATOM     55  OG1 THR d   1      14.982  13.158  34.404  0.00  0.00    -0.393 OA
ATOM     56  H24 THR d   1      14.742  12.264  34.620  0.00  0.00     0.210 HD
ENDBRANCH  53  55
BRANCH  53  57
ATOM     57  CG2 THR d   1      15.079  14.853  32.706  0.00  0.00    -0.050 C 
ATOM     58  H25 THR d   1      16.161  14.970  32.867  0.00  0.00     0.031 H 
ATOM     59  H26 THR d   1      14.534  15.548  33.362  0.00  0.00     0.031 H 
ATOM     60  H27 THR d   1      14.838  15.075  31.656  0.00  0.00     0.031 H 
ENDBRANCH  53  57
ENDBRANCH  13  53
ENDBRANCH  10  13
ENDBRANCH   7   9
BRANCH   7  61
ATOM     61  CB  M3L d   1      12.269   8.885  31.325  0.00  0.00    -0.038 C 
ATOM     62  H30 M3L d   1      12.314   7.787  31.372  0.00  0.00     0.036 H 
ATOM     63  H31 M3L d   1      12.657   9.227  30.354  0.00  0.00     0.036 H 
BRANCH  61  64
ATOM     64  CG  M3L d   1      10.813   9.297  31.418  0.00  0.00    -0.061 C 
ATOM     65  H32 M3L d   1      10.744  10.393  31.353  0.00  0.00     0.033 H 
ATOM     66  H33 M3L d   1      10.405   8.961  32.382  0.00  0.00     0.033 H 
BRANCH  64  67
ATOM     67  CD  M3L d   1       9.999   8.678  30.289  0.00  0.00    -0.042 C 
ATOM     68  H34 M3L d   1      10.070   7.582  30.355  0.00  0.00     0.035 H 
ATOM     69  H35 M3L d   1      10.409   9.014  29.325  0.00  0.00     0.035 H 
BRANCH  67  70
ATOM     70  CE  M3L d   1       8.523   9.090  30.375  0.00  0.00     0.084 C 
ATOM     71  H36 M3L d   1       8.480  10.187  30.309  0.00  0.00     0.076 H 
ATOM     72  H37 M3L d   1       8.144   8.767  31.356  0.00  0.00     0.076 H 
BRANCH  70  73
ATOM     73  NZ  M3L d   1       7.598   8.533  29.323  0.00  0.00    -0.079 N 
BRANCH  73  74
ATOM     74  CM1 M3L d   1       7.661   7.034  29.318  0.00  0.00     0.067 C 
ATOM     75  H38 M3L d   1       6.982   6.641  28.547  0.00  0.00     0.068 H 
ATOM     76  H39 M3L d   1       7.357   6.651  30.303  0.00  0.00     0.068 H 
ATOM     77  H40 M3L d   1       8.690   6.711  29.100  0.00  0.00     0.068 H 
ENDBRANCH  73  74
BRANCH  73  78
ATOM     78  CM2 M3L d   1       6.208   8.966  29.694  0.00  0.00     0.067 C 
ATOM     79  H41 M3L d   1       6.155  10.065  29.699  0.00  0.00     0.068 H 
ATOM     80  H42 M3L d   1       5.959   8.582  30.694  0.00  0.00     0.068 H 
ATOM     81  H43 M3L d   1       5.492   8.568  28.960  0.00  0.00     0.068 H 
ENDBRANCH  73  78
BRANCH  73  82
ATOM     82  CM3 M3L d   1       7.947   9.037  27.957  0.00  0.00     0.067 C 
ATOM     83  H44 M3L d   1       8.966   8.714  27.696  0.00  0.00     0.068 H 
ATOM     84  H45 M3L d   1       7.897  10.136  27.948  0.00  0.00     0.068 H 
ATOM     85  H46 M3L d   1       7.235   8.631  27.223  0.00  0.00     0.068 H 
ENDBRANCH  73  82
ENDBRANCH  70  73
ENDBRANCH  67  70
ENDBRANCH  64  67
ENDBRANCH  61  64
ENDBRANCH   7  61
ENDBRANCH   4   7
ENDBRANCH   1   3
BRANCH   1  86
ATOM     86  C   GLN d   1      17.228   7.860  33.346  0.00  0.00     0.241 C 
ATOM     87  O   GLN d   1      18.309   7.662  32.802  0.00  0.00    -0.271 OA
ATOM     88  N   THR d   1      17.042   8.831  34.230  0.00  0.00    -0.344 N 
ATOM     89  H55 THR d   1      16.134   8.968  34.625  0.00  0.00     0.163 HD
BRANCH  88  90
ATOM     90  CA  THR d   1      18.136   9.701  34.635  0.00  0.00     0.113 C 
ATOM     91  H56 THR d   1      18.985   9.555  33.952  0.00  0.00     0.091 H 
BRANCH  90  92
ATOM     92  C   THR d   1      18.539   9.325  36.045  0.00  0.00     0.243 C 
ATOM     93  O   THR d   1      19.459   9.906  36.619  0.00  0.00    -0.271 OA
ATOM     94  N   ALA d   1      17.826   8.352  36.604  0.00  0.00    -0.346 N 
ATOM     95  H62 ALA d   1      17.073   7.936  36.093  0.00  0.00     0.163 HD
BRANCH  94  96
ATOM     96  CA  ALA d   1      18.125   7.886  37.943  0.00  0.00     0.086 C 
ATOM     97  H63 ALA d   1      18.194   8.756  38.612  0.00  0.00     0.086 H 
BRANCH  96  98
ATOM     98  C   ALA d   1      19.464   7.168  37.931  0.00  0.00     0.240 C 
ATOM     99  O   ALA d   1      19.781   6.368  37.050  0.00  0.00    -0.271 OA
ATOM    100  N   ARG d   1      20.234   7.519  38.941  0.00  0.00    -0.346 N 
ATOM    101  H67 ARG d   1      19.851   8.196  39.570  0.00  0.00     0.163 HD
BRANCH 100 102
ATOM    102  CA  ARG d   1      21.568   7.045  39.253  0.00  0.00     0.089 C 
ATOM    103  H68 ARG d   1      22.227   7.161  38.380  0.00  0.00     0.087 H 
BRANCH 102 104
ATOM    104  C   ARG d   1      21.586   5.585  39.716  0.00  0.00     0.241 C 
ATOM    105  O   ARG d   1      21.040   5.270  40.773  0.00  0.00    -0.271 OA
ATOM    106  N   LYS d   1      22.224   4.698  38.957  0.00  0.00    -0.345 N 
ATOM    107  H80 LYS d   1      22.655   4.994  38.105  0.00  0.00     0.163 HD
BRANCH 106 108
ATOM    108  CA  LYS d   1      22.300   3.292  39.359  0.00  0.00     0.096 C 
ATOM    109  H81 LYS d   1      21.358   3.016  39.855  0.00  0.00     0.089 H 
BRANCH 108 110
ATOM    110  C   LYS d   1      23.455   3.084  40.340  0.00  0.00     0.196 C 
ATOM    111  O   LYS d   1      24.474   3.802  40.210  0.00  0.00    -0.646 OA
ATOM    112  OXT LYS d   1      23.330   2.200  41.217  0.00  0.00    -0.646 OA
ENDBRANCH 108 110
BRANCH 108 113
ATOM    113  CB  LYS d   1      22.494   2.393  38.133  0.00  0.00    -0.037 C 
ATOM    114  H82 LYS d   1      21.503   2.090  37.764  0.00  0.00     0.036 H 
ATOM    115  H83 LYS d   1      23.059   1.501  38.442  0.00  0.00     0.036 H 
BRANCH 113 116
ATOM    116  CG  LYS d   1      23.247   3.068  36.990  0.00  0.00    -0.061 C 
ATOM    117  H84 LYS d   1      23.763   3.957  37.382  0.00  0.00     0.033 H 
ATOM    118  H85 LYS d   1      22.522   3.374  36.221  0.00  0.00     0.033 H 
BRANCH 116 119
ATOM    119  CD  LYS d   1      24.279   2.144  36.351  0.00  0.00    -0.043 C 
ATOM    120  H86 LYS d   1      24.631   1.431  37.111  0.00  0.00     0.035 H 
ATOM    121  H87 LYS d   1      25.125   2.752  35.999  0.00  0.00     0.035 H 
BRANCH 119 122
ATOM    122  CE  LYS d   1      23.721   1.362  35.174  0.00  0.00     0.080 C 
ATOM    123  H88 LYS d   1      22.675   1.104  35.397  0.00  0.00     0.075 H 
ATOM    124  H89 LYS d   1      24.311   0.440  35.062  0.00  0.00     0.075 H 
BRANCH 122 125
ATOM    125  NZ  LYS d   1      23.754   2.099  33.873  0.00  0.00    -0.079 N 
ATOM    126  H90 LYS d   1      23.369   1.516  33.147  0.00  0.00     0.274 HD
ATOM    127  H91 LYS d   1      24.707   2.335  33.645  0.00  0.00     0.274 HD
ATOM    128  H92 LYS d   1      23.208   2.943  33.951  0.00  0.00     0.274 HD
ENDBRANCH 122 125
ENDBRANCH 119 122
ENDBRANCH 116 119
ENDBRANCH 113 116
ENDBRANCH 108 113
ENDBRANCH 106 108
ENDBRANCH 102 104
BRANCH 102 129
ATOM    129  CB  ARG d   1      22.021   7.913  40.391  0.00  0.00    -0.036 C 
ATOM    130  H69 ARG d   1      22.431   8.857  40.004  0.00  0.00     0.036 H 
ATOM    131  H70 ARG d   1      22.791   7.392  40.978  0.00  0.00     0.036 H 
BRANCH 129 132
ATOM    132  CG  ARG d   1      20.795   8.195  41.268  0.00  0.00    -0.048 C 
ATOM    133  H71 ARG d   1      21.048   7.991  42.319  0.00  0.00     0.035 H 
ATOM    134  H72 ARG d   1      19.969   7.540  40.955  0.00  0.00     0.035 H 
BRANCH 132 135
ATOM    135  CD  ARG d   1      20.368   9.622  41.134  0.00  0.00     0.009 C 
ATOM    136  H73 ARG d   1      19.358   9.759  41.547  0.00  0.00     0.064 H 
ATOM    137  H74 ARG d   1      20.377   9.926  40.077  0.00  0.00     0.064 H 
BRANCH 135 138
ATOM    138  NE  ARG d   1      21.331  10.401  41.890  0.00  0.00    -0.227 N 
ATOM    139  CZ  ARG d   1      21.711  11.639  41.607  0.00  0.00     0.665 C 
ATOM    140  NH1 ARG d   1      22.608  12.229  42.386  0.00  0.00    -0.235 N 
ATOM    141  NH2 ARG d   1      21.206  12.282  40.560  0.00  0.00    -0.235 N 
ATOM    142  H76 ARG d   1      22.915  13.191  42.181  0.00  0.00     0.174 HD
ATOM    143  H77 ARG d   1      22.998  11.726  43.196  0.00  0.00     0.174 HD
ATOM    144  H78 ARG d   1      20.510  11.819  39.958  0.00  0.00     0.174 HD
ATOM    145  H79 ARG d   1      21.511  13.243  40.350  0.00  0.00     0.174 HD
ATOM    146  H75 ARG d   1      21.755   9.954  42.716  0.00  0.00     0.177 HD
ENDBRANCH 135 138
ENDBRANCH 132 135
ENDBRANCH 129 132
ENDBRANCH 102 129
ENDBRANCH 100 102
ENDBRANCH  96  98
BRANCH  96 147
ATOM    147  CB  ALA d   1      17.025   6.961  38.465  0.00  0.00    -0.049 C 
ATOM    148  H64 ALA d   1      17.280   6.625  39.481  0.00  0.00     0.030 H 
ATOM    149  H65 ALA d   1      16.935   6.088  37.802  0.00  0.00     0.030 H 
ATOM    150  H66 ALA d   1      16.069   7.505  38.488  0.00  0.00     0.030 H 
ENDBRANCH  96 147
ENDBRANCH  94  96
ENDBRANCH  90  92
BRANCH  90 151
ATOM    151  CB  THR d   1      17.731  11.177  34.623  0.00  0.00     0.060 C 
ATOM    152  H57 THR d   1      18.418  11.742  35.270  0.00  0.00     0.086 H 
BRANCH 151 153
ATOM    153  OG1 THR d   1      16.398  11.314  35.125  0.00  0.00    -0.393 OA
ATOM    154  H58 THR d   1      16.150  12.231  35.116  0.00  0.00     0.210 HD
ENDBRANCH 151 153
BRANCH 151 155
ATOM    155  CG2 THR d   1      17.814  11.729  33.224  0.00  0.00    -0.050 C 
ATOM    156  H59 THR d   1      17.521  12.789  33.230  0.00  0.00     0.031 H 
ATOM    157  H60 THR d   1      17.136  11.165  32.566  0.00  0.00     0.031 H 
ATOM    158  H61 THR d   1      18.846  11.636  32.854  0.00  0.00     0.031 H 
ENDBRANCH 151 155
ENDBRANCH  90 151
ENDBRANCH  88  90
ENDBRANCH   1  86
BRANCH   1 159
ATOM    159  CB  GLN d   1      16.199   6.334  31.653  0.00  0.00    -0.030 C 
ATOM    160  H49 GLN d   1      17.084   5.682  31.697  0.00  0.00     0.037 H 
ATOM    161  H50 GLN d   1      16.366   7.129  30.911  0.00  0.00     0.037 H 
BRANCH 159 162
ATOM    162  CG  GLN d   1      15.017   5.503  31.202  0.00  0.00     0.011 C 
ATOM    163  H51 GLN d   1      15.263   5.042  30.234  0.00  0.00     0.047 H 
ATOM    164  H52 GLN d   1      14.149   6.168  31.082  0.00  0.00     0.047 H 
BRANCH 162 165
ATOM    165  CD  GLN d   1      14.648   4.400  32.181  0.00  0.00     0.215 C 
ATOM    166  OE1 GLN d   1      15.481   3.567  32.545  0.00  0.00    -0.274 OA
ATOM    167  NE2 GLN d   1      13.388   4.382  32.601  0.00  0.00    -0.370 N 
ATOM    168  H53 GLN d   1      13.086   3.680  33.246  0.00  0.00     0.159 HD
ATOM    169  H54 GLN d   1      12.742   5.071  32.272  0.00  0.00     0.159 HD
ENDBRANCH 162 165
ENDBRANCH 159 162
ENDBRANCH   1 159
TORSDOF 50
