REMARK WARNING: 32 MAX_TORS EXCEEDED!!!
REMARK  59 active torsions:
REMARK  status: ('A' for Active; 'I' for Inactive)
REMARK    1  A    between atoms: CA_2  and  N_1 
REMARK    2  A    between atoms: C_3  and  CA_2 
REMARK    3  A    between atoms: CA_2  and  CB_5 
REMARK       I    between atoms: N_17  and  C_3 
REMARK    4  A    between atoms: NH2_7  and  CAA_6 
REMARK       I    between atoms: CZ_8  and  NH2_7 
REMARK       I    between atoms: CZ_8  and  NH1_9 
REMARK       I    between atoms: NE_10  and  CZ_8 
REMARK    5  A    between atoms: CD_11  and  NE_10 
REMARK    6  A    between atoms: CG_12  and  CD_11 
REMARK    7  A    between atoms: CB_13  and  CG_12 
REMARK    8  A    between atoms: CA_14  and  CB_13 
REMARK    9  A    between atoms: CA_14  and  C_15 
REMARK   10  A    between atoms: CA_14  and  N_17 
REMARK       I    between atoms: C_15  and  N_18 
REMARK   11  A    between atoms: N_18  and  CA_19 
REMARK   12  A    between atoms: CA_19  and  C_20 
REMARK   13  A    between atoms: CA_19  and  CB_22 
REMARK       I    between atoms: C_20  and  N_25 
REMARK   14  A    between atoms: CB_22  and  OG1_23 
REMARK   15  A    between atoms: CB_22  and  CG2_24 
REMARK   16  A    between atoms: N_25  and  CA_26 
REMARK   17  A    between atoms: CA_26  and  CB_27 
REMARK   18  A    between atoms: CA_26  and  C_32 
REMARK   19  A    between atoms: CB_27  and  CG_28 
REMARK   20  A    between atoms: CG_28  and  CD_29 
REMARK   21  A    between atoms: CD_29  and  CE_30 
REMARK   22  A    between atoms: CE_30  and  NZ_31 
REMARK   23  A    between atoms: NZ_31  and  CM1_34 
REMARK   24  A    between atoms: NZ_31  and  CM2_35 
REMARK   25  A    between atoms: NZ_31  and  CM3_36 
REMARK       I    between atoms: C_32  and  N_37 
REMARK   26  A    between atoms: N_37  and  CA_38 
REMARK   27  A    between atoms: CA_38  and  C_39 
REMARK   28  A    between atoms: CA_38  and  CB_41 
REMARK       I    between atoms: C_39  and  N_46 
REMARK   29  A    between atoms: CB_41  and  CG_42 
REMARK   30  A    between atoms: CG_42  and  CD_43 
REMARK       I    between atoms: CD_43  and  NE2_45 
REMARK   31  A    between atoms: N_46  and  CA_47 
REMARK   32  A    between atoms: CA_47  and  C_48 
REMARK   33  A    between atoms: CA_47  and  CB_50 
REMARK       I    between atoms: C_48  and  N_53 
REMARK   34  A    between atoms: CB_50  and  OG1_51 
REMARK   35  A    between atoms: CB_50  and  CG2_52 
REMARK   36  A    between atoms: N_53  and  CA_54 
REMARK   37  A    between atoms: CA_54  and  C_55 
REMARK   38  A    between atoms: CA_54  and  CB_57 
REMARK       I    between atoms: C_55  and  N_58 
REMARK   39  A    between atoms: N_58  and  CA_59 
REMARK   40  A    between atoms: CA_59  and  C_60 
REMARK   41  A    between atoms: CA_59  and  CB_62 
REMARK       I    between atoms: C_60  and  N_69 
REMARK   42  A    between atoms: CB_62  and  CG_63 
REMARK   43  A    between atoms: CG_63  and  CD_64 
REMARK   44  A    between atoms: CD_64  and  NE_65 
REMARK       I    between atoms: NE_65  and  CZ_66 
REMARK       I    between atoms: CZ_66  and  NH1_67 
REMARK   45  A    between atoms: N_69  and  CA_70 
REMARK   46  A    between atoms: CA_70  and  C_71 
REMARK   47  A    between atoms: CA_70  and  CB_73 
REMARK       I    between atoms: C_71  and  N_78 
REMARK   48  A    between atoms: CB_73  and  CG_74 
REMARK   49  A    between atoms: CG_74  and  CD_75 
REMARK   50  A    between atoms: CD_75  and  CE_76 
REMARK   51  A    between atoms: CE_76  and  NZ_77 
REMARK   52  A    between atoms: N_78  and  CA_79 
REMARK   53  A    between atoms: CA_79  and  C_80 
REMARK   54  A    between atoms: CA_79  and  CB_82 
REMARK       I    between atoms: C_80  and  N_83 
REMARK   55  A    between atoms: N_83  and  CA_84 
REMARK   56  A    between atoms: CA_84  and  C_85 
REMARK   57  A    between atoms: CA_84  and  CB_87 
REMARK       I    between atoms: C_85  and  N_88 
REMARK   58  A    between atoms: N_88  and  CA_89 
REMARK   59  A    between atoms: CA_89  and  C_90 
ROOT
ATOM      1  N   THR d   1     -30.867   9.693  33.904  0.00  0.00    -0.344 N 
ATOM      2  H57 THR d   1     -31.765   9.781  34.335  0.00  0.00     0.163 HD
ATOM      3  C   GLN d   1     -30.679   8.786  32.954  0.00  0.00     0.241 C 
ATOM      4  O   GLN d   1     -29.619   8.659  32.373  0.00  0.00    -0.271 OA
ENDROOT
BRANCH   3   5
ATOM      5  CA  GLN d   1     -31.865   7.902  32.594  0.00  0.00     0.090 C 
ATOM      6  H50 GLN d   1     -31.962   7.132  33.373  0.00  0.00     0.087 H 
BRANCH   5   7
ATOM      7  N   GLN d   1     -33.130   8.632  32.531  0.00  0.00    -0.346 N 
ATOM      8  C   M3L d   1     -33.319   9.678  31.732  0.00  0.00     0.241 C 
ATOM      9  O   M3L d   1     -32.458  10.115  30.988  0.00  0.00    -0.271 OA
ATOM     10  H49 GLN d   1     -33.885   8.332  33.114  0.00  0.00     0.163 HD
BRANCH   8  11
ATOM     11  CA  M3L d   1     -34.703  10.318  31.780  0.00  0.00     0.089 C 
ATOM     12  H31 M3L d   1     -35.186  10.089  32.742  0.00  0.00     0.087 H 
BRANCH  11  13
ATOM     13  N   M3L d   1     -34.557  11.765  31.647  0.00  0.00    -0.346 N 
ATOM     14  C   THR d   1     -35.207  12.645  32.406  0.00  0.00     0.243 C 
ATOM     15  O   THR d   1     -36.005  12.335  33.274  0.00  0.00    -0.271 OA
ATOM     16  H30 M3L d   1     -33.934  12.114  30.947  0.00  0.00     0.163 HD
BRANCH  14  17
ATOM     17  CA  THR d   1     -34.875  14.107  32.134  0.00  0.00     0.113 C 
ATOM     18  H24 THR d   1     -34.980  14.305  31.057  0.00  0.00     0.091 H 
BRANCH  17  19
ATOM     19  N   THR d   1     -35.758  15.019  32.854  0.00  0.00    -0.344 N 
ATOM     20  C   NMM d   1     -36.196  16.140  32.287  0.00  0.00     0.241 C 
ATOM     21  O   NMM d   1     -35.911  16.465  31.146  0.00  0.00    -0.271 OA
ATOM     22  H23 THR d   1     -36.038  14.798  33.788  0.00  0.00     0.163 HD
BRANCH  20  23
ATOM     23  CA  NMM d   1     -37.097  17.018  33.140  0.00  0.00     0.089 C 
ATOM     24  H21 NMM d   1     -37.004  16.719  34.194  0.00  0.00     0.087 H 
BRANCH  23  25
ATOM     25  CB  NMM d   1     -38.546  16.843  32.699  0.00  0.00    -0.036 C 
ATOM     26  H19 NMM d   1     -38.640  17.136  31.643  0.00  0.00     0.036 H 
ATOM     27  H20 NMM d   1     -38.833  15.787  32.813  0.00  0.00     0.036 H 
BRANCH  25  28
ATOM     28  CG  NMM d   1     -39.470  17.704  33.539  0.00  0.00    -0.048 C 
ATOM     29  H17 NMM d   1     -39.372  17.416  34.596  0.00  0.00     0.035 H 
ATOM     30  H18 NMM d   1     -39.189  18.761  33.419  0.00  0.00     0.035 H 
BRANCH  28  31
ATOM     31  CD  NMM d   1     -40.904  17.518  33.103  0.00  0.00     0.009 C 
ATOM     32  H15 NMM d   1     -41.048  17.971  32.111  0.00  0.00     0.064 H 
ATOM     33  H16 NMM d   1     -41.137  16.444  33.053  0.00  0.00     0.064 H 
BRANCH  31  34
ATOM     34  NE  NMM d   1     -41.802  18.174  34.082  0.00  0.00    -0.227 N 
ATOM     35  CZ  NMM d   1     -43.106  18.435  33.877  0.00  0.00     0.667 C 
ATOM     36  NH2 NMM d   1     -43.814  19.021  34.814  0.00  0.00    -0.231 N 
ATOM     37  NH1 NMM d   1     -43.667  18.086  32.706  0.00  0.00    -0.235 N 
ATOM     38  H11 NMM d   1     -43.357  19.276  35.701  0.00  0.00     0.177 HD
ATOM     39  H12 NMM d   1     -43.099  17.627  31.980  0.00  0.00     0.174 HD
ATOM     40  H13 NMM d   1     -44.664  18.278  32.535  0.00  0.00     0.174 HD
ATOM     41  H14 NMM d   1     -41.398  18.451  34.988  0.00  0.00     0.177 HD
BRANCH  36  42
ATOM     42  CAA NMM d   1     -45.234  19.322  34.634  0.00  0.00    -0.005 C 
ATOM     43  H8  NMM d   1     -45.623  19.810  35.540  0.00  0.00     0.057 H 
ATOM     44  H9  NMM d   1     -45.787  18.388  34.454  0.00  0.00     0.057 H 
ATOM     45  H10 NMM d   1     -45.360  19.994  33.773  0.00  0.00     0.057 H 
ENDBRANCH  36  42
ENDBRANCH  31  34
ENDBRANCH  28  31
ENDBRANCH  25  28
ENDBRANCH  23  25
BRANCH  23  46
ATOM     46  N   NMM d   1     -36.681  18.413  32.999  0.00  0.00    -0.346 N 
ATOM     47  C   ALA d   1     -35.566  18.866  33.567  0.00  0.00     0.248 C 
ATOM     48  O   ALA d   1     -34.837  18.167  34.261  0.00  0.00    -0.271 OA
ATOM     49  H22 NMM d   1     -37.247  19.040  32.464  0.00  0.00     0.163 HD
BRANCH  47  50
ATOM     50  CA  ALA d   1     -35.238  20.335  33.321  0.00  0.00     0.172 C 
ATOM     51  H4  ALA d   1     -36.178  20.878  33.142  0.00  0.00     0.098 H 
BRANCH  50  52
ATOM     52  N   ALA d   1     -34.558  20.942  34.505  0.00  0.00    -0.067 N 
ATOM     53  H1  ALA d   1     -34.353  21.911  34.315  0.00  0.00     0.275 HD
ATOM     54  H2  ALA d   1     -33.699  20.447  34.690  0.00  0.00     0.275 HD
ATOM     55  H3  ALA d   1     -35.162  20.878  35.309  0.00  0.00     0.275 HD
ENDBRANCH  50  52
BRANCH  50  56
ATOM     56  CB  ALA d   1     -34.348  20.470  32.081  0.00  0.00    -0.042 C 
ATOM     57  H5  ALA d   1     -34.856  20.021  31.215  0.00  0.00     0.030 H 
ATOM     58  H6  ALA d   1     -33.394  19.951  32.256  0.00  0.00     0.030 H 
ATOM     59  H7  ALA d   1     -34.156  21.535  31.882  0.00  0.00     0.030 H 
ENDBRANCH  50  56
ENDBRANCH  47  50
ENDBRANCH  23  46
ENDBRANCH  20  23
ENDBRANCH  17  19
BRANCH  17  60
ATOM     60  CB  THR d   1     -33.403  14.316  32.550  0.00  0.00     0.060 C 
ATOM     61  H25 THR d   1     -32.764  13.642  31.961  0.00  0.00     0.086 H 
BRANCH  60  62
ATOM     62  OG1 THR d   1     -33.263  14.008  33.944  0.00  0.00    -0.393 OA
ATOM     63  H26 THR d   1     -33.825  14.582  34.452  0.00  0.00     0.210 HD
ENDBRANCH  60  62
BRANCH  60  64
ATOM     64  CG2 THR d   1     -32.962  15.755  32.307  0.00  0.00    -0.050 C 
ATOM     65  H27 THR d   1     -31.912  15.873  32.612  0.00  0.00     0.031 H 
ATOM     66  H28 THR d   1     -33.594  16.436  32.896  0.00  0.00     0.031 H 
ATOM     67  H29 THR d   1     -33.062  15.994  31.238  0.00  0.00     0.031 H 
ENDBRANCH  60  64
ENDBRANCH  17  60
ENDBRANCH  14  17
ENDBRANCH  11  13
BRANCH  11  68
ATOM     68  CB  M3L d   1     -35.546   9.739  30.640  0.00  0.00    -0.038 C 
ATOM     69  H32 M3L d   1     -35.524   8.642  30.722  0.00  0.00     0.036 H 
ATOM     70  H33 M3L d   1     -35.089  10.045  29.688  0.00  0.00     0.036 H 
BRANCH  68  71
ATOM     71  CG  M3L d   1     -36.994  10.180  30.629  0.00  0.00    -0.061 C 
ATOM     72  H34 M3L d   1     -37.039  11.271  30.494  0.00  0.00     0.033 H 
ATOM     73  H35 M3L d   1     -37.462   9.909  31.587  0.00  0.00     0.033 H 
BRANCH  71  74
ATOM     74  CD  M3L d   1     -37.749   9.507  29.498  0.00  0.00    -0.042 C 
ATOM     75  H36 M3L d   1     -37.715   8.417  29.644  0.00  0.00     0.035 H 
ATOM     76  H37 M3L d   1     -37.267   9.765  28.543  0.00  0.00     0.035 H 
BRANCH  74  77
ATOM     77  CE  M3L d   1     -39.210   9.957  29.455  0.00  0.00     0.084 C 
ATOM     78  H38 M3L d   1     -39.228  11.048  29.316  0.00  0.00     0.076 H 
ATOM     79  H39 M3L d   1     -39.676   9.702  30.418  0.00  0.00     0.076 H 
BRANCH  77  80
ATOM     80  NZ  M3L d   1     -40.029   9.331  28.358  0.00  0.00    -0.079 N 
BRANCH  80  81
ATOM     81  CM1 M3L d   1     -40.108   7.841  28.557  0.00  0.00     0.067 C 
ATOM     82  H40 M3L d   1     -40.708   7.395  27.750  0.00  0.00     0.068 H 
ATOM     83  H41 M3L d   1     -40.579   7.625  29.527  0.00  0.00     0.068 H 
ATOM     84  H42 M3L d   1     -39.094   7.414  28.539  0.00  0.00     0.068 H 
ENDBRANCH  80  81
BRANCH  80  85
ATOM     85  CM2 M3L d   1     -41.406   9.923  28.488  0.00  0.00     0.067 C 
ATOM     86  H43 M3L d   1     -41.352  11.012  28.343  0.00  0.00     0.068 H 
ATOM     87  H44 M3L d   1     -41.806   9.706  29.490  0.00  0.00     0.068 H 
ATOM     88  H45 M3L d   1     -42.067   9.484  27.726  0.00  0.00     0.068 H 
ENDBRANCH  80  85
BRANCH  80  89
ATOM     89  CM3 M3L d   1     -39.479   9.612  26.990  0.00  0.00     0.067 C 
ATOM     90  H46 M3L d   1     -38.473   9.176  26.903  0.00  0.00     0.068 H 
ATOM     91  H47 M3L d   1     -39.422  10.699  26.834  0.00  0.00     0.068 H 
ATOM     92  H48 M3L d   1     -40.139   9.166  26.231  0.00  0.00     0.068 H 
ENDBRANCH  80  89
ENDBRANCH  77  80
ENDBRANCH  74  77
ENDBRANCH  71  74
ENDBRANCH  68  71
ENDBRANCH  11  68
ENDBRANCH   8  11
ENDBRANCH   5   7
BRANCH   5  93
ATOM     93  CB  GLN d   1     -31.585   7.207  31.255  0.00  0.00    -0.030 C 
ATOM     94  H51 GLN d   1     -30.661   6.620  31.360  0.00  0.00     0.037 H 
ATOM     95  H52 GLN d   1     -31.442   7.983  30.489  0.00  0.00     0.037 H 
BRANCH  93  96
ATOM     96  CG  GLN d   1     -32.691   6.272  30.784  0.00  0.00     0.011 C 
ATOM     97  H53 GLN d   1     -32.385   5.816  29.831  0.00  0.00     0.047 H 
ATOM     98  H54 GLN d   1     -33.608   6.860  30.631  0.00  0.00     0.047 H 
BRANCH  96  99
ATOM     99  CD  GLN d   1     -32.982   5.169  31.779  0.00  0.00     0.215 C 
ATOM    100  OE1 GLN d   1     -32.080   4.500  32.250  0.00  0.00    -0.274 OA
ATOM    101  NE2 GLN d   1     -34.258   4.971  32.090  0.00  0.00    -0.370 N 
ATOM    102  H55 GLN d   1     -34.508   4.255  32.742  0.00  0.00     0.159 HD
ATOM    103  H56 GLN d   1     -34.968   5.537  31.672  0.00  0.00     0.159 HD
ENDBRANCH  96  99
ENDBRANCH  93  96
ENDBRANCH   5  93
ENDBRANCH   3   5
BRANCH   1 104
ATOM    104  CA  THR d   1     -29.774  10.563  34.324  0.00  0.00     0.113 C 
ATOM    105  H58 THR d   1     -28.908  10.370  33.674  0.00  0.00     0.091 H 
BRANCH 104 106
ATOM    106  C   THR d   1     -29.397  10.241  35.759  0.00  0.00     0.243 C 
ATOM    107  O   THR d   1     -28.608  10.932  36.370  0.00  0.00    -0.271 OA
ATOM    108  N   ALA d   1     -29.985   9.173  36.285  0.00  0.00    -0.346 N 
ATOM    109  H64 ALA d   1     -30.639   8.652  35.737  0.00  0.00     0.163 HD
BRANCH 108 110
ATOM    110  CA  ALA d   1     -29.694   8.751  37.640  0.00  0.00     0.086 C 
ATOM    111  H65 ALA d   1     -29.443   9.637  38.242  0.00  0.00     0.086 H 
BRANCH 110 112
ATOM    112  C   ALA d   1     -28.502   7.812  37.624  0.00  0.00     0.240 C 
ATOM    113  O   ALA d   1     -28.420   6.877  36.849  0.00  0.00    -0.271 OA
ATOM    114  N   ARG d   1     -27.580   8.113  38.516  0.00  0.00    -0.346 N 
ATOM    115  H69 ARG d   1     -27.750   8.902  39.106  0.00  0.00     0.163 HD
BRANCH 114 116
ATOM    116  CA  ARG d   1     -26.341   7.391  38.709  0.00  0.00     0.089 C 
ATOM    117  H70 ARG d   1     -25.803   7.277  37.757  0.00  0.00     0.087 H 
BRANCH 116 118
ATOM    118  C   ARG d   1     -26.668   5.976  39.276  0.00  0.00     0.241 C 
ATOM    119  O   ARG d   1     -27.318   5.875  40.299  0.00  0.00    -0.271 OA
ATOM    120  N   LYS d   1     -26.248   4.896  38.593  0.00  0.00    -0.346 N 
ATOM    121  H82 LYS d   1     -25.727   5.029  37.750  0.00  0.00     0.163 HD
BRANCH 120 122
ATOM    122  CA  LYS d   1     -26.532   3.512  39.050  0.00  0.00     0.089 C 
ATOM    123  H83 LYS d   1     -27.573   3.501  39.404  0.00  0.00     0.087 H 
BRANCH 122 124
ATOM    124  C   LYS d   1     -25.651   3.052  40.210  0.00  0.00     0.241 C 
ATOM    125  O   LYS d   1     -24.459   3.296  40.232  0.00  0.00    -0.271 OA
ATOM    126  N   ALA d   1     -26.265   2.350  41.156  0.00  0.00    -0.346 N 
ATOM    127  H95 ALA d   1     -27.237   2.142  41.047  0.00  0.00     0.163 HD
BRANCH 126 128
ATOM    128  CA  ALA d   1     -25.572   1.871  42.349  0.00  0.00     0.086 C 
ATOM    129  H96 ALA d   1     -25.037   2.744  42.751  0.00  0.00     0.086 H 
BRANCH 128 130
ATOM    130  C   ALA d   1     -24.521   0.776  42.196  0.00  0.00     0.240 C 
ATOM    131  O   ALA d   1     -24.746  -0.261  41.614  0.00  0.00    -0.271 OA
ATOM    132  N   ALA d   1     -23.375   1.072  42.782  0.00  0.00    -0.346 N 
ATOM    133 0H10 ALA d   1     -23.311   1.971  43.216  0.00  0.00     0.163 HD
BRANCH 132 134
ATOM    134  CA  ALA d   1     -22.209   0.232  42.859  0.00  0.00     0.086 C 
ATOM    135 1H10 ALA d   1     -22.246  -0.338  43.799  0.00  0.00     0.086 H 
BRANCH 134 136
ATOM    136  C   ALA d   1     -21.026   1.152  42.897  0.00  0.00     0.240 C 
ATOM    137  O   ALA d   1     -20.344   1.480  41.907  0.00  0.00    -0.271 OA
ATOM    138  N   GLY d   1     -20.964   1.615  44.131  0.00  0.00    -0.349 N 
ATOM    139 5H10 GLY d   1     -21.671   1.280  44.754  0.00  0.00     0.163 HD
BRANCH 138 140
ATOM    140  CA  GLY d   1     -20.029   2.526  44.695  0.00  0.00     0.075 C 
ATOM    141 6H10 GLY d   1     -20.240   3.573  44.432  0.00  0.00     0.080 H 
ATOM    142 7H10 GLY d   1     -18.987   2.285  44.436  0.00  0.00     0.080 H 
BRANCH 140 143
ATOM    143  C   GLY d   1     -20.372   2.197  46.147  0.00  0.00     0.191 C 
ATOM    144  O   GLY d   1     -21.559   1.886  46.431  0.00  0.00    -0.647 OA
ATOM    145  OXT GLY d   1     -19.474   2.250  47.019  0.00  0.00    -0.647 OA
ENDBRANCH 140 143
ENDBRANCH 138 140
ENDBRANCH 134 136
BRANCH 134 146
ATOM    146  CB  ALA d   1     -22.129  -0.748  41.744  0.00  0.00    -0.049 C 
ATOM    147 2H10 ALA d   1     -21.221  -1.359  41.857  0.00  0.00     0.030 H 
ATOM    148 3H10 ALA d   1     -22.092  -0.210  40.785  0.00  0.00     0.030 H 
ATOM    149 4H10 ALA d   1     -23.014  -1.400  41.765  0.00  0.00     0.030 H 
ENDBRANCH 134 146
ENDBRANCH 132 134
ENDBRANCH 128 130
BRANCH 128 150
ATOM    150  CB  ALA d   1     -26.591   1.433  43.398  0.00  0.00    -0.049 C 
ATOM    151  H97 ALA d   1     -26.064   1.073  44.294  0.00  0.00     0.030 H 
ATOM    152  H98 ALA d   1     -27.213   0.623  42.989  0.00  0.00     0.030 H 
ATOM    153  H99 ALA d   1     -27.230   2.287  43.667  0.00  0.00     0.030 H 
ENDBRANCH 128 150
ENDBRANCH 126 128
ENDBRANCH 122 124
BRANCH 122 154
ATOM    154  CB  LYS d   1     -26.416   2.487  37.890  0.00  0.00    -0.038 C 
ATOM    155  H84 LYS d   1     -25.506   2.720  37.318  0.00  0.00     0.036 H 
ATOM    156  H85 LYS d   1     -27.297   2.603  37.241  0.00  0.00     0.036 H 
BRANCH 154 157
ATOM    157  CG  LYS d   1     -26.338   0.992  38.341  0.00  0.00    -0.061 C 
ATOM    158  H86 LYS d   1     -27.142   0.811  39.069  0.00  0.00     0.033 H 
ATOM    159  H87 LYS d   1     -25.363   0.830  38.824  0.00  0.00     0.033 H 
BRANCH 157 160
ATOM    160  CD  LYS d   1     -26.486  -0.043  37.190  0.00  0.00    -0.043 C 
ATOM    161  H88 LYS d   1     -25.794   0.224  36.377  0.00  0.00     0.035 H 
ATOM    162  H89 LYS d   1     -27.520  -0.016  36.815  0.00  0.00     0.035 H 
BRANCH 160 163
ATOM    163  CE  LYS d   1     -26.164  -1.476  37.674  0.00  0.00     0.080 C 
ATOM    164  H90 LYS d   1     -26.570  -1.587  38.691  0.00  0.00     0.075 H 
ATOM    165  H91 LYS d   1     -25.070  -1.583  37.702  0.00  0.00     0.075 H 
BRANCH 163 166
ATOM    166  NZ  LYS d   1     -26.713  -2.595  36.837  0.00  0.00    -0.079 N 
ATOM    167  H92 LYS d   1     -26.445  -3.479  37.241  0.00  0.00     0.274 HD
ATOM    168  H93 LYS d   1     -26.344  -2.527  35.901  0.00  0.00     0.274 HD
ATOM    169  H94 LYS d   1     -27.718  -2.530  36.807  0.00  0.00     0.274 HD
ENDBRANCH 163 166
ENDBRANCH 160 163
ENDBRANCH 157 160
ENDBRANCH 154 157
ENDBRANCH 122 154
ENDBRANCH 120 122
ENDBRANCH 116 118
BRANCH 116 170
ATOM    170  CB  ARG d   1     -25.523   8.277  39.664  0.00  0.00    -0.036 C 
ATOM    171  H71 ARG d   1     -24.516   8.415  39.242  0.00  0.00     0.036 H 
ATOM    172  H72 ARG d   1     -25.447   7.770  40.637  0.00  0.00     0.036 H 
BRANCH 170 173
ATOM    173  CG  ARG d   1     -26.188   9.716  39.885  0.00  0.00    -0.048 C 
ATOM    174  H73 ARG d   1     -25.809  10.121  40.835  0.00  0.00     0.035 H 
ATOM    175  H74 ARG d   1     -27.277   9.579  39.953  0.00  0.00     0.035 H 
BRANCH 173 176
ATOM    176  CD  ARG d   1     -25.904  10.777  38.759  0.00  0.00     0.009 C 
ATOM    177  H75 ARG d   1     -25.503  10.240  37.887  0.00  0.00     0.064 H 
ATOM    178  H76 ARG d   1     -25.145  11.475  39.141  0.00  0.00     0.064 H 
BRANCH 176 179
ATOM    179  NE  ARG d   1     -27.062  11.578  38.301  0.00  0.00    -0.227 N 
ATOM    180  CZ  ARG d   1     -27.479  12.741  38.816  0.00  0.00     0.665 C 
ATOM    181  NH1 ARG d   1     -26.850  13.298  39.842  0.00  0.00    -0.235 N 
ATOM    182  NH2 ARG d   1     -28.528  13.365  38.283  0.00  0.00    -0.235 N 
ATOM    183  H78 ARG d   1     -27.184  14.193  40.226  0.00  0.00     0.174 HD
ATOM    184  H79 ARG d   1     -26.027  12.835  40.255  0.00  0.00     0.174 HD
ATOM    185  H80 ARG d   1     -29.027  12.945  37.486  0.00  0.00     0.174 HD
ATOM    186  H81 ARG d   1     -28.840  14.268  38.668  0.00  0.00     0.174 HD
ATOM    187  H77 ARG d   1     -27.600  11.203  37.507  0.00  0.00     0.177 HD
ENDBRANCH 176 179
ENDBRANCH 173 176
ENDBRANCH 170 173
ENDBRANCH 116 170
ENDBRANCH 114 116
ENDBRANCH 110 112
BRANCH 110 188
ATOM    188  CB  ALA d   1     -30.900   8.066  38.264  0.00  0.00    -0.049 C 
ATOM    189  H66 ALA d   1     -30.655   7.755  39.290  0.00  0.00     0.030 H 
ATOM    190  H67 ALA d   1     -31.169   7.182  37.668  0.00  0.00     0.030 H 
ATOM    191  H68 ALA d   1     -31.749   8.765  38.285  0.00  0.00     0.030 H 
ENDBRANCH 110 188
ENDBRANCH 108 110
ENDBRANCH 104 106
BRANCH 104 192
ATOM    192  CB  THR d   1     -30.139  12.059  34.219  0.00  0.00     0.060 C 
ATOM    193  H59 THR d   1     -29.395  12.646  34.777  0.00  0.00     0.086 H 
BRANCH 192 194
ATOM    194  OG1 THR d   1     -31.430  12.280  34.791  0.00  0.00    -0.393 OA
ATOM    195  H60 THR d   1     -31.651  13.201  34.724  0.00  0.00     0.210 HD
ENDBRANCH 192 194
BRANCH 192 196
ATOM    196  CG2 THR d   1     -30.133  12.512  32.770  0.00  0.00    -0.050 C 
ATOM    197  H61 THR d   1     -30.395  13.579  32.718  0.00  0.00     0.031 H 
ATOM    198  H62 THR d   1     -30.868  11.926  32.200  0.00  0.00     0.031 H 
ATOM    199  H63 THR d   1     -29.131  12.360  32.342  0.00  0.00     0.031 H 
ENDBRANCH 192 196
ENDBRANCH 104 192
ENDBRANCH   1 104
TORSDOF 59
