REMARK WARNING: 32 MAX_TORS EXCEEDED!!!
REMARK  45 active torsions:
REMARK  status: ('A' for Active; 'I' for Inactive)
REMARK    1  A    between atoms: CA_2  and  N_1 
REMARK    2  A    between atoms: C_3  and  CA_2 
REMARK    3  A    between atoms: CA_2  and  CB_5 
REMARK       I    between atoms: N_8  and  C_3 
REMARK    4  A    between atoms: NH1_16  and  C1_6 
REMARK    5  A    between atoms: NH1_16  and  C2_7 
REMARK    6  A    between atoms: CA_9  and  N_8 
REMARK    7  A    between atoms: CB_10  and  CA_9 
REMARK    8  A    between atoms: CA_9  and  C_17 
REMARK    9  A    between atoms: CG_11  and  CB_10 
REMARK   10  A    between atoms: CD_12  and  CG_11 
REMARK   11  A    between atoms: NE_13  and  CD_12 
REMARK       I    between atoms: CZ_14  and  NE_13 
REMARK       I    between atoms: CZ_14  and  NH2_15 
REMARK       I    between atoms: CZ_14  and  NH1_16 
REMARK       I    between atoms: C_17  and  N_19 
REMARK   12  A    between atoms: N_19  and  CA_20 
REMARK   13  A    between atoms: CA_20  and  C_21 
REMARK   14  A    between atoms: CA_20  and  CB_23 
REMARK       I    between atoms: C_21  and  N_26 
REMARK   15  A    between atoms: CB_23  and  OG1_24 
REMARK   16  A    between atoms: CB_23  and  CG2_25 
REMARK   17  A    between atoms: N_26  and  CA_27 
REMARK   18  A    between atoms: CA_27  and  CB_28 
REMARK   19  A    between atoms: CA_27  and  C_33 
REMARK   20  A    between atoms: CB_28  and  CG_29 
REMARK   21  A    between atoms: CG_29  and  CD_30 
REMARK   22  A    between atoms: CD_30  and  CE_31 
REMARK   23  A    between atoms: CE_31  and  NZ_32 
REMARK   24  A    between atoms: NZ_32  and  CM1_35 
REMARK   25  A    between atoms: NZ_32  and  CM2_36 
REMARK   26  A    between atoms: NZ_32  and  CM3_37 
REMARK       I    between atoms: C_33  and  N_38 
REMARK   27  A    between atoms: N_38  and  CA_39 
REMARK   28  A    between atoms: CA_39  and  C_40 
REMARK   29  A    between atoms: CA_39  and  CB_42 
REMARK       I    between atoms: C_40  and  N_47 
REMARK   30  A    between atoms: CB_42  and  CG_43 
REMARK   31  A    between atoms: CG_43  and  CD_44 
REMARK       I    between atoms: CD_44  and  NE2_46 
REMARK   32  A    between atoms: N_47  and  CA_48 
REMARK   33  A    between atoms: CA_48  and  C_49 
REMARK   34  A    between atoms: CA_48  and  CB_51 
REMARK       I    between atoms: C_49  and  N_54 
REMARK   35  A    between atoms: CB_51  and  OG1_52 
REMARK   36  A    between atoms: CB_51  and  CG2_53 
REMARK   37  A    between atoms: N_54  and  CA_55 
REMARK   38  A    between atoms: CA_55  and  C_56 
REMARK   39  A    between atoms: CA_55  and  CB_58 
REMARK       I    between atoms: C_56  and  N_59 
REMARK   40  A    between atoms: N_59  and  CA_60 
REMARK   41  A    between atoms: CA_60  and  C_61 
REMARK   42  A    between atoms: CA_60  and  CB_63 
REMARK       I    between atoms: C_61  and  N_70 
REMARK   43  A    between atoms: CB_63  and  CG_64 
REMARK   44  A    between atoms: CG_64  and  CD_65 
REMARK   45  A    between atoms: CD_65  and  NE_66 
REMARK       I    between atoms: NE_66  and  CZ_67 
REMARK       I    between atoms: CZ_67  and  NH1_68 
ROOT
ATOM      1  CA  NON d   1       9.021 -20.611   1.558  0.00  0.00     0.089 C 
ATOM      2  H33 NON d   1       8.959 -21.040   0.547  0.00  0.00     0.087 H 
ENDROOT
BRANCH   1   3
ATOM      3  N   NON d   1       7.958 -19.629   1.729  0.00  0.00    -0.346 N 
ATOM      4  C   NON d   1       7.198 -19.224   0.714  0.00  0.00     0.243 C 
ATOM      5  O   NON d   1       7.365 -19.592  -0.431  0.00  0.00    -0.271 OA
ATOM      6  H32 NON d   1       7.794 -19.247   2.639  0.00  0.00     0.163 HD
BRANCH   4   7
ATOM      7  CA  NON d   1       6.095 -18.230   1.059  0.00  0.00     0.113 C 
ATOM      8  H26 NON d   1       6.522 -17.413   1.659  0.00  0.00     0.091 H 
BRANCH   7   9
ATOM      9  N   NON d   1       5.516 -17.653  -0.152  0.00  0.00    -0.344 N 
ATOM     10  C   NON d   1       5.222 -16.358  -0.220  0.00  0.00     0.241 C 
ATOM     11  OA1 NON d   1       5.396 -15.589   0.714  0.00  0.00    -0.271 OA
ATOM     12  H25 NON d   1       5.338 -18.241  -0.941  0.00  0.00     0.163 HD
BRANCH  10  13
ATOM     13  CA  NON d   1       4.630 -15.857  -1.535  0.00  0.00     0.089 C 
ATOM     14  H15 NON d   1       4.313 -16.715  -2.145  0.00  0.00     0.087 H 
BRANCH  13  15
ATOM     15  N   NON d   1       3.474 -15.020  -1.238  0.00  0.00    -0.346 N 
ATOM     16  C   NON d   1       2.373 -15.547  -0.715  0.00  0.00     0.248 C 
ATOM     17  O   NON d   1       2.256 -16.736  -0.484  0.00  0.00    -0.271 OA
ATOM     18  H14 NON d   1       3.510 -14.039  -1.430  0.00  0.00     0.163 HD
BRANCH  16  19
ATOM     19  CA  NON d   1       1.232 -14.585  -0.413  0.00  0.00     0.172 C 
ATOM     20  H4  NON d   1       1.165 -13.848  -1.226  0.00  0.00     0.098 H 
BRANCH  19  21
ATOM     21  N   NON d   1      -0.064 -15.317  -0.319  0.00  0.00    -0.067 N 
ATOM     22  H1  NON d   1      -0.805 -14.664  -0.119  0.00  0.00     0.275 HD
ATOM     23  H2  NON d   1      -0.011 -16.001   0.419  0.00  0.00     0.275 HD
ATOM     24  H3  NON d   1      -0.252 -15.781  -1.194  0.00  0.00     0.275 HD
ENDBRANCH  19  21
BRANCH  19  25
ATOM     25  CB  NON d   1       1.510 -13.854   0.899  0.00  0.00    -0.042 C 
ATOM     26  H5  NON d   1       2.467 -13.316   0.824  0.00  0.00     0.030 H 
ATOM     27  H6  NON d   1       1.563 -14.583   1.721  0.00  0.00     0.030 H 
ATOM     28  H7  NON d   1       0.701 -13.136   1.097  0.00  0.00     0.030 H 
ENDBRANCH  19  25
ENDBRANCH  16  19
ENDBRANCH  13  15
BRANCH  13  29
ATOM     29  CB  NON d   1       5.682 -15.054  -2.305  0.00  0.00    -0.036 C 
ATOM     30  H16 NON d   1       6.550 -15.701  -2.499  0.00  0.00     0.036 H 
ATOM     31  H17 NON d   1       5.994 -14.197  -1.691  0.00  0.00     0.036 H 
BRANCH  29  32
ATOM     32  CG  NON d   1       5.146 -14.537  -3.635  0.00  0.00    -0.048 C 
ATOM     33  H18 NON d   1       4.397 -13.754  -3.443  0.00  0.00     0.035 H 
ATOM     34  H19 NON d   1       4.676 -15.367  -4.182  0.00  0.00     0.035 H 
BRANCH  32  35
ATOM     35  CD  NON d   1       6.271 -13.956  -4.479  0.00  0.00     0.009 C 
ATOM     36  H20 NON d   1       6.694 -13.082  -3.963  0.00  0.00     0.064 H 
ATOM     37  H21 NON d   1       5.867 -13.646  -5.454  0.00  0.00     0.064 H 
BRANCH  35  38
ATOM     38  NE  NON d   1       7.348 -14.964  -4.695  0.00  0.00    -0.227 N 
ATOM     39  CZ  NON d   1       8.600 -14.684  -5.131  0.00  0.00     0.668 C 
ATOM     40  NH2 NON d   1       8.913 -13.405  -5.397  0.00  0.00    -0.235 N 
ATOM     41  NH1 NON d   1       9.506 -15.642  -5.298  0.00  0.00    -0.227 N 
ATOM     42  H23 NON d   1       8.209 -12.665  -5.267  0.00  0.00     0.174 HD
ATOM     43  H24 NON d   1       9.857 -13.165  -5.731  0.00  0.00     0.174 HD
ATOM     44  H22 NON d   1       7.123 -15.950  -4.497  0.00  0.00     0.177 HD
BRANCH  41  45
ATOM     45  C1  NON d   1      10.860 -15.325  -5.773  0.00  0.00    -0.003 C 
ATOM     46  H8  NON d   1      11.450 -16.251  -5.843  0.00  0.00     0.057 H 
ATOM     47  H9  NON d   1      11.344 -14.634  -5.067  0.00  0.00     0.057 H 
ATOM     48  H10 NON d   1      10.800 -14.853  -6.765  0.00  0.00     0.057 H 
ENDBRANCH  41  45
BRANCH  41  49
ATOM     49  C2  NON d   1       9.173 -17.039  -5.008  0.00  0.00    -0.003 C 
ATOM     50  H11 NON d   1       8.130 -17.104  -4.666  0.00  0.00     0.057 H 
ATOM     51  H12 NON d   1       9.841 -17.420  -4.221  0.00  0.00     0.057 H 
ATOM     52  H13 NON d   1       9.298 -17.642  -5.919  0.00  0.00     0.057 H 
ENDBRANCH  41  49
ENDBRANCH  35  38
ENDBRANCH  32  35
ENDBRANCH  29  32
ENDBRANCH  13  29
ENDBRANCH  10  13
ENDBRANCH   7   9
BRANCH   7  53
ATOM     53  CB  NON d   1       5.033 -18.977   1.912  0.00  0.00     0.060 C 
ATOM     54  H27 NON d   1       5.520 -19.378   2.813  0.00  0.00     0.086 H 
BRANCH  53  55
ATOM     55  OG1 NON d   1       4.479 -20.061   1.155  0.00  0.00    -0.393 OA
ATOM     56  H28 NON d   1       4.069 -19.720   0.369  0.00  0.00     0.210 HD
ENDBRANCH  53  55
BRANCH  53  57
ATOM     57  CG2 NON d   1       3.920 -18.037   2.332  0.00  0.00    -0.050 C 
ATOM     58  H29 NON d   1       3.182 -18.588   2.933  0.00  0.00     0.031 H 
ATOM     59  H30 NON d   1       3.430 -17.626   1.437  0.00  0.00     0.031 H 
ATOM     60  H31 NON d   1       4.340 -17.215   2.930  0.00  0.00     0.031 H 
ENDBRANCH  53  57
ENDBRANCH   7  53
ENDBRANCH   4   7
ENDBRANCH   1   3
BRANCH   1  61
ATOM     61  CB  NON d   1      10.403 -19.986   1.756  0.00  0.00    -0.038 C 
ATOM     62  H34 NON d   1      11.150 -20.791   1.696  0.00  0.00     0.036 H 
ATOM     63  H35 NON d   1      10.430 -19.535   2.759  0.00  0.00     0.036 H 
BRANCH  61  64
ATOM     64  CG  NON d   1      10.787 -18.919   0.755  0.00  0.00    -0.061 C 
ATOM     65  H36 NON d   1      10.202 -18.008   0.949  0.00  0.00     0.033 H 
ATOM     66  H37 NON d   1      10.577 -19.280  -0.263  0.00  0.00     0.033 H 
BRANCH  64  67
ATOM     67  CD  NON d   1      12.268 -18.605   0.884  0.00  0.00    -0.042 C 
ATOM     68  H38 NON d   1      12.845 -19.441   0.462  0.00  0.00     0.035 H 
ATOM     69  H39 NON d   1      12.514 -18.490   1.950  0.00  0.00     0.035 H 
BRANCH  67  70
ATOM     70  CE  NON d   1      12.651 -17.324   0.151  0.00  0.00     0.084 C 
ATOM     71  H40 NON d   1      12.120 -16.485   0.624  0.00  0.00     0.076 H 
ATOM     72  H41 NON d   1      12.330 -17.417  -0.897  0.00  0.00     0.076 H 
BRANCH  70  73
ATOM     73  NZ  NON d   1      14.125 -17.019   0.167  0.00  0.00    -0.079 N 
BRANCH  73  74
ATOM     74  CM1 NON d   1      14.864 -18.048  -0.629  0.00  0.00     0.067 C 
ATOM     75  H42 NON d   1      15.940 -17.820  -0.614  0.00  0.00     0.068 H 
ATOM     76  H43 NON d   1      14.502 -18.038  -1.668  0.00  0.00     0.068 H 
ATOM     77  H44 NON d   1      14.694 -19.043  -0.191  0.00  0.00     0.068 H 
ENDBRANCH  73  74
BRANCH  73  78
ATOM     78  CM2 NON d   1      14.255 -15.690  -0.514  0.00  0.00     0.067 C 
ATOM     79  H45 NON d   1      13.714 -14.927   0.065  0.00  0.00     0.068 H 
ATOM     80  H46 NON d   1      13.828 -15.753  -1.526  0.00  0.00     0.068 H 
ATOM     81  H47 NON d   1      15.318 -15.415  -0.581  0.00  0.00     0.068 H 
ENDBRANCH  73  78
BRANCH  73  82
ATOM     82  CM3 NON d   1      14.734 -16.950   1.542  0.00  0.00     0.067 C 
ATOM     83  H48 NON d   1      14.635 -17.928   2.036  0.00  0.00     0.068 H 
ATOM     84  H49 NON d   1      14.213 -16.185   2.136  0.00  0.00     0.068 H 
ATOM     85  H50 NON d   1      15.799 -16.687   1.459  0.00  0.00     0.068 H 
ENDBRANCH  73  82
ENDBRANCH  70  73
ENDBRANCH  67  70
ENDBRANCH  64  67
ENDBRANCH  61  64
ENDBRANCH   1  61
BRANCH   1  86
ATOM     86  C   NON d   1       8.835 -21.706   2.598  0.00  0.00     0.241 C 
ATOM     87  O   NON d   1       8.442 -21.434   3.716  0.00  0.00    -0.271 OA
ATOM     88  N   NON d   1       9.123 -22.942   2.208  0.00  0.00    -0.346 N 
ATOM     89  H51 NON d   1       9.430 -23.095   1.269  0.00  0.00     0.163 HD
BRANCH  88  90
ATOM     90  CA  NON d   1       9.005 -24.080   3.106  0.00  0.00     0.090 C 
ATOM     91  H52 NON d   1       9.223 -24.988   2.525  0.00  0.00     0.087 H 
BRANCH  90  92
ATOM     92  C   NON d   1       7.611 -24.238   3.710  0.00  0.00     0.241 C 
ATOM     93  O   NON d   1       7.474 -24.469   4.900  0.00  0.00    -0.271 OA
ATOM     94  N   NON d   1       6.581 -24.109   2.879  0.00  0.00    -0.344 N 
ATOM     95  H59 NON d   1       6.752 -23.900   1.916  0.00  0.00     0.163 HD
BRANCH  94  96
ATOM     96  CA  NON d   1       5.202 -24.267   3.345  0.00  0.00     0.113 C 
ATOM     97  H60 NON d   1       5.224 -24.497   4.420  0.00  0.00     0.091 H 
BRANCH  96  98
ATOM     98  C   NON d   1       4.524 -25.412   2.603  0.00  0.00     0.243 C 
ATOM     99  O   NON d   1       3.360 -25.680   2.799  0.00  0.00    -0.271 OA
ATOM    100  N   NON d   1       5.281 -26.080   1.742  0.00  0.00    -0.346 N 
ATOM    101  H66 NON d   1       6.235 -25.809   1.618  0.00  0.00     0.163 HD
BRANCH 100 102
ATOM    102  CA  NON d   1       4.754 -27.198   0.975  0.00  0.00     0.086 C 
ATOM    103  H67 NON d   1       3.836 -26.874   0.463  0.00  0.00     0.086 H 
BRANCH 102 104
ATOM    104  C   NON d   1       4.416 -28.368   1.895  0.00  0.00     0.240 C 
ATOM    105  O   NON d   1       5.214 -28.754   2.730  0.00  0.00    -0.271 OA
ATOM    106  N   NON d   1       3.221 -28.921   1.732  0.00  0.00    -0.346 N 
ATOM    107  H71 NON d   1       2.602 -28.549   1.040  0.00  0.00     0.163 HD
BRANCH 106 108
ATOM    108  CA  NON d   1       2.788 -30.057   2.536  0.00  0.00     0.089 C 
ATOM    109  H72 NON d   1       3.520 -30.224   3.340  0.00  0.00     0.087 H 
BRANCH 108 110
ATOM    110  C   NON d   1       2.705 -31.305   1.671  0.00  0.00     0.238 C 
ATOM    111  O   NON d   1       3.437 -32.272   1.963  0.00  0.00    -0.271 OA
ATOM    112  N   NON d   1       1.908 -31.295   0.710  0.00  0.00    -0.368 N 
ATOM    113  H84 NON d   1       1.827 -32.098   0.119  0.00  0.00     0.159 HD
ATOM    114  H85 NON d   1       1.351 -30.484   0.531  0.00  0.00     0.159 HD
ENDBRANCH 108 110
BRANCH 108 115
ATOM    115  CB  NON d   1       1.422 -29.778   3.156  0.00  0.00    -0.036 C 
ATOM    116  H73 NON d   1       0.995 -30.735   3.491  0.00  0.00     0.036 H 
ATOM    117  H74 NON d   1       0.776 -29.339   2.381  0.00  0.00     0.036 H 
BRANCH 115 118
ATOM    118  CG  NON d   1       1.451 -28.831   4.341  0.00  0.00    -0.048 C 
ATOM    119  H75 NON d   1       2.086 -27.966   4.101  0.00  0.00     0.035 H 
ATOM    120  H76 NON d   1       1.860 -29.355   5.217  0.00  0.00     0.035 H 
BRANCH 118 121
ATOM    121  CD  NON d   1       0.049 -28.354   4.651  0.00  0.00     0.009 C 
ATOM    122  H77 NON d   1       0.072 -27.712   5.544  0.00  0.00     0.064 H 
ATOM    123  H78 NON d   1      -0.597 -29.224   4.841  0.00  0.00     0.064 H 
BRANCH 121 124
ATOM    124  NE  NON d   1      -0.484 -27.594   3.524  0.00  0.00    -0.227 N 
ATOM    125  CZ  NON d   1      -1.771 -27.315   3.342  0.00  0.00     0.665 C 
ATOM    126  NH1 NON d   1      -2.152 -26.612   2.281  0.00  0.00    -0.235 N 
ATOM    127  NH2 NON d   1      -2.678 -27.744   4.211  0.00  0.00    -0.235 N 
ATOM    128  H80 NON d   1      -3.149 -26.395   2.138  0.00  0.00     0.174 HD
ATOM    129  H81 NON d   1      -1.451 -26.284   1.601  0.00  0.00     0.174 HD
ATOM    130  H82 NON d   1      -2.385 -28.289   5.034  0.00  0.00     0.174 HD
ATOM    131  H83 NON d   1      -3.675 -27.532   4.062  0.00  0.00     0.174 HD
ATOM    132  H79 NON d   1       0.184 -27.250   2.820  0.00  0.00     0.177 HD
ENDBRANCH 121 124
ENDBRANCH 118 121
ENDBRANCH 115 118
ENDBRANCH 108 115
ENDBRANCH 106 108
ENDBRANCH 102 104
BRANCH 102 133
ATOM    133  CB  NON d   1       5.774 -27.636  -0.070  0.00  0.00    -0.049 C 
ATOM    134  H68 NON d   1       5.369 -28.481  -0.646  0.00  0.00     0.030 H 
ATOM    135  H69 NON d   1       6.703 -27.945   0.431  0.00  0.00     0.030 H 
ATOM    136  H70 NON d   1       5.986 -26.797  -0.750  0.00  0.00     0.030 H 
ENDBRANCH 102 133
ENDBRANCH 100 102
ENDBRANCH  96  98
BRANCH  96 137
ATOM    137  CB  NON d   1       4.366 -22.988   3.128  0.00  0.00     0.060 C 
ATOM    138  H61 NON d   1       3.324 -23.189   3.419  0.00  0.00     0.086 H 
BRANCH 137 139
ATOM    139  OG1 NON d   1       4.403 -22.616   1.746  0.00  0.00    -0.393 OA
ATOM    140  H62 NON d   1       3.887 -21.829   1.617  0.00  0.00     0.210 HD
ENDBRANCH 137 139
BRANCH 137 141
ATOM    141  CG2 NON d   1       4.903 -21.850   3.976  0.00  0.00    -0.050 C 
ATOM    142  H63 NON d   1       4.295 -20.949   3.808  0.00  0.00     0.031 H 
ATOM    143  H64 NON d   1       5.947 -21.645   3.696  0.00  0.00     0.031 H 
ATOM    144  H65 NON d   1       4.856 -22.131   5.038  0.00  0.00     0.031 H 
ENDBRANCH 137 141
ENDBRANCH  96 137
ENDBRANCH  94  96
ENDBRANCH  90  92
BRANCH  90 145
ATOM    145  CB  NON d   1      10.039 -23.963   4.231  0.00  0.00    -0.030 C 
ATOM    146  H53 NON d   1       9.972 -24.866   4.856  0.00  0.00     0.037 H 
ATOM    147  H54 NON d   1       9.791 -23.078   4.836  0.00  0.00     0.037 H 
BRANCH 145 148
ATOM    148  CG  NON d   1      11.478 -23.823   3.746  0.00  0.00     0.011 C 
ATOM    149  H55 NON d   1      12.141 -23.777   4.622  0.00  0.00     0.047 H 
ATOM    150  H56 NON d   1      11.566 -22.890   3.170  0.00  0.00     0.047 H 
BRANCH 148 151
ATOM    151  CD  NON d   1      11.918 -24.981   2.864  0.00  0.00     0.215 C 
ATOM    152  OE1 NON d   1      11.853 -26.130   3.259  0.00  0.00    -0.274 OA
ATOM    153  NE2 NON d   1      12.374 -24.666   1.659  0.00  0.00    -0.370 N 
ATOM    154  H57 NON d   1      12.678 -25.386   1.035  0.00  0.00     0.159 HD
ATOM    155  H58 NON d   1      12.414 -23.708   1.374  0.00  0.00     0.159 HD
ENDBRANCH 148 151
ENDBRANCH 145 148
ENDBRANCH  90 145
ENDBRANCH  88  90
ENDBRANCH   1  86
TORSDOF 45
