REMARK WARNING: 32 MAX_TORS EXCEEDED!!!
REMARK  45 active torsions:
REMARK  status: ('A' for Active; 'I' for Inactive)
REMARK    1  A    between atoms: N_1  and  CA_2 
REMARK    2  A    between atoms: CA_2  and  C_3 
REMARK    3  A    between atoms: CA_2  and  CB_5 
REMARK       I    between atoms: C_3  and  N_6 
REMARK    4  A    between atoms: N_6  and  CA_7 
REMARK    5  A    between atoms: CA_7  and  CB_8 
REMARK    6  A    between atoms: CA_7  and  C_17 
REMARK    7  A    between atoms: CB_8  and  CG_9 
REMARK    8  A    between atoms: CG_9  and  CD_10 
REMARK    9  A    between atoms: CD_10  and  NE_11 
REMARK       I    between atoms: NE_11  and  CZ_12 
REMARK       I    between atoms: CZ_12  and  NH2_15 
REMARK   10  A    between atoms: NH1_13  and  CQ1_14 
REMARK   11  A    between atoms: NH2_15  and  CQ2_16 
REMARK       I    between atoms: C_17  and  N_19 
REMARK   12  A    between atoms: N_19  and  CA_20 
REMARK   13  A    between atoms: CA_20  and  C_21 
REMARK   14  A    between atoms: CA_20  and  CB_23 
REMARK       I    between atoms: C_21  and  N_26 
REMARK   15  A    between atoms: CB_23  and  OG1_24 
REMARK   16  A    between atoms: CB_23  and  CG2_25 
REMARK   17  A    between atoms: N_26  and  CA_27 
REMARK   18  A    between atoms: CA_27  and  CB_28 
REMARK   19  A    between atoms: CA_27  and  C_33 
REMARK   20  A    between atoms: CB_28  and  CG_29 
REMARK   21  A    between atoms: CG_29  and  CD_30 
REMARK   22  A    between atoms: CD_30  and  CE_31 
REMARK   23  A    between atoms: CE_31  and  NZ_32 
REMARK   24  A    between atoms: NZ_32  and  CM1_35 
REMARK   25  A    between atoms: NZ_32  and  CM2_36 
REMARK   26  A    between atoms: NZ_32  and  CM3_37 
REMARK       I    between atoms: C_33  and  N_38 
REMARK   27  A    between atoms: N_38  and  CA_39 
REMARK   28  A    between atoms: CA_39  and  C_40 
REMARK   29  A    between atoms: CA_39  and  CB_42 
REMARK       I    between atoms: C_40  and  N_47 
REMARK   30  A    between atoms: CB_42  and  CG_43 
REMARK   31  A    between atoms: CG_43  and  CD_44 
REMARK       I    between atoms: CD_44  and  NE2_46 
REMARK   32  A    between atoms: N_47  and  CA_48 
REMARK   33  A    between atoms: CA_48  and  C_49 
REMARK   34  A    between atoms: CA_48  and  CB_51 
REMARK       I    between atoms: C_49  and  N_54 
REMARK   35  A    between atoms: CB_51  and  OG1_52 
REMARK   36  A    between atoms: CB_51  and  CG2_53 
REMARK   37  A    between atoms: N_54  and  CA_55 
REMARK   38  A    between atoms: CA_55  and  C_56 
REMARK   39  A    between atoms: CA_55  and  CB_58 
REMARK       I    between atoms: C_56  and  N_59 
REMARK   40  A    between atoms: N_59  and  CA_60 
REMARK   41  A    between atoms: CA_60  and  C_61 
REMARK   42  A    between atoms: CA_60  and  CB_63 
REMARK       I    between atoms: C_61  and  N_64 
REMARK   43  A    between atoms: N_64  and  CA_65 
REMARK   44  A    between atoms: CA_65  and  C_66 
REMARK   45  A    between atoms: CA_65  and  CB_68 
REMARK       I    between atoms: C_66  and  N_69 
ROOT
ATOM      1  CA  M3L d   1      10.545  10.271 -33.807  0.00  0.00     0.089 C 
ATOM      2  H33 M3L d   1      10.854  10.028 -34.834  0.00  0.00     0.087 H 
ENDROOT
BRANCH   1   3
ATOM      3  N   M3L d   1      10.416  11.711 -33.663  0.00  0.00    -0.346 N 
ATOM      4  C   THR d   1      10.957  12.584 -34.509  0.00  0.00     0.243 C 
ATOM      5  O   THR d   1      11.630  12.264 -35.484  0.00  0.00    -0.271 OA
ATOM      6  H32 M3L d   1       9.893  12.065 -32.887  0.00  0.00     0.163 HD
BRANCH   4   7
ATOM      7  CA  THR d   1      10.673  14.049 -34.195  0.00  0.00     0.113 C 
ATOM      8  H26 THR d   1      10.979  14.259 -33.159  0.00  0.00     0.091 H 
BRANCH   7   9
ATOM      9  N   THR d   1      11.396  14.956 -35.075  0.00  0.00    -0.344 N 
ATOM     10  C   2MR d   1      11.944  16.079 -34.623  0.00  0.00     0.241 C 
ATOM     11  O   2MR d   1      11.899  16.420 -33.448  0.00  0.00    -0.271 OA
ATOM     12  H25 THR d   1      11.482  14.728 -36.045  0.00  0.00     0.163 HD
BRANCH  10  13
ATOM     13  CA  2MR d   1      12.646  16.949 -35.661  0.00  0.00     0.089 C 
ATOM     14  H9  2MR d   1      12.296  16.658 -36.663  0.00  0.00     0.087 H 
BRANCH  13  15
ATOM     15  N   2MR d   1      12.293  18.339 -35.424  0.00  0.00    -0.346 N 
ATOM     16  C   ALA d   1      11.091  18.802 -35.751  0.00  0.00     0.248 C 
ATOM     17  O   ALA d   1      10.231  18.109 -36.283  0.00  0.00    -0.271 OA
ATOM     18  H8  2MR d   1      12.963  18.955 -35.010  0.00  0.00     0.163 HD
BRANCH  16  19
ATOM     19  CA  ALA d   1      10.825  20.265 -35.442  0.00  0.00     0.172 C 
ATOM     20  H4  ALA d   1      11.776  20.816 -35.474  0.00  0.00     0.098 H 
BRANCH  19  21
ATOM     21  N   ALA d   1       9.900  20.840 -36.459  0.00  0.00    -0.067 N 
ATOM     22  H1  ALA d   1       9.729  21.810 -36.247  0.00  0.00     0.275 HD
ATOM     23  H2  ALA d   1       9.028  20.334 -36.445  0.00  0.00     0.275 HD
ATOM     24  H3  ALA d   1      10.317  20.765 -37.373  0.00  0.00     0.275 HD
ENDBRANCH  19  21
BRANCH  19  25
ATOM     25  CB  ALA d   1      10.220  20.398 -34.040  0.00  0.00    -0.042 C 
ATOM     26  H5  ALA d   1      10.912  19.970 -33.300  0.00  0.00     0.030 H 
ATOM     27  H6  ALA d   1       9.262  19.858 -34.001  0.00  0.00     0.030 H 
ATOM     28  H7  ALA d   1      10.051  21.461 -33.813  0.00  0.00     0.030 H 
ENDBRANCH  19  25
ENDBRANCH  16  19
ENDBRANCH  13  15
BRANCH  13  29
ATOM     29  CB  2MR d   1      14.157  16.760 -35.605  0.00  0.00    -0.036 C 
ATOM     30  H10 2MR d   1      14.361  15.727 -35.287  0.00  0.00     0.036 H 
ATOM     31  H11 2MR d   1      14.562  17.460 -34.859  0.00  0.00     0.036 H 
BRANCH  29  32
ATOM     32  CG  2MR d   1      14.875  17.001 -36.918  0.00  0.00    -0.048 C 
ATOM     33  H12 2MR d   1      14.332  17.766 -37.492  0.00  0.00     0.035 H 
ATOM     34  H13 2MR d   1      14.904  16.063 -37.492  0.00  0.00     0.035 H 
BRANCH  32  35
ATOM     35  CD  2MR d   1      16.305  17.481 -36.667  0.00  0.00     0.009 C 
ATOM     36  H14 2MR d   1      16.262  18.463 -36.174  0.00  0.00     0.064 H 
ATOM     37  H15 2MR d   1      16.815  17.579 -37.637  0.00  0.00     0.064 H 
BRANCH  35  38
ATOM     38  NE  2MR d   1      17.087  16.568 -35.819  0.00  0.00    -0.227 N 
ATOM     39  CZ  2MR d   1      18.238  16.792 -35.095  0.00  0.00     0.668 C 
ATOM     40  NH1 2MR d   1      18.675  15.752 -34.381  0.00  0.00    -0.231 N 
ATOM     41  NH2 2MR d   1      18.949  17.975 -35.005  0.00  0.00    -0.231 N 
ATOM     42  H17 2MR d   1      18.196  14.843 -34.450  0.00  0.00     0.177 HD
ATOM     43  H21 2MR d   1      19.732  17.988 -34.336  0.00  0.00     0.177 HD
ATOM     44  H16 2MR d   1      16.715  15.609 -35.757  0.00  0.00     0.177 HD
BRANCH  40  45
ATOM     45  CQ1 2MR d   1      19.855  15.905 -33.485  0.00  0.00    -0.005 C 
ATOM     46  H18 2MR d   1      20.062  14.947 -32.985  0.00  0.00     0.057 H 
ATOM     47  H19 2MR d   1      19.644  16.675 -32.729  0.00  0.00     0.057 H 
ATOM     48  H20 2MR d   1      20.730  16.205 -34.080  0.00  0.00     0.057 H 
ENDBRANCH  40  45
BRANCH  41  49
ATOM     49  CQ2 2MR d   1      18.716  19.198 -35.747  0.00  0.00    -0.005 C 
ATOM     50  H22 2MR d   1      19.454  19.956 -35.446  0.00  0.00     0.057 H 
ATOM     51  H23 2MR d   1      17.702  19.568 -35.534  0.00  0.00     0.057 H 
ATOM     52  H24 2MR d   1      18.815  18.998 -36.824  0.00  0.00     0.057 H 
ENDBRANCH  41  49
ENDBRANCH  35  38
ENDBRANCH  32  35
ENDBRANCH  29  32
ENDBRANCH  13  29
ENDBRANCH  10  13
ENDBRANCH   7   9
BRANCH   7  53
ATOM     53  CB  THR d   1       9.151  14.250 -34.327  0.00  0.00     0.060 C 
ATOM     54  H27 THR d   1       8.637  13.575 -33.627  0.00  0.00     0.086 H 
BRANCH  53  55
ATOM     55  OG1 THR d   1       8.752  13.939 -35.666  0.00  0.00    -0.393 OA
ATOM     56  H28 THR d   1       9.205  14.514 -36.272  0.00  0.00     0.210 HD
ENDBRANCH  53  55
BRANCH  53  57
ATOM     57  CG2 THR d   1       8.760  15.690 -34.007  0.00  0.00    -0.050 C 
ATOM     58  H29 THR d   1       7.671  15.805 -34.109  0.00  0.00     0.031 H 
ATOM     59  H30 THR d   1       9.268  16.372 -34.705  0.00  0.00     0.031 H 
ATOM     60  H31 THR d   1       9.059  15.931 -32.976  0.00  0.00     0.031 H 
ENDBRANCH  53  57
ENDBRANCH   7  53
ENDBRANCH   4   7
ENDBRANCH   1   3
BRANCH   1  61
ATOM     61  CB  M3L d   1      11.567   9.708 -32.818  0.00  0.00    -0.038 C 
ATOM     62  H34 M3L d   1      11.630   8.621 -32.977  0.00  0.00     0.036 H 
ATOM     63  H35 M3L d   1      11.200   9.909 -31.800  0.00  0.00     0.036 H 
BRANCH  61  64
ATOM     64  CG  M3L d   1      12.967  10.279 -32.931  0.00  0.00    -0.061 C 
ATOM     65  H36 M3L d   1      12.953  11.342 -32.648  0.00  0.00     0.033 H 
ATOM     66  H37 M3L d   1      13.320  10.180 -33.968  0.00  0.00     0.033 H 
BRANCH  64  67
ATOM     67  CD  M3L d   1      13.901   9.524 -32.006  0.00  0.00    -0.042 C 
ATOM     68  H38 M3L d   1      13.948   8.474 -32.330  0.00  0.00     0.035 H 
ATOM     69  H39 M3L d   1      13.503   9.575 -30.982  0.00  0.00     0.035 H 
BRANCH  67  70
ATOM     70  CE  M3L d   1      15.310  10.104 -32.015  0.00  0.00     0.084 C 
ATOM     71  H40 M3L d   1      15.285  11.084 -31.516  0.00  0.00     0.076 H 
ATOM     72  H41 M3L d   1      15.626  10.233 -33.061  0.00  0.00     0.076 H 
BRANCH  70  73
ATOM     73  NZ  M3L d   1      16.323   9.242 -31.317  0.00  0.00    -0.079 N 
BRANCH  73  74
ATOM     74  CM1 M3L d   1      16.474   7.940 -32.056  0.00  0.00     0.067 C 
ATOM     75  H42 M3L d   1      17.216   7.311 -31.543  0.00  0.00     0.068 H 
ATOM     76  H43 M3L d   1      16.810   8.139 -33.084  0.00  0.00     0.068 H 
ATOM     77  H44 M3L d   1      15.506   7.418 -32.081  0.00  0.00     0.068 H 
ENDBRANCH  73  74
BRANCH  73  78
ATOM     78  CM2 M3L d   1      17.613  10.007 -31.393  0.00  0.00     0.067 C 
ATOM     79  H45 M3L d   1      17.506  10.960 -30.854  0.00  0.00     0.068 H 
ATOM     80  H46 M3L d   1      17.859  10.207 -32.446  0.00  0.00     0.068 H 
ATOM     81  H47 M3L d   1      18.418   9.414 -30.935  0.00  0.00     0.068 H 
ENDBRANCH  73  78
BRANCH  73  82
ATOM     82  CM3 M3L d   1      15.988   8.947 -29.881  0.00  0.00     0.067 C 
ATOM     83  H48 M3L d   1      15.043   8.387 -29.833  0.00  0.00     0.068 H 
ATOM     84  H49 M3L d   1      15.883   9.892 -29.327  0.00  0.00     0.068 H 
ATOM     85  H50 M3L d   1      16.793   8.347 -29.433  0.00  0.00     0.068 H 
ENDBRANCH  73  82
ENDBRANCH  70  73
ENDBRANCH  67  70
ENDBRANCH  64  67
ENDBRANCH  61  64
ENDBRANCH   1  61
BRANCH   1  86
ATOM     86  C   M3L d   1       9.187   9.645 -33.504  0.00  0.00     0.241 C 
ATOM     87  O   M3L d   1       8.479  10.093 -32.606  0.00  0.00    -0.271 OA
ATOM     88  N   GLN d   1       8.845   8.609 -34.263  0.00  0.00    -0.346 N 
ATOM     89  H51 GLN d   1       9.477   8.314 -34.980  0.00  0.00     0.163 HD
BRANCH  88  90
ATOM     90  CA  GLN d   1       7.591   7.883 -34.099  0.00  0.00     0.090 C 
ATOM     91  H52 GLN d   1       7.552   7.102 -34.872  0.00  0.00     0.087 H 
BRANCH  90  92
ATOM     92  C   GLN d   1       6.361   8.769 -34.266  0.00  0.00     0.241 C 
ATOM     93  O   GLN d   1       5.406   8.667 -33.500  0.00  0.00    -0.271 OA
ATOM     94  N   THR d   1       6.388   9.634 -35.276  0.00  0.00    -0.344 N 
ATOM     95  H59 THR d   1       7.198   9.675 -35.861  0.00  0.00     0.163 HD
BRANCH  94  96
ATOM     96  CA  THR d   1       5.265  10.525 -35.551  0.00  0.00     0.113 C 
ATOM     97  H60 THR d   1       4.493  10.351 -34.787  0.00  0.00     0.091 H 
BRANCH  96  98
ATOM     98  C   THR d   1       4.670  10.238 -36.924  0.00  0.00     0.243 C 
ATOM     99  O   THR d   1       3.730  10.902 -37.353  0.00  0.00    -0.271 OA
ATOM    100  N   ALA d   1       5.228   9.244 -37.606  0.00  0.00    -0.346 N 
ATOM    101  H66 ALA d   1       5.998   8.747 -37.206  0.00  0.00     0.163 HD
BRANCH 100 102
ATOM    102  CA  ALA d   1       4.740   8.862 -38.927  0.00  0.00     0.086 C 
ATOM    103  H67 ALA d   1       4.511   9.767 -39.509  0.00  0.00     0.086 H 
BRANCH 102 104
ATOM    104  C   ALA d   1       3.474   8.037 -38.753  0.00  0.00     0.240 C 
ATOM    105  O   ALA d   1       3.404   7.187 -37.877  0.00  0.00    -0.271 OA
ATOM    106  N   ARG d   1       2.473   8.300 -39.587  0.00  0.00    -0.346 N 
ATOM    107  H71 ARG d   1       2.584   9.014 -40.278  0.00  0.00     0.163 HD
BRANCH 106 108
ATOM    108  CA  ARG d   1       1.216   7.566 -39.513  0.00  0.00     0.086 C 
ATOM    109  H72 ARG d   1       0.838   7.606 -38.481  0.00  0.00     0.086 H 
BRANCH 108 110
ATOM    110  C   ARG d   1       1.456   6.109 -39.898  0.00  0.00     0.240 C 
ATOM    111  O   ARG d   1       2.328   5.812 -40.704  0.00  0.00    -0.271 OA
ATOM    112  N   LYS d   1       0.674   5.206 -39.315  0.00  0.00    -0.346 N 
ATOM    113  H76 LYS d   1      -0.031   5.513 -38.675  0.00  0.00     0.163 HD
BRANCH 112 114
ATOM    114  CA  LYS d   1       0.816   3.779 -39.583  0.00  0.00     0.086 C 
ATOM    115  H77 LYS d   1       1.856   3.601 -39.894  0.00  0.00     0.086 H 
BRANCH 114 116
ATOM    116  C   LYS d   1      -0.092   3.275 -40.702  0.00  0.00     0.237 C 
ATOM    117  O   LYS d   1      -0.765   4.101 -41.354  0.00  0.00    -0.271 OA
ATOM    118  N   SER d   1      -0.109   2.046 -40.915  0.00  0.00    -0.368 N 
ATOM    119  H81 SER d   1      -0.689   1.672 -41.638  0.00  0.00     0.159 HD
ATOM    120  H82 SER d   1       0.458   1.435 -40.362  0.00  0.00     0.159 HD
ENDBRANCH 114 116
BRANCH 114 121
ATOM    121  CB  LYS d   1       0.556   2.987 -38.305  0.00  0.00    -0.049 C 
ATOM    122  H78 LYS d   1       0.664   1.912 -38.511  0.00  0.00     0.030 H 
ATOM    123  H79 LYS d   1      -0.464   3.191 -37.948  0.00  0.00     0.030 H 
ATOM    124  H80 LYS d   1       1.281   3.287 -37.534  0.00  0.00     0.030 H 
ENDBRANCH 114 121
ENDBRANCH 112 114
ENDBRANCH 108 110
BRANCH 108 125
ATOM    125  CB  ARG d   1       0.184   8.196 -40.440  0.00  0.00    -0.049 C 
ATOM    126  H73 ARG d   1      -0.759   7.633 -40.375  0.00  0.00     0.030 H 
ATOM    127  H74 ARG d   1       0.556   8.170 -41.475  0.00  0.00     0.030 H 
ATOM    128  H75 ARG d   1       0.010   9.240 -40.139  0.00  0.00     0.030 H 
ENDBRANCH 108 125
ENDBRANCH 106 108
ENDBRANCH 102 104
BRANCH 102 129
ATOM    129  CB  ALA d   1       5.799   8.049 -39.662  0.00  0.00    -0.049 C 
ATOM    130  H68 ALA d   1       5.420   7.767 -40.656  0.00  0.00     0.030 H 
ATOM    131  H69 ALA d   1       6.029   7.141 -39.086  0.00  0.00     0.030 H 
ATOM    132  H70 ALA d   1       6.712   8.653 -39.775  0.00  0.00     0.030 H 
ENDBRANCH 102 129
ENDBRANCH 100 102
ENDBRANCH  96  98
BRANCH  96 133
ATOM    133  CB  THR d   1       5.689  12.004 -35.495  0.00  0.00     0.060 C 
ATOM    134  H61 THR d   1       4.875  12.626 -35.896  0.00  0.00     0.086 H 
BRANCH 133 135
ATOM    135  OG1 THR d   1       6.865  12.198 -36.294  0.00  0.00    -0.393 OA
ATOM    136  H62 THR d   1       7.124  13.111 -36.258  0.00  0.00     0.210 HD
ENDBRANCH 133 135
BRANCH 133 137
ATOM    137  CG2 THR d   1       5.965  12.419 -34.058  0.00  0.00    -0.050 C 
ATOM    138  H63 THR d   1       6.266  13.477 -34.033  0.00  0.00     0.031 H 
ATOM    139  H64 THR d   1       6.774  11.797 -33.646  0.00  0.00     0.031 H 
ATOM    140  H65 THR d   1       5.055  12.283 -33.456  0.00  0.00     0.031 H 
ENDBRANCH 133 137
ENDBRANCH  96 133
ENDBRANCH  94  96
ENDBRANCH  90  92
BRANCH  90 141
ATOM    141  CB  GLN d   1       7.551   7.208 -32.725  0.00  0.00    -0.030 C 
ATOM    142  H53 GLN d   1       6.649   6.580 -32.677  0.00  0.00     0.037 H 
ATOM    143  H54 GLN d   1       7.492   7.994 -31.958  0.00  0.00     0.037 H 
BRANCH 141 144
ATOM    144  CG  GLN d   1       8.762   6.327 -32.413  0.00  0.00     0.011 C 
ATOM    145  H55 GLN d   1       8.626   5.885 -31.415  0.00  0.00     0.047 H 
ATOM    146  H56 GLN d   1       9.664   6.957 -32.415  0.00  0.00     0.047 H 
BRANCH 144 147
ATOM    147  CD  GLN d   1       8.955   5.204 -33.416  0.00  0.00     0.215 C 
ATOM    148  OE1 GLN d   1       8.015   4.507 -33.767  0.00  0.00    -0.274 OA
ATOM    149  NE2 GLN d   1      10.191   5.018 -33.868  0.00  0.00    -0.370 N 
ATOM    150  H57 GLN d   1      10.377   4.293 -34.531  0.00  0.00     0.159 HD
ATOM    151  H58 GLN d   1      10.935   5.604 -33.545  0.00  0.00     0.159 HD
ENDBRANCH 144 147
ENDBRANCH 141 144
ENDBRANCH  90 141
ENDBRANCH  88  90
ENDBRANCH   1  86
TORSDOF 45
