REMARK  10 active torsions:
REMARK  status: ('A' for Active; 'I' for Inactive)
REMARK    1  A    between atoms: AS_1  and  C1_2 
REMARK    2  A    between atoms: AS_1  and  C2_3 
REMARK    3  A    between atoms: AS_1  and  C3_4 
REMARK    4  A    between atoms: AS_1  and  C4_5 
REMARK    5  A    between atoms: C4_5  and  C5_6 
REMARK    6  A    between atoms: C5_6  and  O1_7 
REMARK    7  A    between atoms: O1_7  and  C6_8 
REMARK    8  A    between atoms: C6_8  and  C14_9 
REMARK    9  A    between atoms: C6_8  and  C7_10 
REMARK   10  A    between atoms: C8_11  and  N2_16 
ROOT
ATOM      1  O1  CFQ d   1      99.965  55.219  24.451  0.00  0.00    -0.372 OA
ENDROOT
BRANCH   1   2
ATOM      2  C5  CFQ d   1      99.263  56.483  24.537  0.00  0.00     0.021 C 
ATOM      3  H12 CFQ d   1      98.357  56.430  23.916  0.00  0.00     0.074 H 
ATOM      4  H13 CFQ d   1      98.980  56.663  25.584  0.00  0.00     0.074 H 
BRANCH   2   5
ATOM      5  C4  CFQ d   1     100.140  57.659  24.046  0.00  0.00    -0.043 C 
ATOM      6  H10 CFQ d   1      99.480  58.426  23.614  0.00  0.00     0.036 H 
ATOM      7  H11 CFQ d   1     100.672  58.079  24.912  0.00  0.00     0.036 H 
BRANCH   5   8
ATOM      8 AS   CFQ d   1     101.658  57.082  22.498  0.00  0.00     0.000 As
BRANCH   8   9
ATOM      9  C1  CFQ d   1     103.066  55.579  23.363  0.00  0.00    -0.080 C 
ATOM     10  H1  CFQ d   1     103.811  55.295  22.605  0.00  0.00     0.027 H 
ATOM     11  H2  CFQ d   1     102.503  54.687  23.676  0.00  0.00     0.027 H 
ATOM     12  H3  CFQ d   1     103.577  56.014  24.234  0.00  0.00     0.027 H 
ENDBRANCH   8   9
BRANCH   8  13
ATOM     13  C2  CFQ d   1     100.695  56.147  20.701  0.00  0.00    -0.080 C 
ATOM     14  H4  CFQ d   1      99.993  56.862  20.248  0.00  0.00     0.027 H 
ATOM     15  H5  CFQ d   1     100.150  55.241  21.006  0.00  0.00     0.027 H 
ATOM     16  H6  CFQ d   1     101.470  55.879  19.967  0.00  0.00     0.027 H 
ENDBRANCH   8  13
BRANCH   8  17
ATOM     17  C3  CFQ d   1     102.784  58.911  21.869  0.00  0.00    -0.080 C 
ATOM     18  H7  CFQ d   1     103.257  59.371  22.749  0.00  0.00     0.027 H 
ATOM     19  H8  CFQ d   1     102.089  59.629  21.409  0.00  0.00     0.027 H 
ATOM     20  H9  CFQ d   1     103.559  58.632  21.140  0.00  0.00     0.027 H 
ENDBRANCH   8  17
ENDBRANCH   5   8
ENDBRANCH   2   5
ENDBRANCH   1   2
BRANCH   1  21
ATOM     21  C6  CFQ d   1      99.351  54.091  25.094  0.00  0.00     0.159 C 
ATOM     22  H14 CFQ d   1      98.729  54.452  25.927  0.00  0.00     0.105 H 
BRANCH  21  23
ATOM     23  C14 CFQ d   1     100.435  53.185  25.723  0.00  0.00     0.417 C 
ATOM     24  F1  CFQ d   1      99.930  52.079  26.259  0.00  0.00    -0.168 F 
ATOM     25  F2  CFQ d   1     101.347  52.800  24.846  0.00  0.00    -0.168 F 
ATOM     26  F3  CFQ d   1     101.076  53.795  26.714  0.00  0.00    -0.168 F 
ENDBRANCH  21  23
BRANCH  21  27
ATOM     27  C7  CFQ d   1      98.370  53.465  24.017  0.00  0.00     0.012 A 
ATOM     28  C8  CFQ d   1      96.970  53.192  24.302  0.00  0.00     0.112 A 
ATOM     29  C9  CFQ d   1      96.165  52.643  23.271  0.00  0.00    -0.050 A 
ATOM     30  C10 CFQ d   1      96.693  52.366  22.014  0.00  0.00    -0.081 A 
ATOM     31  H15 CFQ d   1      95.119  52.435  23.466  0.00  0.00     0.087 H 
ATOM     32  C11 CFQ d   1      98.029  52.617  21.741  0.00  0.00    -0.082 A 
ATOM     33  H16 CFQ d   1      96.055  51.951  21.242  0.00  0.00     0.083 H 
ATOM     34  C12 CFQ d   1      98.864  53.159  22.726  0.00  0.00    -0.072 A 
ATOM     35  H17 CFQ d   1      98.430  52.392  20.759  0.00  0.00     0.083 H 
ATOM     36  H18 CFQ d   1      99.906  53.347  22.496  0.00  0.00     0.084 H 
BRANCH  28  37
ATOM     37  N2  CFQ d   1      96.253  53.441  25.618  0.00  0.00    -0.115 N 
ATOM     38  O2  CFQ d   1      95.070  53.194  25.762  0.00  0.00    -0.532 OA
ATOM     39  O3  CFQ d   1      96.819  53.907  26.595  0.00  0.00    -0.532 OA
ENDBRANCH  28  37
ENDBRANCH  21  27
ENDBRANCH   1  21
TORSDOF 10
