REMARK  4 active torsions:
REMARK  status: ('A' for Active; 'I' for Inactive)
REMARK    1  A    between atoms: C2_2  and  N1_1 
REMARK    2  A    between atoms: C6_5  and  C7_6 
REMARK    3  A    between atoms: C7_6  and  C8_7 
REMARK    4  A    between atoms: C8_7  and  C9_8 
ROOT
ATOM      1  C8  C8C d   1      71.395  50.869   7.053  0.00  0.00    -0.036 C 
ATOM      2  H6  C8C d   1      72.094  51.684   7.293  0.00  0.00     0.040 H 
ATOM      3  H7  C8C d   1      70.802  51.143   6.168  0.00  0.00     0.040 H 
ENDROOT
BRANCH   1   4
ATOM      4  C7  C8C d   1      70.449  50.696   8.223  0.00  0.00    -0.020 C 
ATOM      5  H4  C8C d   1      71.031  50.371   9.098  0.00  0.00     0.042 H 
ATOM      6  H5  C8C d   1      69.977  51.666   8.437  0.00  0.00     0.042 H 
BRANCH   4   7
ATOM      7  C6  C8C d   1      69.365  49.682   7.965  0.00  0.00     0.058 A 
ATOM      8  C5  C8C d   1      69.185  48.606   8.814  0.00  0.00    -0.006 A 
ATOM      9  C4  C8C d   1      68.170  47.709   8.535  0.00  0.00     0.195 A 
ATOM     10  H3  C8C d   1      69.828  48.468   9.682  0.00  0.00     0.093 H 
ATOM     11  N3  C8C d   1      67.378  47.866   7.468  0.00  0.00    -0.166 N 
ATOM     12  O5  C8C d   1      67.959  46.640   9.349  0.00  0.00    -0.172 OA
ATOM     13  C2  C8C d   1      67.618  48.938   6.693  0.00  0.00     0.700 A 
ATOM     14  H14 C8C d   1      66.645  47.219   7.258  0.00  0.00     0.186 HD
ATOM     15  N18 C8C d   1      68.578  49.870   6.895  0.00  0.00    -0.070 NA
BRANCH  13  16
ATOM     16  N1  C8C d   1      66.815  49.086   5.617  0.00  0.00    -0.233 N 
ATOM     17  H1  C8C d   1      66.946  49.887   4.983  0.00  0.00     0.174 HD
ATOM     18  H2  C8C d   1      66.071  48.398   5.431  0.00  0.00     0.174 HD
ENDBRANCH  13  16
ENDBRANCH   4   7
ENDBRANCH   1   4
BRANCH   1  19
ATOM     19  C9  C8C d   1      72.201  49.638   6.719  0.00  0.00    -0.056 A 
ATOM     20  C10 C8C d   1      73.170  49.170   7.601  0.00  0.00    -0.076 A 
ATOM     21  C11 C8C d   1      73.939  48.061   7.297  0.00  0.00    -0.070 A 
ATOM     22  H8  C8C d   1      73.325  49.684   8.543  0.00  0.00     0.084 H 
ATOM     23  C12 C8C d   1      73.753  47.427   6.076  0.00  0.00    -0.008 A 
ATOM     24  H9  C8C d   1      74.676  47.693   8.002  0.00  0.00     0.084 H 
ATOM     25  C13 C8C d   1      74.340  46.310   5.460  0.00  0.00    -0.056 A 
ATOM     26  C16 C8C d   1      72.803  47.903   5.182  0.00  0.00     0.042 A 
ATOM     27  C14 C8C d   1      73.731  46.138   4.219  0.00  0.00    -0.022 A 
ATOM     28  H10 C8C d   1      75.131  45.689   5.878  0.00  0.00     0.086 H 
ATOM     29  N15 C8C d   1      72.811  47.101   4.062  0.00  0.00    -0.365 N 
ATOM     30  H11 C8C d   1      73.963  45.355   3.499  0.00  0.00     0.111 H 
ATOM     31  H12 C8C d   1      72.207  47.222   3.236  0.00  0.00     0.165 HD
ATOM     32  C17 C8C d   1      72.026  49.009   5.491  0.00  0.00    -0.050 A 
ATOM     33  H13 C8C d   1      71.292  49.379   4.785  0.00  0.00     0.087 H 
ENDBRANCH   1  19
TORSDOF 4
