REMARK  7 active torsions:
REMARK  status: ('A' for Active; 'I' for Inactive)
REMARK    1  A    between atoms: C1_1  and  O2_2 
REMARK    2  A    between atoms: O2_2  and  C3_3 
REMARK    3  A    between atoms: C7_7  and  C9_9 
REMARK    4  A    between atoms: C13_13  and  C14_14 
REMARK    5  A    between atoms: C14_14  and  C15_15 
REMARK    6  A    between atoms: N21_19  and  C22_20 
REMARK    7  A    between atoms: C23_21  and  N24_22 
ROOT
ATOM      1  C9  H24 d   1      71.747  48.641   6.704  0.00  0.00    -0.025 A 
ATOM      2  C10 H24 d   1      72.688  49.100   7.614  0.00  0.00    -0.072 A 
ATOM      3  C11 H24 d   1      72.298  49.825   8.716  0.00  0.00    -0.082 A 
ATOM      4  C12 H24 d   1      70.965  50.073   8.946  0.00  0.00    -0.074 A 
ATOM      5  C13 H24 d   1      69.997  49.618   8.063  0.00  0.00    -0.029 A 
ATOM      6  C26 H24 d   1      70.397  48.889   6.949  0.00  0.00    -0.064 A 
ATOM      7  H8  H24 d   1      73.739  48.886   7.455  0.00  0.00     0.084 H 
ATOM      8  H9  H24 d   1      73.044  50.202   9.406  0.00  0.00     0.083 H 
ATOM      9  H10 H24 d   1      70.668  50.630   9.827  0.00  0.00     0.084 H 
ATOM     10  H22 H24 d   1      69.650  48.508   6.262  0.00  0.00     0.085 H 
ENDROOT
BRANCH   5  11
ATOM     11  C14 H24 d   1      68.526  49.924   8.388  0.00  0.00     0.079 C 
ATOM     12  C18 H24 d   1      68.083  49.093   9.598  0.00  0.00     0.038 C 
ATOM     13  C19 H24 d   1      67.707  47.688   9.236  0.00  0.00     0.240 C 
ATOM     14  H14 H24 d   1      67.212  49.581  10.059  0.00  0.00     0.051 H 
ATOM     15  H15 H24 d   1      68.910  49.059  10.322  0.00  0.00     0.051 H 
ATOM     16  O20 H24 d   1      68.103  46.732   9.879  0.00  0.00    -0.272 OA
ATOM     17  N21 H24 d   1      66.955  47.551   8.118  0.00  0.00    -0.156 N 
ATOM     18  C23 H24 d   1      66.832  48.643   7.204  0.00  0.00     0.677 C 
ATOM     19  N25 H24 d   1      67.647  49.674   7.217  0.00  0.00    -0.213 N 
ATOM     20  H21 H24 d   1      67.676  50.313   6.410  0.00  0.00     0.179 HD
BRANCH  11  21
ATOM     21  C15 H24 d   1      68.364  51.404   8.751  0.00  0.00    -0.048 C 
ATOM     22  H11 H24 d   1      67.309  51.612   8.982  0.00  0.00     0.031 H 
ATOM     23  H12 H24 d   1      68.683  52.027   7.902  0.00  0.00     0.031 H 
ATOM     24  H13 H24 d   1      68.984  51.636   9.630  0.00  0.00     0.031 H 
ENDBRANCH  11  21
BRANCH  17  25
ATOM     25  C22 H24 d   1      66.406  46.220   7.817  0.00  0.00     0.005 C 
ATOM     26  H16 H24 d   1      66.615  45.539   8.655  0.00  0.00     0.058 H 
ATOM     27  H17 H24 d   1      66.874  45.829   6.901  0.00  0.00     0.058 H 
ATOM     28  H18 H24 d   1      65.319  46.297   7.669  0.00  0.00     0.058 H 
ENDBRANCH  17  25
BRANCH  18  29
ATOM     29  N24 H24 d   1      65.873  48.629   6.274  0.00  0.00    -0.234 N 
ATOM     30  H19 H24 d   1      65.783  49.415   5.615  0.00  0.00     0.174 HD
ATOM     31  H20 H24 d   1      65.223  47.832   6.216  0.00  0.00     0.174 HD
ENDBRANCH  18  29
ENDBRANCH   5  11
BRANCH   1  32
ATOM     32  C7  H24 d   1      72.182  47.810   5.545  0.00  0.00    -0.023 A 
ATOM     33  C6  H24 d   1      73.224  46.895   5.695  0.00  0.00    -0.072 A 
ATOM     34  C5  H24 d   1      73.611  46.087   4.644  0.00  0.00    -0.080 A 
ATOM     35  H6  H24 d   1      73.736  46.817   6.647  0.00  0.00     0.084 H 
ATOM     36  C4  H24 d   1      72.954  46.164   3.437  0.00  0.00    -0.051 A 
ATOM     37  H5  H24 d   1      74.433  45.392   4.770  0.00  0.00     0.083 H 
ATOM     38  C3  H24 d   1      71.916  47.071   3.259  0.00  0.00     0.069 A 
ATOM     39  H4  H24 d   1      73.248  45.514   2.621  0.00  0.00     0.087 H 
ATOM     40  C8  H24 d   1      71.520  47.875   4.322  0.00  0.00    -0.040 A 
ATOM     41  H7  H24 d   1      70.688  48.559   4.197  0.00  0.00     0.089 H 
BRANCH  38  42
ATOM     42  O2  H24 d   1      71.202  47.196   2.094  0.00  0.00    -0.356 OA
BRANCH  42  43
ATOM     43  C1  H24 d   1      71.395  46.195   1.077  0.00  0.00     0.010 C 
ATOM     44  H1  H24 d   1      70.761  46.427   0.209  0.00  0.00     0.066 H 
ATOM     45  H2  H24 d   1      71.121  45.208   1.478  0.00  0.00     0.066 H 
ATOM     46  H3  H24 d   1      72.451  46.185   0.768  0.00  0.00     0.066 H 
ENDBRANCH  42  43
ENDBRANCH  38  42
ENDBRANCH   1  32
TORSDOF 7
