REMARK  9 active torsions:
REMARK  status: ('A' for Active; 'I' for Inactive)
REMARK    1  A    between atoms: C1_1  and  O2_2 
REMARK    2  A    between atoms: O2_2  and  C3_3 
REMARK    3  A    between atoms: C7_7  and  C9_9 
REMARK    4  A    between atoms: C13_13  and  C14_14 
REMARK    5  A    between atoms: C14_14  and  C15_15 
REMARK    6  A    between atoms: C15_15  and  C16_16 
REMARK    7  A    between atoms: C16_16  and  C17_17 
REMARK    8  A    between atoms: N21_21  and  C22_22 
REMARK    9  A    between atoms: C23_23  and  N25_25 
ROOT
ATOM      1  C14 C27 d   1      69.780  50.191   7.979  0.00  0.00    -0.039 C 
ATOM      2  H11 C27 d   1      69.218  50.319   7.043  0.00  0.00     0.040 H 
ATOM      3  H12 C27 d   1      70.004  51.178   8.411  0.00  0.00     0.040 H 
ENDROOT
BRANCH   1   4
ATOM      4  C13 C27 d   1      71.080  49.494   7.669  0.00  0.00    -0.057 A 
ATOM      5  C12 C27 d   1      72.213  49.729   8.441  0.00  0.00    -0.077 A 
ATOM      6  C11 C27 d   1      73.401  49.094   8.150  0.00  0.00    -0.082 A 
ATOM      7  H10 C27 d   1      72.161  50.416   9.277  0.00  0.00     0.084 H 
ATOM      8  C10 C27 d   1      73.487  48.241   7.066  0.00  0.00    -0.072 A 
ATOM      9  H9  C27 d   1      74.271  49.264   8.774  0.00  0.00     0.083 H 
ATOM     10  C9  C27 d   1      72.368  47.990   6.273  0.00  0.00    -0.025 A 
ATOM     11  H8  C27 d   1      74.431  47.764   6.831  0.00  0.00     0.084 H 
ATOM     12  C26 C27 d   1      71.171  48.621   6.593  0.00  0.00    -0.066 A 
ATOM     13  H26 C27 d   1      70.291  48.428   5.990  0.00  0.00     0.085 H 
BRANCH  10  14
ATOM     14  C7  C27 d   1      72.445  47.047   5.119  0.00  0.00    -0.023 A 
ATOM     15  C6  C27 d   1      73.304  45.950   5.148  0.00  0.00    -0.072 A 
ATOM     16  C5  C27 d   1      73.380  45.089   4.074  0.00  0.00    -0.080 A 
ATOM     17  H6  C27 d   1      73.918  45.772   6.023  0.00  0.00     0.084 H 
ATOM     18  C4  C27 d   1      72.603  45.304   2.960  0.00  0.00    -0.051 A 
ATOM     19  H5  C27 d   1      74.054  44.240   4.108  0.00  0.00     0.083 H 
ATOM     20  C3  C27 d   1      71.743  46.393   2.903  0.00  0.00     0.069 A 
ATOM     21  H4  C27 d   1      72.662  44.620   2.122  0.00  0.00     0.087 H 
ATOM     22  C8  C27 d   1      71.673  47.255   3.980  0.00  0.00    -0.040 A 
ATOM     23  H7  C27 d   1      71.005  48.108   3.937  0.00  0.00     0.089 H 
BRANCH  20  24
ATOM     24  O2  C27 d   1      70.866  46.850   1.953  0.00  0.00    -0.356 OA
BRANCH  24  25
ATOM     25  C1  C27 d   1      70.757  46.114   0.728  0.00  0.00     0.010 C 
ATOM     26  H1  C27 d   1      70.020  46.600   0.072  0.00  0.00     0.066 H 
ATOM     27  H2  C27 d   1      70.432  45.086   0.946  0.00  0.00     0.066 H 
ATOM     28  H3  C27 d   1      71.735  46.091   0.226  0.00  0.00     0.066 H 
ENDBRANCH  24  25
ENDBRANCH  20  24
ENDBRANCH  10  14
ENDBRANCH   1   4
BRANCH   1  29
ATOM     29  C15 C27 d   1      68.920  49.417   8.959  0.00  0.00    -0.037 C 
ATOM     30  H13 C27 d   1      69.404  49.468   9.946  0.00  0.00     0.037 H 
ATOM     31  H14 C27 d   1      68.883  48.370   8.622  0.00  0.00     0.037 H 
BRANCH  29  32
ATOM     32  C16 C27 d   1      67.455  49.919   9.119  0.00  0.00     0.052 C 
ATOM     33  C18 C27 d   1      66.762  49.059  10.180  0.00  0.00     0.034 C 
ATOM     34  C19 C27 d   1      66.534  47.654   9.711  0.00  0.00     0.240 C 
ATOM     35  H18 C27 d   1      65.790  49.513  10.424  0.00  0.00     0.051 H 
ATOM     36  H19 C27 d   1      67.392  49.033  11.082  0.00  0.00     0.051 H 
ATOM     37  O20 C27 d   1      66.557  46.711  10.476  0.00  0.00    -0.272 OA
ATOM     38  N21 C27 d   1      66.273  47.499   8.375  0.00  0.00    -0.156 N 
ATOM     39  C23 C27 d   1      66.172  48.627   7.527  0.00  0.00     0.676 C 
ATOM     40  N24 C27 d   1      66.721  49.783   7.831  0.00  0.00    -0.217 N 
ATOM     41  H23 C27 d   1      66.644  50.583   7.187  0.00  0.00     0.178 HD
BRANCH  32  42
ATOM     42  C17 C27 d   1      67.433  51.400   9.528  0.00  0.00    -0.052 C 
ATOM     43  H15 C27 d   1      66.391  51.735   9.636  0.00  0.00     0.030 H 
ATOM     44  H16 C27 d   1      67.933  52.001   8.755  0.00  0.00     0.030 H 
ATOM     45  H17 C27 d   1      67.959  51.524  10.486  0.00  0.00     0.030 H 
ENDBRANCH  32  42
BRANCH  38  46
ATOM     46  C22 C27 d   1      66.158  46.134   7.841  0.00  0.00     0.005 C 
ATOM     47  H20 C27 d   1      66.265  45.409   8.662  0.00  0.00     0.058 H 
ATOM     48  H21 C27 d   1      66.949  45.964   7.096  0.00  0.00     0.058 H 
ATOM     49  H22 C27 d   1      65.174  46.008   7.366  0.00  0.00     0.058 H 
ENDBRANCH  38  46
BRANCH  39  50
ATOM     50  N25 C27 d   1      65.555  48.487   6.354  0.00  0.00    -0.234 N 
ATOM     51  H24 C27 d   1      65.121  47.587   6.104  0.00  0.00     0.174 HD
ATOM     52  H25 C27 d   1      65.512  49.279   5.697  0.00  0.00     0.174 HD
ENDBRANCH  39  50
ENDBRANCH  29  32
ENDBRANCH   1  29
TORSDOF 9
