REMARK  9 active torsions:
REMARK  status: ('A' for Active; 'I' for Inactive)
REMARK    1  A    between atoms: CAH_1  and  CAG_2 
REMARK       I    between atoms: CAG_2  and  NAI_4 
REMARK    2  A    between atoms: NAI_4  and  CAB_5 
REMARK    3  A    between atoms: CAC_6  and  OAJ_7 
REMARK    4  A    between atoms: CAD_8  and  OAK_9 
REMARK    5  A    between atoms: CAE_10  and  CAF_11 
REMARK    6  A    between atoms: CAF_11  and  OAM_12 
REMARK    7  A    between atoms: NAY_15  and  OAQ_16 
REMARK    8  A    between atoms: OAQ_16  and  CAP_17 
REMARK       I    between atoms: CAP_17  and  NAO_19 
REMARK    9  A    between atoms: NAO_19  and  CAS_20 
ROOT
ATOM      1  CAB OAN d   1      12.356 -13.850  -8.566  0.00  0.00     0.105 C 
ATOM      2  CAC OAN d   1      13.436 -14.547  -9.382  0.00  0.00     0.089 C 
ATOM      3  CAD OAN d   1      13.683 -15.941  -8.783  0.00  0.00     0.090 C 
ATOM      4  CAE OAN d   1      12.406 -16.793  -8.779  0.00  0.00     0.094 C 
ATOM      5  OAL OAN d   1      11.252 -16.091  -8.246  0.00  0.00    -0.324 OA
ATOM      6  CAA OAN d   1      11.123 -14.775  -8.607  0.00  0.00     0.194 C 
ATOM      7  NAY OAN d   1       9.916 -14.373  -8.956  0.00  0.00    -0.100 NA
ATOM      8  H5  OAN d   1      12.694 -13.781  -7.522  0.00  0.00     0.090 H 
ATOM      9  H6  OAN d   1      13.098 -14.653 -10.424  0.00  0.00     0.090 H 
ATOM     10  H8  OAN d   1      14.024 -15.815  -7.745  0.00  0.00     0.091 H 
ATOM     11  H10 OAN d   1      12.189 -17.105  -9.811  0.00  0.00     0.091 H 
ENDROOT
BRANCH   1  12
ATOM     12  NAI OAN d   1      12.117 -12.463  -9.034  0.00  0.00    -0.347 N 
ATOM     13  CAG OAN d   1      12.683 -11.398  -8.427  0.00  0.00     0.214 C 
ATOM     14  OAN OAN d   1      13.436 -11.447  -7.447  0.00  0.00    -0.274 OA
ATOM     15  H4  OAN d   1      11.520 -12.312  -9.822  0.00  0.00     0.163 HD
BRANCH  13  16
ATOM     16  CAH OAN d   1      12.337 -10.042  -9.034  0.00  0.00    -0.003 C 
ATOM     17  H1  OAN d   1      11.662 -10.185  -9.891  0.00  0.00     0.040 H 
ATOM     18  H2  OAN d   1      13.259  -9.546  -9.372  0.00  0.00     0.040 H 
ATOM     19  H3  OAN d   1      11.841  -9.417  -8.277  0.00  0.00     0.040 H 
ENDBRANCH  13  16
ENDBRANCH   1  12
BRANCH   7  20
ATOM     20  OAQ OAN d   1       8.958 -15.336  -8.925  0.00  0.00    -0.153 OA
BRANCH  20  21
ATOM     21  CAP OAN d   1       7.726 -14.791  -8.822  0.00  0.00     0.389 C 
ATOM     22  OAR OAN d   1       7.285 -14.372  -7.750  0.00  0.00    -0.236 OA
ATOM     23  NAO OAN d   1       7.025 -14.744  -9.952  0.00  0.00    -0.301 N 
ATOM     24  H14 OAN d   1       6.064 -14.881  -9.711  0.00  0.00     0.171 HD
BRANCH  23  25
ATOM     25  CAS OAN d   1       7.068 -14.629 -10.931  0.00  0.00     0.036 A 
ATOM     26  CAT OAN d   1       8.080 -15.394 -11.497  0.00  0.00    -0.057 A 
ATOM     27  CAU OAN d   1       8.165 -15.508 -12.885  0.00  0.00    -0.081 A 
ATOM     28  H15 OAN d   1       8.800 -15.900 -10.864  0.00  0.00     0.086 H 
ATOM     29  CAV OAN d   1       7.251 -14.863 -13.717  0.00  0.00    -0.083 A 
ATOM     30  H16 OAN d   1       8.954 -16.108 -13.323  0.00  0.00     0.083 H 
ATOM     31  CAW OAN d   1       6.237 -14.090 -13.172  0.00  0.00    -0.081 A 
ATOM     32  H17 OAN d   1       7.333 -14.966 -14.793  0.00  0.00     0.083 H 
ATOM     33  CAX OAN d   1       6.156 -13.978 -11.782  0.00  0.00    -0.057 A 
ATOM     34  H18 OAN d   1       5.523 -13.584 -13.811  0.00  0.00     0.083 H 
ATOM     35  H19 OAN d   1       5.369 -13.373 -11.347  0.00  0.00     0.086 H 
ENDBRANCH  23  25
ENDBRANCH  20  21
ENDBRANCH   7  20
BRANCH   2  36
ATOM     36  OAJ OAN d   1      14.636 -13.771  -9.355  0.00  0.00    -0.390 OA
ATOM     37  H7  OAN d   1      15.307 -14.209  -9.865  0.00  0.00     0.210 HD
ENDBRANCH   2  36
BRANCH   4  38
ATOM     38  CAF OAN d   1      12.633 -18.032  -7.898  0.00  0.00     0.044 C 
ATOM     39  H11 OAN d   1      13.642 -18.429  -8.081  0.00  0.00     0.078 H 
ATOM     40  H12 OAN d   1      11.886 -18.799  -8.149  0.00  0.00     0.078 H 
BRANCH  38  41
ATOM     41  OAM OAN d   1      12.505 -17.680  -6.513  0.00  0.00    -0.398 OA
ATOM     42  H13 OAN d   1      11.633 -17.338  -6.354  0.00  0.00     0.209 HD
ENDBRANCH  38  41
ENDBRANCH   4  38
BRANCH   3  43
ATOM     43  OAK OAN d   1      14.685 -16.627  -9.514  0.00  0.00    -0.390 OA
ATOM     44  H9  OAN d   1      14.406 -16.724 -10.417  0.00  0.00     0.210 HD
ENDBRANCH   3  43
TORSDOF 9
