REMARK  14 active torsions:
REMARK  status: ('A' for Active; 'I' for Inactive)
REMARK    1  A    between atoms: CG_7  and  CB_8 
REMARK    2  A    between atoms: CB_8  and  CA_9 
REMARK    3  A    between atoms: CA_9  and  C_10 
REMARK    4  A    between atoms: CA_9  and  N_14 
REMARK    5  A    between atoms: C_10  and  OAT_12 
REMARK    6  A    between atoms: OAT_12  and  CAA_13 
REMARK       I    between atoms: N_14  and  CAV_15 
REMARK    7  A    between atoms: CAV_15  and  CAP_17 
REMARK    8  A    between atoms: CAP_17  and  CAN_18 
REMARK    9  A    between atoms: CAN_18  and  CAL_19 
REMARK   10  A    between atoms: CAL_19  and  CAK_20 
REMARK   11  A    between atoms: CAK_20  and  CAM_21 
REMARK   12  A    between atoms: CAM_21  and  CAO_22 
REMARK   13  A    between atoms: CAO_22  and  CAU_23 
REMARK       I    between atoms: CAU_23  and  NAR_25 
REMARK   14  A    between atoms: NAR_25  and  OAE_26 
ROOT
ATOM      1  N   S17 d   1      -5.424  -7.962  34.941  0.00  0.00    -0.347 N 
ATOM      2  CAV S17 d   1      -5.939  -9.058  35.527  0.00  0.00     0.218 C 
ATOM      3  OAC S17 d   1      -6.804  -9.790  35.044  0.00  0.00    -0.274 OA
ATOM      4  H11 S17 d   1      -4.737  -7.449  35.455  0.00  0.00     0.163 HD
ENDROOT
BRANCH   2   5
ATOM      5  CAP S17 d   1      -5.371  -9.364  36.918  0.00  0.00     0.009 C 
ATOM      6  H12 S17 d   1      -6.083  -9.001  37.674  0.00  0.00     0.047 H 
ATOM      7  H13 S17 d   1      -4.415  -8.832  37.030  0.00  0.00     0.047 H 
BRANCH   5   8
ATOM      8  CAN S17 d   1      -5.127 -10.856  37.157  0.00  0.00    -0.057 C 
ATOM      9  H14 S17 d   1      -5.145 -11.384  36.192  0.00  0.00     0.033 H 
ATOM     10  H15 S17 d   1      -5.921 -11.252  37.807  0.00  0.00     0.033 H 
BRANCH   8  11
ATOM     11  CAL S17 d   1      -3.769 -11.082  37.828  0.00  0.00    -0.065 C 
ATOM     12  H16 S17 d   1      -3.057 -10.341  37.435  0.00  0.00     0.033 H 
ATOM     13  H17 S17 d   1      -3.420 -12.095  37.578  0.00  0.00     0.033 H 
BRANCH  11  14
ATOM     14  CAK S17 d   1      -3.820 -10.946  39.357  0.00  0.00    -0.065 C 
ATOM     15  H18 S17 d   1      -4.497 -10.117  39.612  0.00  0.00     0.033 H 
ATOM     16  H19 S17 d   1      -2.808 -10.718  39.722  0.00  0.00     0.033 H 
BRANCH  14  17
ATOM     17  CAM S17 d   1      -4.317 -12.216  40.061  0.00  0.00    -0.057 C 
ATOM     18  H20 S17 d   1      -5.216 -12.582  39.543  0.00  0.00     0.033 H 
ATOM     19  H21 S17 d   1      -4.569 -11.970  41.103  0.00  0.00     0.033 H 
BRANCH  17  20
ATOM     20  CAO S17 d   1      -3.263 -13.313  40.054  0.00  0.00     0.011 C 
ATOM     21  H22 S17 d   1      -2.318 -12.884  39.690  0.00  0.00     0.047 H 
ATOM     22  H23 S17 d   1      -3.594 -14.107  39.369  0.00  0.00     0.047 H 
BRANCH  20  23
ATOM     23  CAU S17 d   1      -3.011 -13.938  41.436  0.00  0.00     0.240 C 
ATOM     24  OAB S17 d   1      -1.899 -14.329  41.750  0.00  0.00    -0.271 OA
ATOM     25  NAR S17 d   1      -4.046 -14.024  42.247  0.00  0.00    -0.237 N 
ATOM     26  H24 S17 d   1      -4.946 -13.692  41.963  0.00  0.00     0.197 HD
BRANCH  25  27
ATOM     27  OAE S17 d   1      -3.869 -14.564  43.457  0.00  0.00    -0.287 OA
ATOM     28  H25 S17 d   1      -4.694 -14.560  43.928  0.00  0.00     0.244 HD
ENDBRANCH  25  27
ENDBRANCH  20  23
ENDBRANCH  17  20
ENDBRANCH  14  17
ENDBRANCH  11  14
ENDBRANCH   8  11
ENDBRANCH   5   8
ENDBRANCH   2   5
BRANCH   1  29
ATOM     29  CA  S17 d   1      -5.790  -7.449  33.593  0.00  0.00     0.100 C 
ATOM     30  H7  S17 d   1      -5.622  -8.270  32.880  0.00  0.00     0.088 H 
BRANCH  29  31
ATOM     31  CB  S17 d   1      -7.281  -7.061  33.494  0.00  0.00    -0.013 C 
ATOM     32  H5  S17 d   1      -7.454  -6.641  32.492  0.00  0.00     0.043 H 
ATOM     33  H6  S17 d   1      -7.877  -7.978  33.615  0.00  0.00     0.043 H 
BRANCH  31  34
ATOM     34  CG  S17 d   1      -7.775  -6.044  34.519  0.00  0.00    -0.056 A 
ATOM     35  CD1 S17 d   1      -7.920  -4.719  34.118  0.00  0.00    -0.075 A 
ATOM     36  CE1 S17 d   1      -8.387  -3.772  35.020  0.00  0.00    -0.066 A 
ATOM     37  H1  S17 d   1      -7.669  -4.427  33.105  0.00  0.00     0.084 H 
ATOM     38  CZ  S17 d   1      -8.708  -4.152  36.322  0.00  0.00     0.011 A 
ATOM     39  H2  S17 d   1      -8.502  -2.739  34.712  0.00  0.00     0.085 H 
ATOM     40 BR1  S17 d   1      -9.336  -2.837  37.529  0.00  0.00    -0.051 Br
ATOM     41  CE2 S17 d   1      -8.575  -5.482  36.728  0.00  0.00    -0.066 A 
ATOM     42  CD2 S17 d   1      -8.113  -6.433  35.820  0.00  0.00    -0.075 A 
ATOM     43  H3  S17 d   1      -8.829  -5.772  37.741  0.00  0.00     0.085 H 
ATOM     44  H4  S17 d   1      -8.016  -7.470  36.120  0.00  0.00     0.084 H 
ENDBRANCH  31  34
ENDBRANCH  29  31
BRANCH  29  45
ATOM     45  C   S17 d   1      -4.875  -6.276  33.167  0.00  0.00     0.281 C 
ATOM     46  O   S17 d   1      -3.793  -6.094  33.724  0.00  0.00    -0.263 OA
BRANCH  45  47
ATOM     47  OAT S17 d   1      -5.251  -5.433  32.156  0.00  0.00    -0.325 OA
BRANCH  47  48
ATOM     48  CAA S17 d   1      -4.174  -5.119  31.253  0.00  0.00     0.013 C 
ATOM     49  H8  S17 d   1      -4.540  -4.441  30.468  0.00  0.00     0.067 H 
ATOM     50  H9  S17 d   1      -3.800  -6.045  30.793  0.00  0.00     0.067 H 
ATOM     51  H10 S17 d   1      -3.360  -4.631  31.809  0.00  0.00     0.067 H 
ENDBRANCH  47  48
ENDBRANCH  45  47
ENDBRANCH  29  45
ENDBRANCH   1  29
TORSDOF 14
