REMARK  12 active torsions:
REMARK  status: ('A' for Active; 'I' for Inactive)
REMARK    1  A    between atoms: N24_6  and  C23_7 
REMARK    2  A    between atoms: C23_7  and  C20_8 
REMARK    3  A    between atoms: C7_13  and  C3_14 
REMARK    4  A    between atoms: C2_15  and  C8_16 
REMARK       I    between atoms: C8_16  and  N10_18 
REMARK    5  A    between atoms: N10_18  and  C11_19 
REMARK    6  A    between atoms: C11_19  and  C12_20 
REMARK    7  A    between atoms: C4_23  and  C6_24 
REMARK    8  A    between atoms: C14_26  and  C30_27 
REMARK    9  A    between atoms: C30_27  and  C32_28 
REMARK   10  A    between atoms: C30_27  and  C31_29 
REMARK   11  A    between atoms: C15_30  and  O34_31 
REMARK   12  A    between atoms: C17_33  and  O33_34 
ROOT
ATOM      1  C3  2GJ d   1      31.192   8.761  26.474  0.00  0.00     0.048 A 
ATOM      2  C2  2GJ d   1      30.816   8.359  27.739  0.00  0.00     0.165 A 
ATOM      3  N1  2GJ d   1      29.822   9.160  28.159  0.00  0.00    -0.121 NA
ATOM      4  O5  2GJ d   1      29.523  10.156  27.150  0.00  0.00    -0.211 OA
ATOM      5  C4  2GJ d   1      30.381   9.876  26.129  0.00  0.00     0.128 A 
ENDROOT
BRANCH   1   6
ATOM      6  C7  2GJ d   1      32.188   8.203  25.638  0.00  0.00    -0.021 A 
ATOM      7  C22 2GJ d   1      31.772   7.555  24.455  0.00  0.00    -0.071 A 
ATOM      8  C21 2GJ d   1      32.733   7.052  23.582  0.00  0.00    -0.074 A 
ATOM      9  H13 2GJ d   1      30.717   7.450  24.229  0.00  0.00     0.084 H 
ATOM     10  C20 2GJ d   1      34.097   7.199  23.899  0.00  0.00    -0.033 A 
ATOM     11  H12 2GJ d   1      32.434   6.552  22.668  0.00  0.00     0.084 H 
ATOM     12  C19 2GJ d   1      34.516   7.838  25.077  0.00  0.00    -0.074 A 
ATOM     13  C18 2GJ d   1      33.558   8.341  25.953  0.00  0.00    -0.071 A 
ATOM     14  H14 2GJ d   1      35.572   7.938  25.301  0.00  0.00     0.084 H 
ATOM     15  H15 2GJ d   1      33.861   8.835  26.869  0.00  0.00     0.084 H 
BRANCH  10  16
ATOM     16  C23 2GJ d   1      35.146   6.638  22.949  0.00  0.00     0.107 C 
ATOM     17  H10 2GJ d   1      35.079   7.173  21.990  0.00  0.00     0.083 H 
ATOM     18  H11 2GJ d   1      36.142   6.795  23.388  0.00  0.00     0.083 H 
BRANCH  16  19
ATOM     19  N24 2GJ d   1      34.957   5.202  22.705  0.00  0.00    -0.063 N 
ATOM     20  C25 2GJ d   1      35.487   4.996  21.324  0.00  0.00     0.103 C 
ATOM     21  C26 2GJ d   1      35.986   3.560  21.079  0.00  0.00     0.042 C 
ATOM     22  H1  2GJ d   1      34.685   5.216  20.604  0.00  0.00     0.079 H 
ATOM     23  H2  2GJ d   1      36.325   5.691  21.163  0.00  0.00     0.079 H 
ATOM     24  O27 2GJ d   1      36.871   3.202  22.175  0.00  0.00    -0.388 OA
ATOM     25  H3  2GJ d   1      36.533   3.512  20.126  0.00  0.00     0.076 H 
ATOM     26  H4  2GJ d   1      35.132   2.868  21.047  0.00  0.00     0.076 H 
ATOM     27  C28 2GJ d   1      36.189   3.150  23.472  0.00  0.00     0.042 C 
ATOM     28  C29 2GJ d   1      35.659   4.542  23.842  0.00  0.00     0.103 C 
ATOM     29  H5  2GJ d   1      36.898   2.813  24.243  0.00  0.00     0.076 H 
ATOM     30  H6  2GJ d   1      35.348   2.444  23.413  0.00  0.00     0.076 H 
ATOM     31  H7  2GJ d   1      36.506   5.173  24.148  0.00  0.00     0.079 H 
ATOM     32  H8  2GJ d   1      34.955   4.441  24.681  0.00  0.00     0.079 H 
ATOM     33  H9  2GJ d   1      33.984   4.941  22.725  0.00  0.00     0.280 HD
ENDBRANCH  16  19
ENDBRANCH  10  16
ENDBRANCH   1   6
BRANCH   2  34
ATOM     34  C8  2GJ d   1      31.467   7.214  28.518  0.00  0.00     0.273 C 
ATOM     35  O9  2GJ d   1      32.085   6.347  27.892  0.00  0.00    -0.266 OA
ATOM     36  N10 2GJ d   1      31.318   7.332  29.873  0.00  0.00    -0.356 N 
ATOM     37  H16 2GJ d   1      30.803   8.133  30.177  0.00  0.00     0.162 HD
BRANCH  36  38
ATOM     38  C11 2GJ d   1      31.807   6.448  30.956  0.00  0.00    -0.008 C 
ATOM     39  H17 2GJ d   1      31.001   5.758  31.249  0.00  0.00     0.063 H 
ATOM     40  H18 2GJ d   1      32.095   7.064  31.821  0.00  0.00     0.063 H 
BRANCH  38  41
ATOM     41  C12 2GJ d   1      33.017   5.636  30.497  0.00  0.00    -0.061 C 
ATOM     42  H19 2GJ d   1      33.358   4.990  31.319  0.00  0.00     0.029 H 
ATOM     43  H20 2GJ d   1      33.828   6.319  30.207  0.00  0.00     0.029 H 
ATOM     44  H21 2GJ d   1      32.735   5.014  29.635  0.00  0.00     0.029 H 
ENDBRANCH  38  41
ENDBRANCH  36  38
ENDBRANCH   2  34
BRANCH   5  45
ATOM     45  C6  2GJ d   1      30.447  10.553  24.909  0.00  0.00     0.035 A 
ATOM     46  C13 2GJ d   1      31.725  10.864  24.510  0.00  0.00    -0.058 A 
ATOM     47  C14 2GJ d   1      31.969  11.515  23.322  0.00  0.00    -0.021 A 
ATOM     48  H22 2GJ d   1      32.560  10.590  25.145  0.00  0.00     0.086 H 
ATOM     49  C15 2GJ d   1      30.898  11.895  22.519  0.00  0.00     0.075 A 
ATOM     50  C16 2GJ d   1      29.595  11.577  22.921  0.00  0.00    -0.018 A 
ATOM     51  C17 2GJ d   1      29.347  10.902  24.102  0.00  0.00     0.081 A 
ATOM     52  H31 2GJ d   1      28.761  11.867  22.292  0.00  0.00     0.092 H 
BRANCH  47  53
ATOM     53  C30 2GJ d   1      33.381  11.907  22.972  0.00  0.00    -0.033 C 
ATOM     54  H23 2GJ d   1      33.504  12.012  21.884  0.00  0.00     0.046 H 
BRANCH  53  55
ATOM     55  C32 2GJ d   1      33.437  13.273  23.687  0.00  0.00    -0.069 C 
ATOM     56  H24 2GJ d   1      34.428  13.725  23.537  0.00  0.00     0.028 H 
ATOM     57  H25 2GJ d   1      33.258  13.131  24.763  0.00  0.00     0.028 H 
ATOM     58  H26 2GJ d   1      32.665  13.937  23.271  0.00  0.00     0.028 H 
ENDBRANCH  53  55
BRANCH  53  59
ATOM     59  C31 2GJ d   1      34.461  10.945  23.498  0.00  0.00    -0.069 C 
ATOM     60  H27 2GJ d   1      34.388   9.986  22.965  0.00  0.00     0.028 H 
ATOM     61  H28 2GJ d   1      34.311  10.779  24.575  0.00  0.00     0.028 H 
ATOM     62  H29 2GJ d   1      35.456  11.383  23.330  0.00  0.00     0.028 H 
ENDBRANCH  53  59
ENDBRANCH  47  53
BRANCH  49  63
ATOM     63  O34 2GJ d   1      31.136  12.534  21.348  0.00  0.00    -0.360 OA
ATOM     64  H30 2GJ d   1      30.310  12.725  20.919  0.00  0.00     0.217 HD
ENDBRANCH  49  63
BRANCH  51  65
ATOM     65  O33 2GJ d   1      28.058  10.636  24.429  0.00  0.00    -0.360 OA
ATOM     66  H32 2GJ d   1      27.577  11.452  24.506  0.00  0.00     0.217 HD
ENDBRANCH  51  65
ENDBRANCH   5  45
TORSDOF 12
