REMARK  9 active torsions:
REMARK  status: ('A' for Active; 'I' for Inactive)
REMARK    1  A    between atoms: N4_6  and  C19_7 
REMARK    2  A    between atoms: C19_7  and  C16_8 
REMARK    3  A    between atoms: C13_13  and  C9_14 
REMARK    4  A    between atoms: C8_15  and  C10_16 
REMARK       I    between atoms: C10_16  and  N3_18 
REMARK    5  A    between atoms: N3_18  and  C11_19 
REMARK    6  A    between atoms: C11_19  and  C12_20 
REMARK    7  A    between atoms: C7_23  and  C5_24 
REMARK    8  A    between atoms: C3_28  and  O2_29 
REMARK    9  A    between atoms: C1_31  and  O1_32 
ROOT
ATOM      1  C9  2EQ d   1      31.879   8.700  26.377  0.00  0.00     0.048 A 
ATOM      2  C8  2EQ d   1      31.553   8.205  27.614  0.00  0.00     0.165 A 
ATOM      3  N2  2EQ d   1      30.636   8.974  28.152  0.00  0.00    -0.121 NA
ATOM      4  O5  2EQ d   1      30.343   9.989  27.247  0.00  0.00    -0.211 OA
ATOM      5  C7  2EQ d   1      31.112   9.814  26.161  0.00  0.00     0.128 A 
ENDROOT
BRANCH   1   6
ATOM      6  C13 2EQ d   1      32.789   8.222  25.463  0.00  0.00    -0.021 A 
ATOM      7  C18 2EQ d   1      34.133   8.462  25.615  0.00  0.00    -0.071 A 
ATOM      8  C17 2EQ d   1      35.010   7.995  24.665  0.00  0.00    -0.074 A 
ATOM      9  H13 2EQ d   1      34.498   9.013  26.474  0.00  0.00     0.084 H 
ATOM     10  C16 2EQ d   1      34.553   7.294  23.570  0.00  0.00    -0.033 A 
ATOM     11  H12 2EQ d   1      36.072   8.180  24.778  0.00  0.00     0.084 H 
ATOM     12  C15 2EQ d   1      33.211   7.060  23.411  0.00  0.00    -0.074 A 
ATOM     13  C14 2EQ d   1      32.330   7.525  24.363  0.00  0.00    -0.071 A 
ATOM     14  H14 2EQ d   1      32.848   6.516  22.547  0.00  0.00     0.084 H 
ATOM     15  H15 2EQ d   1      31.268   7.342  24.247  0.00  0.00     0.084 H 
BRANCH  10  16
ATOM     16  C19 2EQ d   1      35.533   6.790  22.539  0.00  0.00     0.107 C 
ATOM     17  H10 2EQ d   1      35.153   7.022  21.533  0.00  0.00     0.083 H 
ATOM     18  H11 2EQ d   1      36.503   7.286  22.688  0.00  0.00     0.083 H 
BRANCH  16  19
ATOM     19  N4  2EQ d   1      35.705   5.355  22.666  0.00  0.00    -0.063 N 
ATOM     20  C20 2EQ d   1      36.092   4.776  23.948  0.00  0.00     0.103 C 
ATOM     21  C21 2EQ d   1      37.030   3.626  23.689  0.00  0.00     0.042 C 
ATOM     22  H1  2EQ d   1      36.598   5.537  24.561  0.00  0.00     0.079 H 
ATOM     23  H2  2EQ d   1      35.198   4.414  24.477  0.00  0.00     0.079 H 
ATOM     24  O4  2EQ d   1      37.407   3.788  22.346  0.00  0.00    -0.388 OA
ATOM     25  H3  2EQ d   1      36.519   2.664  23.838  0.00  0.00     0.076 H 
ATOM     26  H4  2EQ d   1      37.907   3.681  24.350  0.00  0.00     0.076 H 
ATOM     27  C22 2EQ d   1      36.411   3.329  21.506  0.00  0.00     0.042 C 
ATOM     28  C23 2EQ d   1      35.478   4.510  21.496  0.00  0.00     0.103 C 
ATOM     29  H5  2EQ d   1      35.922   2.431  21.912  0.00  0.00     0.076 H 
ATOM     30  H6  2EQ d   1      36.799   3.112  20.500  0.00  0.00     0.076 H 
ATOM     31  H7  2EQ d   1      34.439   4.150  21.507  0.00  0.00     0.079 H 
ATOM     32  H8  2EQ d   1      35.652   5.101  20.584  0.00  0.00     0.079 H 
ATOM     33  H9  2EQ d   1      36.677   5.444  22.415  0.00  0.00     0.280 HD
ENDBRANCH  16  19
ENDBRANCH  10  16
ENDBRANCH   1   6
BRANCH   2  34
ATOM     34  C10 2EQ d   1      32.159   7.011  28.304  0.00  0.00     0.273 C 
ATOM     35  O3  2EQ d   1      32.835   6.197  27.707  0.00  0.00    -0.266 OA
ATOM     36  N3  2EQ d   1      32.004   7.018  29.607  0.00  0.00    -0.356 N 
ATOM     37  H16 2EQ d   1      31.507   7.778  30.026  0.00  0.00     0.162 HD
BRANCH  36  38
ATOM     38  C11 2EQ d   1      32.527   5.963  30.470  0.00  0.00    -0.008 C 
ATOM     39  H17 2EQ d   1      32.311   4.985  30.016  0.00  0.00     0.063 H 
ATOM     40  H18 2EQ d   1      32.040   6.027  31.454  0.00  0.00     0.063 H 
BRANCH  38  41
ATOM     41  C12 2EQ d   1      34.028   6.110  30.646  0.00  0.00    -0.061 C 
ATOM     42  H19 2EQ d   1      34.401   5.307  31.298  0.00  0.00     0.029 H 
ATOM     43  H20 2EQ d   1      34.250   7.086  31.103  0.00  0.00     0.029 H 
ATOM     44  H21 2EQ d   1      34.520   6.044  29.665  0.00  0.00     0.029 H 
ENDBRANCH  38  41
ENDBRANCH  36  38
ENDBRANCH   2  34
BRANCH   5  45
ATOM     45  C5  2EQ d   1      31.135  10.616  25.032  0.00  0.00     0.036 A 
ATOM     46  C6  2EQ d   1      32.342  11.012  24.487  0.00  0.00    -0.044 A 
ATOM     47  C4  2EQ d   1      32.368  11.817  23.356  0.00  0.00     0.068 A 
ATOM     48  H22 2EQ d   1      33.272  10.693  24.944  0.00  0.00     0.087 H 
ATOM     49 CL1  2EQ d   1      33.832  12.330  22.633  0.00  0.00    -0.081 Cl
ATOM     50  C3  2EQ d   1      31.191  12.223  22.783  0.00  0.00     0.090 A 
ATOM     51  C2  2EQ d   1      29.988  11.828  23.332  0.00  0.00    -0.017 A 
ATOM     52  C1  2EQ d   1      29.967  11.034  24.455  0.00  0.00     0.081 A 
ATOM     53  H24 2EQ d   1      29.057  12.145  22.877  0.00  0.00     0.092 H 
BRANCH  50  54
ATOM     54  O2  2EQ d   1      31.228  12.999  21.691  0.00  0.00    -0.359 OA
ATOM     55  H23 2EQ d   1      30.341  13.195  21.413  0.00  0.00     0.217 HD
ENDBRANCH  50  54
BRANCH  52  56
ATOM     56  O1  2EQ d   1      28.803  10.663  24.984  0.00  0.00    -0.360 OA
ATOM     57  H25 2EQ d   1      28.962  10.122  25.748  0.00  0.00     0.217 HD
ENDBRANCH  52  56
ENDBRANCH   5  45
TORSDOF 9
