REMARK  2 active torsions:
REMARK  status: ('A' for Active; 'I' for Inactive)
REMARK    1  A    between atoms: C2_2  and  C3_3 
REMARK    2  A    between atoms: C12_8  and  C13_9 
ROOT
ATOM      1  C3  D25 d   1     -47.385  -4.811  25.809  0.00  0.00     0.134 A 
ATOM      2  C4  D25 d   1     -46.139  -4.386  25.440  0.00  0.00    -0.015 A 
ATOM      3  O10 D25 d   1     -47.952  -5.308  24.694  0.00  0.00    -0.210 OA
ATOM      4  N11 D25 d   1     -47.191  -5.230  23.728  0.00  0.00    -0.127 NA
ATOM      5  C12 D25 d   1     -46.047  -4.676  24.053  0.00  0.00     0.097 A 
ATOM      6  H2  D25 d   1     -45.382  -3.925  26.072  0.00  0.00     0.091 H 
ENDROOT
BRANCH   5   7
ATOM      7  C13 D25 d   1     -44.853  -4.414  23.204  0.00  0.00    -0.005 A 
ATOM      8  C14 D25 d   1     -44.551  -5.234  22.114  0.00  0.00    -0.071 A 
ATOM      9  C15 D25 d   1     -43.410  -4.978  21.376  0.00  0.00    -0.082 A 
ATOM     10  H4  D25 d   1     -45.202  -6.060  21.850  0.00  0.00     0.084 H 
ATOM     11  C16 D25 d   1     -42.563  -3.923  21.711  0.00  0.00    -0.083 A 
ATOM     12  H5  D25 d   1     -43.171  -5.606  20.526  0.00  0.00     0.083 H 
ATOM     13  C17 D25 d   1     -42.854  -3.113  22.790  0.00  0.00    -0.082 A 
ATOM     14  H6  D25 d   1     -41.672  -3.738  21.122  0.00  0.00     0.083 H 
ATOM     15  C18 D25 d   1     -43.992  -3.357  23.535  0.00  0.00    -0.071 A 
ATOM     16  H7  D25 d   1     -42.196  -2.292  23.051  0.00  0.00     0.083 H 
ATOM     17  H8  D25 d   1     -44.222  -2.724  24.385  0.00  0.00     0.084 H 
ENDBRANCH   5   7
BRANCH   1  18
ATOM     18  C2  D25 d   1     -47.982  -4.714  27.155  0.00  0.00     0.114 A 
ATOM     19  C1  D25 d   1     -49.352  -4.821  27.471  0.00  0.00    -0.034 A 
ATOM     20  C6  D25 d   1     -49.485  -4.671  28.810  0.00  0.00    -0.002 A 
ATOM     21  H1  D25 d   1     -50.161  -4.994  26.763  0.00  0.00     0.089 H 
ATOM     22  N10 D25 d   1     -48.250  -4.462  29.326  0.00  0.00    -0.289 N 
ATOM     23  H3  D25 d   1     -50.417  -4.711  29.371  0.00  0.00     0.113 H 
ATOM     24  N6  D25 d   1     -47.326  -4.489  28.273  0.00  0.00    -0.173 NA
ATOM     25  H9  D25 d   1     -48.029  -4.310  30.320  0.00  0.00     0.188 HD
ENDBRANCH   1  18
TORSDOF 2
