REMARK  2 active torsions:
REMARK  status: ('A' for Active; 'I' for Inactive)
REMARK    1  A    between atoms: C2_2  and  C4_4 
REMARK    2  A    between atoms: N7_7  and  C9_9 
ROOT
ATOM      1  C9  ZZA d   1       4.352  16.020   0.255  0.00  0.00     0.058 A 
ATOM      2  C10 ZZA d   1       3.386  17.010   0.467  0.00  0.00    -0.055 A 
ATOM      3  C11 ZZA d   1       3.245  18.046  -0.440  0.00  0.00    -0.081 A 
ATOM      4  C12 ZZA d   1       4.053  18.110  -1.567  0.00  0.00    -0.083 A 
ATOM      5  C13 ZZA d   1       5.010  17.132  -1.791  0.00  0.00    -0.081 A 
ATOM      6  C14 ZZA d   1       5.162  16.094  -0.880  0.00  0.00    -0.055 A 
ATOM      7  H3  ZZA d   1       2.748  16.965   1.342  0.00  0.00     0.087 H 
ATOM      8  H4  ZZA d   1       2.498  18.813  -0.269  0.00  0.00     0.083 H 
ATOM      9  H5  ZZA d   1       3.936  18.925  -2.272  0.00  0.00     0.083 H 
ATOM     10  H6  ZZA d   1       5.637  17.177  -2.674  0.00  0.00     0.083 H 
ATOM     11  H7  ZZA d   1       5.916  15.335  -1.052  0.00  0.00     0.087 H 
ENDROOT
BRANCH   1  12
ATOM     12  N7  ZZA d   1       4.523  14.966   1.184  0.00  0.00    -0.244 N 
ATOM     13  N6  ZZA d   1       5.063  13.693   0.916  0.00  0.00    -0.179 NA
ATOM     14  C5  ZZA d   1       5.077  12.988   2.023  0.00  0.00     0.040 A 
ATOM     15  C4  ZZA d   1       4.544  13.793   3.061  0.00  0.00     0.077 A 
ATOM     16  H1  ZZA d   1       5.435  11.965   2.126  0.00  0.00     0.119 H 
ATOM     17  C8  ZZA d   1       4.221  15.018   2.498  0.00  0.00     0.022 A 
ATOM     18  H2  ZZA d   1       3.798  15.872   3.024  0.00  0.00     0.116 H 
BRANCH  15  19
ATOM     19  C2  ZZA d   1       4.374  13.415   4.481  0.00  0.00     0.212 C 
ATOM     20  O1  ZZA d   1       4.682  12.175   4.905  0.00  0.00    -0.644 OA
ATOM     21  O3  ZZA d   1       3.954  14.224   5.283  0.00  0.00    -0.644 OA
ENDBRANCH  15  19
ENDBRANCH   1  12
TORSDOF 2
