REMARK  2 active torsions:
REMARK  status: ('A' for Active; 'I' for Inactive)
REMARK    1  A    between atoms: C3_3  and  C2_2 
REMARK    2  A    between atoms: C12_6  and  C13_7 
ROOT
ATOM      1  C3  D26 d   1      13.623   4.727  23.241  0.00  0.00     0.052 A 
ATOM      2  N11 D26 d   1      13.929   5.121  25.483  0.00  0.00    -0.251 NA
ATOM      3  C12 D26 d   1      15.131   4.553  25.413  0.00  0.00     0.108 A 
ATOM      4  S3  D26 d   1      15.229   4.108  23.693  0.00  0.00    -0.066 SA
ATOM      5  C4  D26 d   1      13.150   5.220  24.433  0.00  0.00     0.022 A 
ATOM      6  H9  D26 d   1      12.164   5.676  24.503  0.00  0.00     0.117 H 
ENDROOT
BRANCH   3   7
ATOM      7  C13 D26 d   1      16.189   4.356  26.425  0.00  0.00    -0.000 A 
ATOM      8  C14 D26 d   1      16.152   5.050  27.634  0.00  0.00    -0.070 A 
ATOM      9  C15 D26 d   1      17.179   4.882  28.539  0.00  0.00    -0.082 A 
ATOM     10  H3  D26 d   1      15.325   5.714  27.860  0.00  0.00     0.084 H 
ATOM     11  C16 D26 d   1      18.240   4.042  28.249  0.00  0.00    -0.083 A 
ATOM     12  H4  D26 d   1      17.155   5.412  29.484  0.00  0.00     0.083 H 
ATOM     13  C17 D26 d   1      18.293   3.359  27.046  0.00  0.00    -0.082 A 
ATOM     14  H5  D26 d   1      19.038   3.917  28.972  0.00  0.00     0.083 H 
ATOM     15  C18 D26 d   1      17.266   3.516  26.129  0.00  0.00    -0.070 A 
ATOM     16  H6  D26 d   1      19.130   2.707  26.823  0.00  0.00     0.083 H 
ATOM     17  H7  D26 d   1      17.298   2.988  25.183  0.00  0.00     0.084 H 
ENDBRANCH   3   7
BRANCH   1  18
ATOM     18  C2  D26 d   1      13.051   4.645  21.894  0.00  0.00     0.070 A 
ATOM     19  C1  D26 d   1      11.692   4.708  21.545  0.00  0.00    -0.036 A 
ATOM     20  C6  D26 d   1      11.638   4.564  20.200  0.00  0.00     0.024 A 
ATOM     21  H1  D26 d   1      10.850   4.845  22.221  0.00  0.00     0.089 H 
ATOM     22  N10 D26 d   1      12.904   4.399  19.737  0.00  0.00    -0.187 NA
ATOM     23  H2  D26 d   1      10.734   4.578  19.593  0.00  0.00     0.117 H 
ATOM     24  N6  D26 d   1      13.780   4.446  20.817  0.00  0.00    -0.277 N 
ATOM     25  H8  D26 d   1      14.804   4.344  20.780  0.00  0.00     0.189 HD
ENDBRANCH   1  18
TORSDOF 2
