REMARK  8 active torsions:
REMARK  status: ('A' for Active; 'I' for Inactive)
REMARK    1  A    between atoms: C1_1  and  C3_3 
REMARK    2  A    between atoms: N4_4  and  C2_2 
REMARK       I    between atoms: C5_5  and  N4_4 
REMARK    3  A    between atoms: C6_6  and  C5_5 
REMARK    4  A    between atoms: C7_7  and  O17_17 
REMARK    5  A    between atoms: C13_13  and  C8_8 
REMARK    6  A    between atoms: C9_9  and  O19_19 
REMARK    7  A    between atoms: O17_17  and  C21_21 
REMARK    8  A    between atoms: O19_19  and  C22_22 
ROOT
ATOM      1  C6  D27 d   1     129.228  13.010  -1.897  0.00  0.00    -0.017 C 
ATOM      2  C8  D27 d   1     128.596  13.415  -0.775  0.00  0.00    -0.068 C 
ATOM      3  H2  D27 d   1     129.765  12.063  -1.904  0.00  0.00     0.092 H 
ATOM      4  H3  D27 d   1     128.050  14.357  -0.809  0.00  0.00     0.085 H 
ENDROOT
BRANCH   2   5
ATOM      5  C13 D27 d   1     128.598  12.664   0.493  0.00  0.00    -0.033 A 
ATOM      6  C10 D27 d   1     128.371  13.413   1.655  0.00  0.00    -0.038 A 
ATOM      7  C7  D27 d   1     128.333  12.803   2.895  0.00  0.00     0.102 A 
ATOM      8  H4  D27 d   1     128.223  14.484   1.581  0.00  0.00     0.089 H 
ATOM      9  C9  D27 d   1     128.536  11.415   3.006  0.00  0.00     0.101 A 
ATOM     10  C14 D27 d   1     128.779  10.658   1.841  0.00  0.00    -0.047 A 
ATOM     11  C16 D27 d   1     128.808  11.267   0.590  0.00  0.00    -0.070 A 
ATOM     12  H5  D27 d   1     128.945   9.590   1.921  0.00  0.00     0.087 H 
ATOM     13  H6  D27 d   1     128.990  10.678  -0.301  0.00  0.00     0.084 H 
BRANCH   7  14
ATOM     14  O17 D27 d   1     128.115  13.569   4.005  0.00  0.00    -0.353 OA
BRANCH  14  15
ATOM     15  C21 D27 d   1     126.777  14.094   3.984  0.00  0.00     0.010 C 
ATOM     16  H9  D27 d   1     126.610  14.709   4.881  0.00  0.00     0.066 H 
ATOM     17  H10 D27 d   1     126.057  13.262   3.971  0.00  0.00     0.066 H 
ATOM     18  H11 D27 d   1     126.640  14.712   3.085  0.00  0.00     0.066 H 
ENDBRANCH  14  15
ENDBRANCH   7  14
BRANCH   9  19
ATOM     19  O19 D27 d   1     128.523  10.845   4.260  0.00  0.00    -0.353 OA
BRANCH  19  20
ATOM     20  C22 D27 d   1     127.595   9.748   4.348  0.00  0.00     0.010 C 
ATOM     21  H12 D27 d   1     127.620   9.327   5.364  0.00  0.00     0.066 H 
ATOM     22  H13 D27 d   1     127.876   8.971   3.622  0.00  0.00     0.066 H 
ATOM     23  H14 D27 d   1     126.580  10.108   4.125  0.00  0.00     0.066 H 
ENDBRANCH  19  20
ENDBRANCH   9  19
ENDBRANCH   2   5
BRANCH   1  24
ATOM     24  C5  D27 d   1     129.195  13.836  -3.103  0.00  0.00     0.245 C 
ATOM     25  N4  D27 d   1     128.503  15.022  -3.124  0.00  0.00    -0.323 N 
ATOM     26  H1  D27 d   1     127.988  15.256  -2.299  0.00  0.00     0.169 HD
ATOM     27  O12 D27 d   1     129.813  13.412  -4.064  0.00  0.00    -0.268 OA
BRANCH  25  28
ATOM     28  C2  D27 d   1     128.444  15.943  -4.189  0.00  0.00     0.052 A 
ATOM     29  C1  D27 d   1     127.644  17.112  -4.100  0.00  0.00     0.067 A 
ATOM     30  C18 D27 d   1     127.650  18.040  -5.145  0.00  0.00    -0.064 A 
ATOM     31  C23 D27 d   1     128.437  17.844  -6.268  0.00  0.00    -0.082 A 
ATOM     32  H7  D27 d   1     127.030  18.926  -5.076  0.00  0.00     0.085 H 
ATOM     33  C24 D27 d   1     129.233  16.713  -6.368  0.00  0.00    -0.081 A 
ATOM     34  H15 D27 d   1     128.431  18.575  -7.069  0.00  0.00     0.083 H 
ATOM     35  C20 D27 d   1     129.238  15.786  -5.333  0.00  0.00    -0.056 A 
ATOM     36  H16 D27 d   1     129.847  16.553  -7.247  0.00  0.00     0.083 H 
ATOM     37  H8  D27 d   1     129.876  14.914  -5.413  0.00  0.00     0.086 H 
BRANCH  29  38
ATOM     38  C3  D27 d   1     126.762  17.372  -2.945  0.00  0.00     0.211 C 
ATOM     39  O11 D27 d   1     126.676  16.577  -2.034  0.00  0.00    -0.644 OA
ATOM     40  O15 D27 d   1     126.013  18.492  -2.905  0.00  0.00    -0.644 OA
ENDBRANCH  29  38
ENDBRANCH  25  28
ENDBRANCH   1  24
TORSDOF 8
