REMARK  6 active torsions:
REMARK  status: ('A' for Active; 'I' for Inactive)
REMARK    1  A    between atoms: C1_1  and  C2_2 
REMARK    2  A    between atoms: C7_7  and  N11_11 
REMARK    3  A    between atoms: C9_9  and  C13_13 
REMARK    4  A    between atoms: N11_11  and  C14_14 
REMARK    5  A    between atoms: C18_18  and  O21_21 
REMARK    6  A    between atoms: C20_20  and  C22_22 
ROOT
ATOM      1  C1  D28 d   1      14.739   4.671  -1.493  0.00  0.00     0.076 A 
ATOM      2  N3  D28 d   1      14.859   4.520  -2.808  0.00  0.00    -0.223 NA
ATOM      3  C4  D28 d   1      13.577   5.160  -0.977  0.00  0.00    -0.013 A 
ATOM      4  C7  D28 d   1      13.887   4.817  -3.649  0.00  0.00     0.171 A 
ATOM      5  S8  D28 d   1      12.656   5.396  -2.490  0.00  0.00    -0.061 SA
ATOM      6  H1  D28 d   1      13.292   5.351   0.057  0.00  0.00     0.098 H 
ENDROOT
BRANCH   4   7
ATOM      7  N11 D28 d   1      13.910   4.690  -5.041  0.00  0.00    -0.335 N 
ATOM      8  H5  D28 d   1      14.849   4.612  -5.457  0.00  0.00     0.168 HD
BRANCH   7   9
ATOM      9  C14 D28 d   1      12.848   4.652  -5.958  0.00  0.00     0.036 A 
ATOM     10  C16 D28 d   1      13.207   4.784  -7.298  0.00  0.00    -0.024 A 
ATOM     11  C18 D28 d   1      12.250   4.766  -8.297  0.00  0.00     0.084 A 
ATOM     12  H9  D28 d   1      14.252   4.903  -7.562  0.00  0.00     0.091 H 
ATOM     13  C20 D28 d   1      10.890   4.609  -7.956  0.00  0.00     0.073 A 
ATOM     14  C19 D28 d   1      10.531   4.476  -6.594  0.00  0.00    -0.061 A 
ATOM     15  C17 D28 d   1      11.496   4.495  -5.615  0.00  0.00    -0.056 A 
ATOM     16  H11 D28 d   1       9.489   4.358  -6.321  0.00  0.00     0.085 H 
ATOM     17  H10 D28 d   1      11.212   4.388  -4.574  0.00  0.00     0.086 H 
BRANCH  11  18
ATOM     18  O21 D28 d   1      12.626   4.901  -9.598  0.00  0.00    -0.360 OA
ATOM     19  H12 D28 d   1      13.570   4.996  -9.645  0.00  0.00     0.217 HD
ENDBRANCH  11  18
BRANCH  13  20
ATOM     20  C22 D28 d   1       9.883   4.589  -9.044  0.00  0.00     0.212 C 
ATOM     21  O23 D28 d   1       9.366   3.539  -9.400  0.00  0.00    -0.644 OA
ATOM     22  O24 D28 d   1       9.545   5.744  -9.663  0.00  0.00    -0.644 OA
ENDBRANCH  13  20
ENDBRANCH   7   9
ENDBRANCH   4   7
BRANCH   1  23
ATOM     23  C2  D28 d   1      15.888   4.303  -0.633  0.00  0.00    -0.006 A 
ATOM     24  C5  D28 d   1      16.226   5.059   0.491  0.00  0.00    -0.062 A 
ATOM     25  C9  D28 d   1      17.307   4.717   1.268  0.00  0.00    -0.022 A 
ATOM     26  H2  D28 d   1      15.629   5.925   0.754  0.00  0.00     0.085 H 
ATOM     27  C12 D28 d   1      18.059   3.611   0.920  0.00  0.00     0.122 A 
ATOM     28  C10 D28 d   1      17.734   2.852  -0.192  0.00  0.00    -0.044 A 
ATOM     29  F15 D28 d   1      19.116   3.245   1.668  0.00  0.00    -0.206 F 
ATOM     30  C6  D28 d   1      16.653   3.190  -0.977  0.00  0.00    -0.068 A 
ATOM     31  H4  D28 d   1      18.334   1.986  -0.447  0.00  0.00     0.088 H 
ATOM     32  H3  D28 d   1      16.401   2.599  -1.850  0.00  0.00     0.085 H 
BRANCH  25  33
ATOM     33  C13 D28 d   1      17.661   5.536   2.480  0.00  0.00    -0.048 C 
ATOM     34  H6  D28 d   1      16.946   6.366   2.583  0.00  0.00     0.033 H 
ATOM     35  H7  D28 d   1      18.678   5.940   2.365  0.00  0.00     0.033 H 
ATOM     36  H8  D28 d   1      17.618   4.901   3.377  0.00  0.00     0.033 H 
ENDBRANCH  25  33
ENDBRANCH   1  23
TORSDOF 6
