REMARK  10 active torsions:
REMARK  status: ('A' for Active; 'I' for Inactive)
REMARK    1  A    between atoms: C5_7  and  C1_8 
REMARK       I    between atoms: C1_8  and  N2_10 
REMARK    2  A    between atoms: N2_10  and  C12_11 
REMARK    3  A    between atoms: N2_10  and  C3_13 
REMARK    4  A    between atoms: C12_11  and  C19_12 
REMARK    5  A    between atoms: C19_12  and  C23_27 
REMARK    6  A    between atoms: N4_15  and  C10_19 
REMARK    7  A    between atoms: C10_19  and  C16_20 
REMARK    8  A    between atoms: C16_20  and  C17_21 
REMARK    9  A    between atoms: C23_27  and  O22_28 
REMARK   10  A    between atoms: O22_28  and  C26_29 
ROOT
ATOM      1  C3  P21 d   1      69.606  29.878  39.903  0.00  0.00     0.038 C 
ATOM      2  C6  P21 d   1      70.897  30.518  40.441  0.00  0.00     0.102 C 
ATOM      3  N4  P21 d   1      70.623  31.767  41.168  0.00  0.00    -0.069 N 
ATOM      4  C18 P21 d   1      69.524  31.771  42.148  0.00  0.00     0.084 C 
ATOM      5  C21 P21 d   1      68.257  31.139  41.545  0.00  0.00    -0.040 C 
ATOM      6  C20 P21 d   1      68.552  29.746  41.007  0.00  0.00    -0.043 C 
ATOM      7  H9  P21 d   1      69.199  30.514  39.103  0.00  0.00     0.075 H 
ATOM      8  H10 P21 d   1      71.566  30.737  39.595  0.00  0.00     0.079 H 
ATOM      9  H11 P21 d   1      71.389  29.809  41.123  0.00  0.00     0.079 H 
ATOM     10  H12 P21 d   1      70.254  32.366  40.446  0.00  0.00     0.280 HD
ATOM     11  H13 P21 d   1      69.306  32.808  42.442  0.00  0.00     0.076 H 
ATOM     12  H14 P21 d   1      69.828  31.195  43.034  0.00  0.00     0.076 H 
ATOM     13  H15 P21 d   1      67.893  31.773  40.723  0.00  0.00     0.035 H 
ATOM     14  H16 P21 d   1      67.483  31.069  42.324  0.00  0.00     0.035 H 
ATOM     15  H17 P21 d   1      68.937  29.107  41.816  0.00  0.00     0.036 H 
ATOM     16  H18 P21 d   1      67.633  29.303  40.595  0.00  0.00     0.036 H 
ENDROOT
BRANCH   1  17
ATOM     17  N2  P21 d   1      69.935  28.547  39.345  0.00  0.00    -0.342 N 
ATOM     18  C1  P21 d   1      69.887  28.347  38.031  0.00  0.00     0.254 C 
ATOM     19  O7  P21 d   1      69.992  27.256  37.499  0.00  0.00    -0.267 OA
BRANCH  18  20
ATOM     20  C5  P21 d   1      69.707  29.458  37.072  0.00  0.00     0.032 A 
ATOM     21  C9  P21 d   1      68.434  29.754  36.600  0.00  0.00    -0.066 A 
ATOM     22  C14 P21 d   1      68.285  30.789  35.692  0.00  0.00    -0.061 A 
ATOM     23  H2  P21 d   1      67.574  29.186  36.936  0.00  0.00     0.085 H 
ATOM     24  C11 P21 d   1      69.418  31.471  35.274  0.00  0.00     0.034 A 
ATOM     25  H1  P21 d   1      67.305  31.060  35.316  0.00  0.00     0.086 H 
ATOM     26 CL15 P21 d   1      69.252  32.785  34.101  0.00  0.00    -0.084 Cl
ATOM     27  C13 P21 d   1      70.685  31.171  35.743  0.00  0.00    -0.061 A 
ATOM     28  C8  P21 d   1      70.832  30.144  36.656  0.00  0.00    -0.066 A 
ATOM     29  H3  P21 d   1      71.547  31.732  35.400  0.00  0.00     0.086 H 
ATOM     30  H4  P21 d   1      71.812  29.881  37.039  0.00  0.00     0.085 H 
ENDBRANCH  18  20
BRANCH  17  31
ATOM     31  C12 P21 d   1      70.247  27.490  40.329  0.00  0.00     0.000 C 
ATOM     32  H5  P21 d   1      69.342  26.894  40.516  0.00  0.00     0.064 H 
ATOM     33  H6  P21 d   1      70.578  27.958  41.268  0.00  0.00     0.064 H 
BRANCH  31  34
ATOM     34  C19 P21 d   1      71.356  26.569  39.810  0.00  0.00    -0.030 C 
ATOM     35  H7  P21 d   1      72.029  27.154  39.166  0.00  0.00     0.038 H 
ATOM     36  H8  P21 d   1      70.897  25.761  39.222  0.00  0.00     0.038 H 
BRANCH  34  37
ATOM     37  C23 P21 d   1      72.175  25.949  40.942  0.00  0.00     0.020 C 
ATOM     38  H28 P21 d   1      72.685  26.749  41.499  0.00  0.00     0.074 H 
ATOM     39  H29 P21 d   1      72.923  25.265  40.514  0.00  0.00     0.074 H 
BRANCH  37  40
ATOM     40  O22 P21 d   1      71.330  25.221  41.834  0.00  0.00    -0.396 OA
BRANCH  40  41
ATOM     41  C26 P21 d   1      72.061  24.404  42.753  0.00  0.00     0.004 C 
ATOM     42  H30 P21 d   1      71.358  23.871  43.410  0.00  0.00     0.066 H 
ATOM     43  H31 P21 d   1      72.722  25.038  43.362  0.00  0.00     0.066 H 
ATOM     44  H32 P21 d   1      72.665  23.674  42.194  0.00  0.00     0.066 H 
ENDBRANCH  40  41
ENDBRANCH  37  40
ENDBRANCH  34  37
ENDBRANCH  31  34
ENDBRANCH  17  31
ENDBRANCH   1  17
BRANCH   3  45
ATOM     45  C10 P21 d   1      71.871  32.455  41.561  0.00  0.00     0.087 C 
ATOM     46  H19 P21 d   1      72.602  32.342  40.747  0.00  0.00     0.076 H 
ATOM     47  H20 P21 d   1      72.260  31.976  42.472  0.00  0.00     0.076 H 
BRANCH  45  48
ATOM     48  C16 P21 d   1      71.686  33.944  41.840  0.00  0.00    -0.018 C 
ATOM     49  H21 P21 d   1      71.149  34.084  42.790  0.00  0.00     0.042 H 
ATOM     50  H22 P21 d   1      71.115  34.410  41.024  0.00  0.00     0.042 H 
BRANCH  48  51
ATOM     51  C17 P21 d   1      73.064  34.569  41.929  0.00  0.00    -0.057 A 
ATOM     52  C24 P21 d   1      73.799  34.516  43.118  0.00  0.00    -0.077 A 
ATOM     53  C28 P21 d   1      75.075  35.087  43.178  0.00  0.00    -0.082 A 
ATOM     54  H23 P21 d   1      73.380  34.032  43.993  0.00  0.00     0.084 H 
ATOM     55  C29 P21 d   1      75.615  35.707  42.052  0.00  0.00    -0.083 A 
ATOM     56  H24 P21 d   1      75.644  35.047  44.100  0.00  0.00     0.083 H 
ATOM     57  C27 P21 d   1      74.882  35.751  40.872  0.00  0.00    -0.082 A 
ATOM     58  H25 P21 d   1      76.602  36.153  42.097  0.00  0.00     0.083 H 
ATOM     59  C25 P21 d   1      73.616  35.184  40.809  0.00  0.00    -0.077 A 
ATOM     60  H26 P21 d   1      75.301  36.231  39.995  0.00  0.00     0.083 H 
ATOM     61  H27 P21 d   1      73.055  35.221  39.883  0.00  0.00     0.084 H 
ENDBRANCH  48  51
ENDBRANCH  45  48
ENDBRANCH   3  45
TORSDOF 10
