REMARK  9 active torsions:
REMARK  status: ('A' for Active; 'I' for Inactive)
REMARK    1  A    between atoms: C11_9  and  C1_1 
REMARK    2  A    between atoms: C21_15  and  C14_12 
REMARK    3  A    between atoms: C22_27  and  C21_15 
REMARK    4  A    between atoms: C23_16  and  C27_24 
REMARK    5  A    between atoms: C22_27  and  C25_19 
REMARK    6  A    between atoms: N45_28  and  C22_27 
REMARK    7  A    between atoms: S1_29  and  N45_28 
REMARK    8  A    between atoms: C8_36  and  S1_29 
REMARK    9  A    between atoms: C24_33  and  C18_32 
ROOT
ATOM      1  C22 IZ1 d   1      14.329  18.965  79.093  0.00  0.00     0.081 C 
ATOM      2  H18 IZ1 d   1      14.157  19.083  80.173  0.00  0.00     0.086 H 
ENDROOT
BRANCH   1   3
ATOM      3  C21 IZ1 d   1      15.002  17.626  78.816  0.00  0.00    -0.015 C 
ATOM      4  H9  IZ1 d   1      14.260  16.826  78.953  0.00  0.00     0.043 H 
ATOM      5  H10 IZ1 d   1      15.358  17.621  77.775  0.00  0.00     0.043 H 
BRANCH   3   6
ATOM      6  C14 IZ1 d   1      16.165  17.359  79.720  0.00  0.00    -0.056 A 
ATOM      7  C13 IZ1 d   1      17.492  17.097  79.149  0.00  0.00    -0.076 A 
ATOM      8  C12 IZ1 d   1      18.625  16.822  80.036  0.00  0.00    -0.075 A 
ATOM      9  H6  IZ1 d   1      17.633  17.107  78.074  0.00  0.00     0.084 H 
ATOM     10  C11 IZ1 d   1      18.430  16.813  81.495  0.00  0.00    -0.037 A 
ATOM     11  H5  IZ1 d   1      19.606  16.625  79.618  0.00  0.00     0.084 H 
ATOM     12  C16 IZ1 d   1      17.099  17.074  82.061  0.00  0.00    -0.075 A 
ATOM     13  C15 IZ1 d   1      15.969  17.347  81.180  0.00  0.00    -0.076 A 
ATOM     14  H8  IZ1 d   1      16.957  17.064  83.136  0.00  0.00     0.084 H 
ATOM     15  H7  IZ1 d   1      14.988  17.541  81.598  0.00  0.00     0.084 H 
BRANCH  10  16
ATOM     16  C1  IZ1 d   1      19.607  16.560  82.417  0.00  0.00     0.096 C 
ATOM     17  C2  IZ1 d   1      20.899  17.163  81.925  0.00  0.00     0.032 C 
ATOM     18  C3  IZ1 d   1      22.052  16.356  82.413  0.00  0.00     0.232 C 
ATOM     19  H2  IZ1 d   1      20.988  18.192  82.302  0.00  0.00     0.049 H 
ATOM     20  H3  IZ1 d   1      20.901  17.174  80.825  0.00  0.00     0.049 H 
ATOM     21  N4  IZ1 d   1      21.744  15.113  82.806  0.00  0.00    -0.254 N 
ATOM     22  O9  IZ1 d   1      23.208  16.765  82.443  0.00  0.00    -0.273 OA
ATOM     23  S5  IZ1 d   1      19.947  14.803  82.619  0.00  0.00     0.241 S 
ATOM     24  H4  IZ1 d   1      22.403  14.446  83.153  0.00  0.00     0.181 HD
ATOM     25  O6  IZ1 d   1      19.248  14.287  84.043  0.00  0.00    -0.205 OA
ATOM     26  O7  IZ1 d   1      19.522  13.849  81.269  0.00  0.00    -0.205 OA
ATOM     27  H1  IZ1 d   1      19.361  16.995  83.397  0.00  0.00     0.075 H 
ENDBRANCH  10  16
ENDBRANCH   3   6
ENDBRANCH   1   3
BRANCH   1  28
ATOM     28  C25 IZ1 d   1      15.206  20.120  78.592  0.00  0.00     0.128 A 
ATOM     29  N11 IZ1 d   1      15.936  21.013  79.401  0.00  0.00    -0.231 NA
ATOM     30  C23 IZ1 d   1      16.596  21.922  78.544  0.00  0.00     0.084 A 
ATOM     31  C4  IZ1 d   1      16.242  21.552  77.185  0.00  0.00     0.007 A 
ATOM     32  N13 IZ1 d   1      15.384  20.431  77.224  0.00  0.00    -0.350 N 
ATOM     33  H11 IZ1 d   1      16.583  22.057  76.282  0.00  0.00     0.115 H 
ATOM     34  H12 IZ1 d   1      14.971  19.939  76.419  0.00  0.00     0.166 HD
BRANCH  30  35
ATOM     35  C27 IZ1 d   1      17.466  23.014  78.994  0.00  0.00    -0.006 A 
ATOM     36  C20 IZ1 d   1      17.632  23.230  80.448  0.00  0.00    -0.071 A 
ATOM     37  C19 IZ1 d   1      18.497  24.320  80.939  0.00  0.00    -0.082 A 
ATOM     38  H15 IZ1 d   1      17.118  22.587  81.153  0.00  0.00     0.084 H 
ATOM     39  C17 IZ1 d   1      19.200  25.196  79.977  0.00  0.00    -0.083 A 
ATOM     40  H14 IZ1 d   1      18.617  24.479  82.005  0.00  0.00     0.083 H 
ATOM     41  C6  IZ1 d   1      19.034  24.981  78.527  0.00  0.00    -0.082 A 
ATOM     42  H13 IZ1 d   1      19.837  25.996  80.337  0.00  0.00     0.083 H 
ATOM     43  C5  IZ1 d   1      18.168  23.893  78.034  0.00  0.00    -0.071 A 
ATOM     44  H17 IZ1 d   1      19.549  25.624  77.822  0.00  0.00     0.083 H 
ATOM     45  H16 IZ1 d   1      18.046  23.738  76.968  0.00  0.00     0.084 H 
ENDBRANCH  30  35
ENDBRANCH   1  28
BRANCH   1  46
ATOM     46  N45 IZ1 d   1      13.052  18.948  78.383  0.00  0.00    -0.303 N 
ATOM     47  H19 IZ1 d   1      12.881  18.254  77.684  0.00  0.00     0.173 HD
BRANCH  46  48
ATOM     48  S1  IZ1 d   1      11.856  20.103  78.739  0.00  0.00     0.259 S 
ATOM     49  O1  IZ1 d   1      10.486  19.132  78.271  0.00  0.00    -0.201 OA
ATOM     50  O2  IZ1 d   1      11.818  20.481  80.418  0.00  0.00    -0.201 OA
BRANCH  48  51
ATOM     51  C8  IZ1 d   1      12.058  21.437  77.576  0.00  0.00     0.080 A 
ATOM     52  C7  IZ1 d   1      11.629  21.112  76.215  0.00  0.00    -0.046 A 
ATOM     53  C24 IZ1 d   1      11.955  22.018  75.114  0.00  0.00     0.049 A 
ATOM     54  H21 IZ1 d   1      11.071  20.202  76.023  0.00  0.00     0.087 H 
ATOM     55  C26 IZ1 d   1      12.712  23.252  75.375  0.00  0.00    -0.068 A 
ATOM     56  C10 IZ1 d   1      13.138  23.573  76.739  0.00  0.00    -0.081 A 
ATOM     57  H20 IZ1 d   1      12.954  23.923  74.559  0.00  0.00     0.084 H 
ATOM     58  C9  IZ1 d   1      12.810  22.666  77.841  0.00  0.00    -0.060 A 
ATOM     59  H23 IZ1 d   1      13.696  24.482  76.933  0.00  0.00     0.083 H 
ATOM     60  H22 IZ1 d   1      13.123  22.904  78.851  0.00  0.00     0.085 H 
BRANCH  53  61
ATOM     61  C18 IZ1 d   1      11.522  21.698  73.748  0.00  0.00     0.417 C 
ATOM     62  F3  IZ1 d   1      10.738  20.439  73.562  0.00  0.00    -0.166 F 
ATOM     63  F1  IZ1 d   1      12.700  21.564  72.828  0.00  0.00    -0.166 F 
ATOM     64  F2  IZ1 d   1      10.563  22.733  73.210  0.00  0.00    -0.166 F 
ENDBRANCH  53  61
ENDBRANCH  48  51
ENDBRANCH  46  48
ENDBRANCH   1  46
TORSDOF 9
