REMARK  10 active torsions:
REMARK  status: ('A' for Active; 'I' for Inactive)
REMARK    1  A    between atoms: C11_9  and  C1_1 
REMARK    2  A    between atoms: C21_15  and  C14_12 
REMARK    3  A    between atoms: C22_16  and  C21_15 
REMARK    4  A    between atoms: N45_17  and  C22_16 
REMARK    5  A    between atoms: C22_16  and  C25_22 
REMARK    6  A    between atoms: S1_18  and  N45_17 
REMARK    7  A    between atoms: C8_36  and  S1_18 
REMARK    8  A    between atoms: C23_19  and  C5_24 
REMARK    9  A    between atoms: C5_24  and  C20_28 
REMARK   10  A    between atoms: C10_38  and  C29_39 
ROOT
ATOM      1  C22 IZ2 d   1      13.702  18.798  79.163  0.00  0.00     0.081 C 
ATOM      2  H11 IZ2 d   1      13.502  18.943  80.235  0.00  0.00     0.086 H 
ENDROOT
BRANCH   1   3
ATOM      3  C21 IZ2 d   1      14.385  17.448  78.928  0.00  0.00    -0.015 C 
ATOM      4  H9  IZ2 d   1      13.663  16.648  79.147  0.00  0.00     0.043 H 
ATOM      5  H10 IZ2 d   1      14.690  17.389  77.873  0.00  0.00     0.043 H 
BRANCH   3   6
ATOM      6  C14 IZ2 d   1      15.604  17.244  79.792  0.00  0.00    -0.056 A 
ATOM      7  C13 IZ2 d   1      16.910  16.976  79.169  0.00  0.00    -0.076 A 
ATOM      8  C12 IZ2 d   1      18.085  16.776  80.004  0.00  0.00    -0.075 A 
ATOM      9  H6  IZ2 d   1      16.997  16.928  78.090  0.00  0.00     0.084 H 
ATOM     10  C11 IZ2 d   1      17.962  16.844  81.463  0.00  0.00    -0.037 A 
ATOM     11  H5  IZ2 d   1      19.048  16.577  79.548  0.00  0.00     0.084 H 
ATOM     12  C16 IZ2 d   1      16.654  17.109  82.082  0.00  0.00    -0.075 A 
ATOM     13  C15 IZ2 d   1      15.483  17.308  81.246  0.00  0.00    -0.076 A 
ATOM     14  H8  IZ2 d   1      16.564  17.156  83.161  0.00  0.00     0.084 H 
ATOM     15  H7  IZ2 d   1      14.519  17.504  81.701  0.00  0.00     0.084 H 
BRANCH  10  16
ATOM     16  C1  IZ2 d   1      19.186  16.655  82.344  0.00  0.00     0.096 C 
ATOM     17  C2  IZ2 d   1      20.497  17.157  81.838  0.00  0.00     0.032 C 
ATOM     18  C3  IZ2 d   1      21.582  16.444  82.562  0.00  0.00     0.232 C 
ATOM     19  H2  IZ2 d   1      20.576  18.239  82.021  0.00  0.00     0.049 H 
ATOM     20  H3  IZ2 d   1      20.579  16.961  80.759  0.00  0.00     0.049 H 
ATOM     21  N4  IZ2 d   1      21.225  15.255  83.064  0.00  0.00    -0.254 N 
ATOM     22  O9  IZ2 d   1      22.703  16.868  82.733  0.00  0.00    -0.273 OA
ATOM     23  S5  IZ2 d   1      19.538  14.924  82.629  0.00  0.00     0.241 S 
ATOM     24  H4  IZ2 d   1      21.815  14.650  83.599  0.00  0.00     0.181 HD
ATOM     25  O6  IZ2 d   1      18.563  14.407  83.840  0.00  0.00    -0.205 OA
ATOM     26  O7  IZ2 d   1      19.315  14.085  81.256  0.00  0.00    -0.205 OA
ATOM     27  H1  IZ2 d   1      18.966  17.153  83.300  0.00  0.00     0.075 H 
ENDBRANCH  10  16
ENDBRANCH   3   6
ENDBRANCH   1   3
BRANCH   1  28
ATOM     28  N45 IZ2 d   1      12.434  18.790  78.410  0.00  0.00    -0.303 N 
ATOM     29  H12 IZ2 d   1      12.227  18.085  77.732  0.00  0.00     0.173 HD
BRANCH  28  30
ATOM     30  S1  IZ2 d   1      11.317  20.077  78.767  0.00  0.00     0.259 S 
ATOM     31  O1  IZ2 d   1       9.706  19.533  78.775  0.00  0.00    -0.201 OA
ATOM     32  O2  IZ2 d   1      11.851  20.948  80.138  0.00  0.00    -0.201 OA
BRANCH  30  33
ATOM     33  C8  IZ2 d   1      11.664  21.251  77.463  0.00  0.00     0.080 A 
ATOM     34  C7  IZ2 d   1      12.403  22.492  77.735  0.00  0.00    -0.060 A 
ATOM     35  C24 IZ2 d   1      12.702  23.421  76.643  0.00  0.00    -0.081 A 
ATOM     36  H24 IZ2 d   1      12.727  22.720  78.744  0.00  0.00     0.085 H 
ATOM     37  C26 IZ2 d   1      12.261  23.112  75.280  0.00  0.00    -0.068 A 
ATOM     38  H22 IZ2 d   1      13.249  24.336  76.843  0.00  0.00     0.083 H 
ATOM     39  C10 IZ2 d   1      11.517  21.869  75.011  0.00  0.00     0.049 A 
ATOM     40  H23 IZ2 d   1      12.482  23.798  74.470  0.00  0.00     0.084 H 
ATOM     41  C9  IZ2 d   1      11.221  20.942  76.103  0.00  0.00    -0.046 A 
ATOM     42  H25 IZ2 d   1      10.674  20.027  75.905  0.00  0.00     0.087 H 
BRANCH  39  43
ATOM     43  C29 IZ2 d   1      11.056  21.543  73.667  0.00  0.00     0.417 C 
ATOM     44  F4  IZ2 d   1      12.257  21.386  72.834  0.00  0.00    -0.166 F 
ATOM     45  F6  IZ2 d   1      10.187  22.616  73.144  0.00  0.00    -0.166 F 
ATOM     46  F5  IZ2 d   1      10.181  20.340  73.474  0.00  0.00    -0.166 F 
ENDBRANCH  39  43
ENDBRANCH  30  33
ENDBRANCH  28  30
ENDBRANCH   1  28
BRANCH   1  47
ATOM     47  C25 IZ2 d   1      14.619  19.915  78.653  0.00  0.00     0.127 A 
ATOM     48  N11 IZ2 d   1      15.339  20.911  79.343  0.00  0.00    -0.345 N 
ATOM     49  C23 IZ2 d   1      16.051  21.548  78.303  0.00  0.00     0.032 A 
ATOM     50  H14 IZ2 d   1      15.345  21.121  80.351  0.00  0.00     0.167 HD
ATOM     51  C4  IZ2 d   1      15.781  20.978  76.995  0.00  0.00     0.026 A 
ATOM     52  N13 IZ2 d   1      14.862  19.944  77.266  0.00  0.00    -0.243 NA
ATOM     53  H13 IZ2 d   1      16.192  21.278  76.032  0.00  0.00     0.117 H 
BRANCH  49  54
ATOM     54  C5  IZ2 d   1      17.002  22.698  78.582  0.00  0.00    -0.002 C 
ATOM     55  H15 IZ2 d   1      17.449  22.546  79.576  0.00  0.00     0.049 H 
ATOM     56  H16 IZ2 d   1      16.424  23.634  78.579  0.00  0.00     0.049 H 
BRANCH  54  57
ATOM     57  C20 IZ2 d   1      18.127  22.825  77.564  0.00  0.00    -0.052 A 
ATOM     58  C19 IZ2 d   1      18.230  24.032  76.731  0.00  0.00    -0.076 A 
ATOM     59  C18 IZ2 d   1      19.329  24.166  75.768  0.00  0.00    -0.082 A 
ATOM     60  H19 IZ2 d   1      17.495  24.822  76.828  0.00  0.00     0.084 H 
ATOM     61  C17 IZ2 d   1      20.326  23.093  75.636  0.00  0.00    -0.083 A 
ATOM     62  H18 IZ2 d   1      19.406  25.056  75.154  0.00  0.00     0.083 H 
ATOM     63  C6  IZ2 d   1      20.223  21.884  76.467  0.00  0.00    -0.082 A 
ATOM     64  H17 IZ2 d   1      21.138  23.193  74.925  0.00  0.00     0.083 H 
ATOM     65  C27 IZ2 d   1      19.127  21.748  77.429  0.00  0.00    -0.076 A 
ATOM     66  H21 IZ2 d   1      20.958  21.094  76.368  0.00  0.00     0.083 H 
ATOM     67  H20 IZ2 d   1      19.050  20.857  78.041  0.00  0.00     0.084 H 
ENDBRANCH  54  57
ENDBRANCH  49  54
ENDBRANCH   1  47
TORSDOF 10
