REMARK  9 active torsions:
REMARK  status: ('A' for Active; 'I' for Inactive)
REMARK    1  A    between atoms: C11_9  and  C1_1 
REMARK    2  A    between atoms: C21_15  and  C14_12 
REMARK    3  A    between atoms: C22_16  and  C21_15 
REMARK    4  A    between atoms: C22_16  and  N45_17 
REMARK    5  A    between atoms: C25_24  and  C22_16 
REMARK    6  A    between atoms: N45_17  and  S1_18 
REMARK    7  A    between atoms: S1_18  and  C8_30 
REMARK    8  A    between atoms: C18_39  and  C23_21 
REMARK    9  A    between atoms: C27_36  and  C18_39 
ROOT
ATOM      1  C22 IZ3 d   1      13.717  18.817  78.901  0.00  0.00     0.080 C 
ATOM      2  H11 IZ3 d   1      13.614  19.120  79.953  0.00  0.00     0.086 H 
ENDROOT
BRANCH   1   3
ATOM      3  C21 IZ3 d   1      14.302  17.398  78.837  0.00  0.00    -0.015 C 
ATOM      4  H9  IZ3 d   1      13.533  16.690  79.179  0.00  0.00     0.043 H 
ATOM      5  H10 IZ3 d   1      14.565  17.178  77.792  0.00  0.00     0.043 H 
BRANCH   3   6
ATOM      6  C14 IZ3 d   1      15.527  17.211  79.683  0.00  0.00    -0.056 A 
ATOM      7  C13 IZ3 d   1      16.812  16.892  79.052  0.00  0.00    -0.076 A 
ATOM      8  C12 IZ3 d   1      17.999  16.679  79.880  0.00  0.00    -0.075 A 
ATOM      9  H6  IZ3 d   1      16.882  16.814  77.973  0.00  0.00     0.084 H 
ATOM     10  C11 IZ3 d   1      17.906  16.814  81.331  0.00  0.00    -0.037 A 
ATOM     11  H5  IZ3 d   1      18.945  16.422  79.418  0.00  0.00     0.084 H 
ATOM     12  C16 IZ3 d   1      16.617  17.147  81.962  0.00  0.00    -0.075 A 
ATOM     13  C15 IZ3 d   1      15.436  17.345  81.140  0.00  0.00    -0.076 A 
ATOM     14  H8  IZ3 d   1      16.550  17.244  83.040  0.00  0.00     0.084 H 
ATOM     15  H7  IZ3 d   1      14.488  17.592  81.604  0.00  0.00     0.084 H 
BRANCH  10  16
ATOM     16  C1  IZ3 d   1      19.137  16.613  82.196  0.00  0.00     0.096 C 
ATOM     17  C2  IZ3 d   1      20.441  17.132  81.655  0.00  0.00     0.032 C 
ATOM     18  C3  IZ3 d   1      21.563  16.394  82.311  0.00  0.00     0.232 C 
ATOM     19  H2  IZ3 d   1      20.529  18.207  81.871  0.00  0.00     0.049 H 
ATOM     20  H3  IZ3 d   1      20.480  16.972  80.567  0.00  0.00     0.049 H 
ATOM     21  N4  IZ3 d   1      21.231  15.192  82.795  0.00  0.00    -0.254 N 
ATOM     22  O9  IZ3 d   1      22.695  16.827  82.446  0.00  0.00    -0.273 OA
ATOM     23  S5  IZ3 d   1      19.483  14.876  82.506  0.00  0.00     0.241 S 
ATOM     24  H4  IZ3 d   1      21.861  14.562  83.250  0.00  0.00     0.181 HD
ATOM     25  O6  IZ3 d   1      18.516  14.307  83.683  0.00  0.00    -0.205 OA
ATOM     26  O7  IZ3 d   1      19.277  14.018  81.072  0.00  0.00    -0.205 OA
ATOM     27  H1  IZ3 d   1      18.934  17.118  83.152  0.00  0.00     0.075 H 
ENDBRANCH  10  16
ENDBRANCH   3   6
ENDBRANCH   1   3
BRANCH   1  28
ATOM     28  N45 IZ3 d   1      12.384  18.757  78.287  0.00  0.00    -0.303 N 
ATOM     29  H12 IZ3 d   1      12.122  17.994  77.696  0.00  0.00     0.173 HD
BRANCH  28  30
ATOM     30  S1  IZ3 d   1      11.274  20.056  78.621  0.00  0.00     0.259 S 
ATOM     31  O1  IZ3 d   1       9.821  19.348  78.134  0.00  0.00    -0.201 OA
ATOM     32  O2  IZ3 d   1      11.483  20.481  80.235  0.00  0.00    -0.201 OA
BRANCH  30  33
ATOM     33  C8  IZ3 d   1      11.914  21.497  77.819  0.00  0.00     0.082 A 
ATOM     34  C7  IZ3 d   1      11.608  21.591  76.397  0.00  0.00    -0.023 A 
ATOM     35  C24 IZ3 d   1      12.120  22.709  75.616  0.00  0.00     0.117 A 
ATOM     36  H18 IZ3 d   1      11.000  20.830  75.921  0.00  0.00     0.090 H 
ATOM     37  F1  IZ3 d   1      11.731  22.606  74.221  0.00  0.00    -0.206 F 
ATOM     38  C26 IZ3 d   1      12.921  23.757  76.263  0.00  0.00    -0.046 A 
ATOM     39  C10 IZ3 d   1      13.204  23.680  77.699  0.00  0.00    -0.079 A 
ATOM     40  H17 IZ3 d   1      13.302  24.587  75.679  0.00  0.00     0.088 H 
ATOM     41  C9  IZ3 d   1      12.700  22.550  78.478  0.00  0.00    -0.060 A 
ATOM     42  H20 IZ3 d   1      13.785  24.458  78.182  0.00  0.00     0.083 H 
ATOM     43  H19 IZ3 d   1      12.906  22.489  79.540  0.00  0.00     0.085 H 
ENDBRANCH  30  33
ENDBRANCH  28  30
ENDBRANCH   1  28
BRANCH   1  44
ATOM     44  C25 IZ3 d   1      14.636  19.830  78.196  0.00  0.00     0.118 C 
ATOM     45  N11 IZ3 d   1      14.654  19.882  76.853  0.00  0.00    -0.268 NA
ATOM     46  C23 IZ3 d   1      15.811  20.733  76.548  0.00  0.00     0.053 C 
ATOM     47  C4  IZ3 d   1      16.253  21.270  77.886  0.00  0.00     0.015 C 
ATOM     48  H13 IZ3 d   1      15.537  21.554  75.869  0.00  0.00     0.079 H 
ATOM     49  N13 IZ3 d   1      15.455  20.604  78.929  0.00  0.00    -0.375 N 
ATOM     50  H14 IZ3 d   1      16.087  22.357  77.926  0.00  0.00     0.067 H 
ATOM     51  H15 IZ3 d   1      17.321  21.056  78.040  0.00  0.00     0.067 H 
ATOM     52  H16 IZ3 d   1      15.510  20.705  79.953  0.00  0.00     0.160 HD
BRANCH  46  53
ATOM     53  C18 IZ3 d   1      16.900  19.859  75.904  0.00  0.00    -0.016 C 
ATOM     54  H25 IZ3 d   1      17.176  19.063  76.611  0.00  0.00     0.043 H 
ATOM     55  H26 IZ3 d   1      17.779  20.487  75.697  0.00  0.00     0.043 H 
BRANCH  53  56
ATOM     56  C27 IZ3 d   1      16.444  19.218  74.604  0.00  0.00    -0.018 A 
ATOM     57  C20 IZ3 d   1      16.339  20.027  73.383  0.00  0.00    -0.074 A 
ATOM     58  C19 IZ3 d   1      15.863  19.413  72.138  0.00  0.00    -0.082 A 
ATOM     59  H23 IZ3 d   1      16.613  21.076  73.401  0.00  0.00     0.084 H 
ATOM     60  C17 IZ3 d   1      15.498  17.988  72.113  0.00  0.00    -0.080 A 
ATOM     61  H22 IZ3 d   1      15.780  20.009  71.237  0.00  0.00     0.083 H 
ATOM     62  C6  IZ3 d   1      15.630  17.175  73.329  0.00  0.00    -0.045 A 
ATOM     63  H21 IZ3 d   1      15.132  17.538  71.197  0.00  0.00     0.083 H 
ATOM     64  C5  IZ3 d   1      16.104  17.790  74.570  0.00  0.00     0.122 A 
ATOM     65  H24 IZ3 d   1      15.377  16.121  73.308  0.00  0.00     0.088 H 
ATOM     66  F2  IZ3 d   1      16.253  17.029  75.794  0.00  0.00    -0.206 F 
ENDBRANCH  53  56
ENDBRANCH  46  53
ENDBRANCH   1  44
TORSDOF 9
