REMARK  10 active torsions:
REMARK  status: ('A' for Active; 'I' for Inactive)
REMARK    1  A    between atoms: C11_9  and  C1_1 
REMARK    2  A    between atoms: C21_15  and  C14_12 
REMARK    3  A    between atoms: C22_16  and  C21_15 
REMARK    4  A    between atoms: N45_17  and  C22_16 
REMARK    5  A    between atoms: C22_16  and  C25_24 
REMARK    6  A    between atoms: S1_18  and  N45_17 
REMARK    7  A    between atoms: C8_30  and  S1_18 
REMARK    8  A    between atoms: C23_21  and  C18_34 
REMARK    9  A    between atoms: C18_34  and  C27_33 
REMARK   10  A    between atoms: C27_33  and  C19_36 
ROOT
ATOM      1  C22 IZ4 d   1      13.567  18.829  78.895  0.00  0.00     0.080 C 
ATOM      2  H11 IZ4 d   1      13.485  19.166  79.939  0.00  0.00     0.086 H 
ENDROOT
BRANCH   1   3
ATOM      3  C21 IZ4 d   1      14.124  17.392  78.830  0.00  0.00    -0.015 C 
ATOM      4  H9  IZ4 d   1      13.350  16.699  79.191  0.00  0.00     0.043 H 
ATOM      5  H10 IZ4 d   1      14.367  17.157  77.783  0.00  0.00     0.043 H 
BRANCH   3   6
ATOM      6  C14 IZ4 d   1      15.360  17.208  79.663  0.00  0.00    -0.056 A 
ATOM      7  C13 IZ4 d   1      16.638  16.857  79.020  0.00  0.00    -0.076 A 
ATOM      8  C12 IZ4 d   1      17.846  16.682  79.845  0.00  0.00    -0.075 A 
ATOM      9  H6  IZ4 d   1      16.689  16.728  77.945  0.00  0.00     0.084 H 
ATOM     10  C11 IZ4 d   1      17.765  16.856  81.300  0.00  0.00    -0.037 A 
ATOM     11  H5  IZ4 d   1      18.791  16.426  79.379  0.00  0.00     0.084 H 
ATOM     12  C16 IZ4 d   1      16.493  17.204  81.931  0.00  0.00    -0.075 A 
ATOM     13  C15 IZ4 d   1      15.290  17.379  81.111  0.00  0.00    -0.076 A 
ATOM     14  H8  IZ4 d   1      16.439  17.333  83.006  0.00  0.00     0.084 H 
ATOM     15  H7  IZ4 d   1      14.347  17.636  81.581  0.00  0.00     0.084 H 
BRANCH  10  16
ATOM     16  C1  IZ4 d   1      18.995  16.681  82.154  0.00  0.00     0.096 C 
ATOM     17  C2  IZ4 d   1      20.268  17.303  81.654  0.00  0.00     0.032 C 
ATOM     18  C3  IZ4 d   1      21.418  16.620  82.303  0.00  0.00     0.232 C 
ATOM     19  H2  IZ4 d   1      20.282  18.373  81.908  0.00  0.00     0.049 H 
ATOM     20  H3  IZ4 d   1      20.335  17.184  80.562  0.00  0.00     0.049 H 
ATOM     21  N4  IZ4 d   1      21.144  15.382  82.714  0.00  0.00    -0.254 N 
ATOM     22  O9  IZ4 d   1      22.523  17.125  82.498  0.00  0.00    -0.273 OA
ATOM     23  S5  IZ4 d   1      19.400  14.948  82.438  0.00  0.00     0.241 S 
ATOM     24  H4  IZ4 d   1      21.817  14.766  83.125  0.00  0.00     0.181 HD
ATOM     25  O6  IZ4 d   1      18.454  14.575  83.776  0.00  0.00    -0.205 OA
ATOM     26  O7  IZ4 d   1      18.989  14.149  81.015  0.00  0.00    -0.205 OA
ATOM     27  H1  IZ4 d   1      18.760  17.145  83.123  0.00  0.00     0.075 H 
ENDBRANCH  10  16
ENDBRANCH   3   6
ENDBRANCH   1   3
BRANCH   1  28
ATOM     28  N45 IZ4 d   1      12.237  18.814  78.266  0.00  0.00    -0.303 N 
ATOM     29  H12 IZ4 d   1      11.967  18.043  77.690  0.00  0.00     0.173 HD
BRANCH  28  30
ATOM     30  S1  IZ4 d   1      11.125  20.144  78.523  0.00  0.00     0.259 S 
ATOM     31  O1  IZ4 d   1       9.607  19.450  78.137  0.00  0.00    -0.201 OA
ATOM     32  O2  IZ4 d   1      11.284  20.644  80.127  0.00  0.00    -0.201 OA
BRANCH  30  33
ATOM     33  C8  IZ4 d   1      11.644  21.406  77.384  0.00  0.00     0.082 A 
ATOM     34  C7  IZ4 d   1      11.175  21.377  76.007  0.00  0.00    -0.023 A 
ATOM     35  C24 IZ4 d   1      11.606  22.407  75.068  0.00  0.00     0.117 A 
ATOM     36  H18 IZ4 d   1      10.505  20.590  75.679  0.00  0.00     0.090 H 
ATOM     37  F1  IZ4 d   1      11.146  22.371  73.698  0.00  0.00    -0.206 F 
ATOM     38  C26 IZ4 d   1      12.511  23.475  75.508  0.00  0.00    -0.046 A 
ATOM     39  C10 IZ4 d   1      12.983  23.506  76.891  0.00  0.00    -0.079 A 
ATOM     40  H17 IZ4 d   1      12.829  24.240  74.808  0.00  0.00     0.088 H 
ATOM     41  C9  IZ4 d   1      12.551  22.471  77.831  0.00  0.00    -0.060 A 
ATOM     42  H20 IZ4 d   1      13.651  24.294  77.219  0.00  0.00     0.083 H 
ATOM     43  H19 IZ4 d   1      12.900  22.490  78.857  0.00  0.00     0.085 H 
ENDBRANCH  30  33
ENDBRANCH  28  30
ENDBRANCH   1  28
BRANCH   1  44
ATOM     44  C25 IZ4 d   1      14.528  19.740  78.127  0.00  0.00     0.118 A 
ATOM     45  N11 IZ4 d   1      14.477  19.653  76.717  0.00  0.00    -0.268 NA
ATOM     46  C23 IZ4 d   1      15.536  20.545  76.235  0.00  0.00     0.050 A 
ATOM     47  C4  IZ4 d   1      16.173  21.139  77.481  0.00  0.00     0.015 A 
ATOM     48  H13 IZ4 d   1      15.129  21.341  75.594  0.00  0.00     0.078 H 
ATOM     49  N13 IZ4 d   1      15.468  20.639  78.682  0.00  0.00    -0.375 N 
ATOM     50  H14 IZ4 d   1      16.100  22.236  77.443  0.00  0.00     0.067 H 
ATOM     51  H15 IZ4 d   1      17.232  20.844  77.528  0.00  0.00     0.067 H 
ATOM     52  H16 IZ4 d   1      15.623  20.884  79.671  0.00  0.00     0.160 HD
BRANCH  46  53
ATOM     53  C18 IZ4 d   1      16.536  19.680  75.440  0.00  0.00    -0.039 C 
ATOM     54  H23 IZ4 d   1      16.890  18.863  76.085  0.00  0.00     0.036 H 
ATOM     55  H24 IZ4 d   1      17.389  20.307  75.142  0.00  0.00     0.036 H 
BRANCH  53  56
ATOM     56  C27 IZ4 d   1      15.907  19.083  74.193  0.00  0.00    -0.039 C 
ATOM     57  H21 IZ4 d   1      16.053  19.798  73.370  0.00  0.00     0.040 H 
ATOM     58  H22 IZ4 d   1      14.831  18.962  74.386  0.00  0.00     0.040 H 
BRANCH  56  59
ATOM     59  C19 IZ4 d   1      16.450  17.737  73.739  0.00  0.00    -0.058 A 
ATOM     60  C17 IZ4 d   1      17.729  17.667  73.016  0.00  0.00    -0.077 A 
ATOM     61  C6  IZ4 d   1      18.242  16.372  72.556  0.00  0.00    -0.082 A 
ATOM     62  H25 IZ4 d   1      18.293  18.573  72.823  0.00  0.00     0.084 H 
ATOM     63  C5  IZ4 d   1      17.480  15.147  72.819  0.00  0.00    -0.083 A 
ATOM     64  H29 IZ4 d   1      19.184  16.321  72.022  0.00  0.00     0.083 H 
ATOM     65  C28 IZ4 d   1      16.201  15.211  73.546  0.00  0.00    -0.082 A 
ATOM     66  H28 IZ4 d   1      17.860  14.191  72.477  0.00  0.00     0.083 H 
ATOM     67  C20 IZ4 d   1      15.686  16.506  74.006  0.00  0.00    -0.077 A 
ATOM     68  H27 IZ4 d   1      15.641  14.303  73.741  0.00  0.00     0.083 H 
ATOM     69  H26 IZ4 d   1      14.745  16.557  74.541  0.00  0.00     0.084 H 
ENDBRANCH  56  59
ENDBRANCH  53  56
ENDBRANCH  46  53
ENDBRANCH   1  44
TORSDOF 10
