REMARK  11 active torsions:
REMARK  status: ('A' for Active; 'I' for Inactive)
REMARK    1  A    between atoms: C11_9  and  C1_1 
REMARK    2  A    between atoms: C21_15  and  C14_12 
REMARK    3  A    between atoms: C22_16  and  C21_15 
REMARK    4  A    between atoms: C22_16  and  N45_17 
REMARK    5  A    between atoms: C25_24  and  C22_16 
REMARK    6  A    between atoms: N45_17  and  S1_18 
REMARK    7  A    between atoms: S1_18  and  C8_29 
REMARK    8  A    between atoms: C5_32  and  C23_21 
REMARK    9  A    between atoms: C30_40  and  C5_32 
REMARK   10  A    between atoms: C29_41  and  C27_37 
REMARK   11  A    between atoms: C30_40  and  C29_41 
ROOT
ATOM      1  C22 IZ5 d   1      13.871  18.886  78.728  0.00  0.00     0.081 C 
ATOM      2  H11 IZ5 d   1      13.799  19.147  79.794  0.00  0.00     0.086 H 
ENDROOT
BRANCH   1   3
ATOM      3  C21 IZ5 d   1      14.403  17.461  78.576  0.00  0.00    -0.015 C 
ATOM      4  H9  IZ5 d   1      13.627  16.755  78.905  0.00  0.00     0.043 H 
ATOM      5  H10 IZ5 d   1      14.638  17.280  77.517  0.00  0.00     0.043 H 
BRANCH   3   6
ATOM      6  C14 IZ5 d   1      15.647  17.235  79.397  0.00  0.00    -0.056 A 
ATOM      7  C13 IZ5 d   1      16.941  16.986  78.750  0.00  0.00    -0.076 A 
ATOM      8  C12 IZ5 d   1      18.131  16.745  79.581  0.00  0.00    -0.075 A 
ATOM      9  H6  IZ5 d   1      17.019  16.980  77.669  0.00  0.00     0.084 H 
ATOM     10  C11 IZ5 d   1      18.008  16.767  81.046  0.00  0.00    -0.037 A 
ATOM     11  H5  IZ5 d   1      19.091  16.553  79.117  0.00  0.00     0.084 H 
ATOM     12  C16 IZ5 d   1      16.705  17.024  81.679  0.00  0.00    -0.075 A 
ATOM     13  C15 IZ5 d   1      15.524  17.256  80.856  0.00  0.00    -0.076 A 
ATOM     14  H8  IZ5 d   1      16.623  17.041  82.760  0.00  0.00     0.084 H 
ATOM     15  H7  IZ5 d   1      14.562  17.443  81.320  0.00  0.00     0.084 H 
BRANCH  10  16
ATOM     16  C1  IZ5 d   1      19.235  16.550  81.916  0.00  0.00     0.096 C 
ATOM     17  C2  IZ5 d   1      20.530  17.103  81.393  0.00  0.00     0.032 C 
ATOM     18  C3  IZ5 d   1      21.651  16.395  82.047  0.00  0.00     0.232 C 
ATOM     19  H2  IZ5 d   1      20.590  18.178  81.618  0.00  0.00     0.049 H 
ATOM     20  H3  IZ5 d   1      20.583  16.953  80.305  0.00  0.00     0.049 H 
ATOM     21  N4  IZ5 d   1      21.311  15.234  82.611  0.00  0.00    -0.254 N 
ATOM     22  O9  IZ5 d   1      22.803  16.801  82.083  0.00  0.00    -0.273 OA
ATOM     23  S5  IZ5 d   1      19.570  14.827  82.238  0.00  0.00     0.241 S 
ATOM     24  H4  IZ5 d   1      21.924  14.666  83.161  0.00  0.00     0.181 HD
ATOM     25  O6  IZ5 d   1      18.734  14.262  83.570  0.00  0.00    -0.205 OA
ATOM     26  O7  IZ5 d   1      19.333  14.046  80.734  0.00  0.00    -0.205 OA
ATOM     27  H1  IZ5 d   1      19.022  17.047  82.874  0.00  0.00     0.075 H 
ENDBRANCH  10  16
ENDBRANCH   3   6
ENDBRANCH   1   3
BRANCH   1  28
ATOM     28  N45 IZ5 d   1      12.553  18.941  78.112  0.00  0.00    -0.303 N 
ATOM     29  H12 IZ5 d   1      12.210  18.172  77.572  0.00  0.00     0.173 HD
BRANCH  28  30
ATOM     30  S1  IZ5 d   1      11.596  20.359  78.332  0.00  0.00     0.259 S 
ATOM     31  O1  IZ5 d   1      10.051  19.656  77.947  0.00  0.00    -0.201 OA
ATOM     32  O2  IZ5 d   1      11.849  20.817  79.940  0.00  0.00    -0.201 OA
BRANCH  30  33
ATOM     33  C8  IZ5 d   1      11.990  21.489  77.028  0.00  0.00     0.082 A 
ATOM     34  C7  IZ5 d   1      12.967  22.553  77.250  0.00  0.00    -0.060 A 
ATOM     35  C24 IZ5 d   1      13.316  23.466  76.153  0.00  0.00    -0.079 A 
ATOM     36  H17 IZ5 d   1      13.433  22.668  78.222  0.00  0.00     0.085 H 
ATOM     37  C26 IZ5 d   1      12.672  23.298  74.844  0.00  0.00    -0.046 A 
ATOM     38  H15 IZ5 d   1      14.042  24.256  76.308  0.00  0.00     0.083 H 
ATOM     39  C10 IZ5 d   1      11.693  22.229  74.639  0.00  0.00     0.117 A 
ATOM     40  H16 IZ5 d   1      12.922  23.967  74.028  0.00  0.00     0.088 H 
ATOM     41  C9  IZ5 d   1      11.346  21.323  75.729  0.00  0.00    -0.023 A 
ATOM     42  F1  IZ5 d   1      11.075  22.047  73.337  0.00  0.00    -0.206 F 
ATOM     43  H18 IZ5 d   1      10.618  20.535  75.575  0.00  0.00     0.090 H 
ENDBRANCH  30  33
ENDBRANCH  28  30
ENDBRANCH   1  28
BRANCH   1  44
ATOM     44  C25 IZ5 d   1      14.794  19.862  78.027  0.00  0.00     0.127 A 
ATOM     45  N11 IZ5 d   1      14.917  19.830  76.623  0.00  0.00    -0.345 N 
ATOM     46  C23 IZ5 d   1      15.871  20.814  76.295  0.00  0.00     0.028 A 
ATOM     47  H14 IZ5 d   1      14.413  19.213  75.970  0.00  0.00     0.167 HD
ATOM     48  C4  IZ5 d   1      16.334  21.453  77.503  0.00  0.00     0.026 A 
ATOM     49  N13 IZ5 d   1      15.642  20.842  78.575  0.00  0.00    -0.243 NA
ATOM     50  H13 IZ5 d   1      17.072  22.250  77.575  0.00  0.00     0.117 H 
BRANCH  46  51
ATOM     51  C5  IZ5 d   1      16.310  21.122  74.878  0.00  0.00    -0.025 C 
ATOM     52  H19 IZ5 d   1      17.293  21.615  74.912  0.00  0.00     0.042 H 
ATOM     53  H20 IZ5 d   1      15.575  21.801  74.420  0.00  0.00     0.042 H 
BRANCH  51  54
ATOM     54  C30 IZ5 d   1      16.421  19.863  74.014  0.00  0.00    -0.056 C 
ATOM     55  H26 IZ5 d   1      16.762  20.149  73.008  0.00  0.00     0.034 H 
ATOM     56  H27 IZ5 d   1      15.431  19.389  73.945  0.00  0.00     0.034 H 
BRANCH  54  57
ATOM     57  C29 IZ5 d   1      17.412  18.857  74.606  0.00  0.00    -0.041 C 
ATOM     58  H28 IZ5 d   1      18.407  19.324  74.651  0.00  0.00     0.040 H 
ATOM     59  H29 IZ5 d   1      17.085  18.593  75.622  0.00  0.00     0.040 H 
BRANCH  57  60
ATOM     60  C27 IZ5 d   1      17.502  17.605  73.786  0.00  0.00    -0.058 A 
ATOM     61  C20 IZ5 d   1      18.511  17.510  72.720  0.00  0.00    -0.077 A 
ATOM     62  C19 IZ5 d   1      18.573  16.303  71.895  0.00  0.00    -0.082 A 
ATOM     63  H24 IZ5 d   1      19.202  18.327  72.547  0.00  0.00     0.084 H 
ATOM     64  C18 IZ5 d   1      17.625  15.202  72.146  0.00  0.00    -0.083 A 
ATOM     65  H23 IZ5 d   1      19.311  16.219  71.105  0.00  0.00     0.083 H 
ATOM     66  C17 IZ5 d   1      16.621  15.297  73.215  0.00  0.00    -0.082 A 
ATOM     67  H22 IZ5 d   1      17.669  14.309  71.533  0.00  0.00     0.083 H 
ATOM     68  C6  IZ5 d   1      16.559  16.504  74.041  0.00  0.00    -0.077 A 
ATOM     69  H21 IZ5 d   1      15.931  14.479  73.391  0.00  0.00     0.083 H 
ATOM     70  H25 IZ5 d   1      15.825  16.586  74.834  0.00  0.00     0.084 H 
ENDBRANCH  57  60
ENDBRANCH  54  57
ENDBRANCH  51  54
ENDBRANCH  46  51
ENDBRANCH   1  44
TORSDOF 11
