REMARK  5 active torsions:
REMARK  status: ('A' for Active; 'I' for Inactive)
REMARK    1  A    between atoms: O_1  and  C9_2 
REMARK    2  A    between atoms: C9_2  and  C8_3 
REMARK    3  A    between atoms: C9_2  and  P1_13 
REMARK    4  A    between atoms: C9_2  and  P2_17 
REMARK    5  A    between atoms: C8_3  and  C2_4 
ROOT
ATOM      1  C2  M0N d   1      15.004 -31.864  25.806  0.00  0.00     0.039 A 
ATOM      2  C1  M0N d   1      14.295 -31.615  26.974  0.00  0.00     0.027 A 
ATOM      3  N1  M0N d   1      14.243 -30.224  27.153  0.00  0.00    -0.241 NA
ATOM      4  C7  M0N d   1      14.923 -29.632  26.090  0.00  0.00     0.133 A 
ATOM      5  C6  M0N d   1      15.170 -28.290  25.782  0.00  0.00    -0.038 A 
ATOM      6  C5  M0N d   1      15.892 -27.996  24.615  0.00  0.00    -0.078 A 
ATOM      7  C4  M0N d   1      16.364 -29.038  23.805  0.00  0.00    -0.067 A 
ATOM      8  C3  M0N d   1      16.097 -30.378  24.125  0.00  0.00    -0.013 A 
ATOM      9  N2  M0N d   1      15.367 -30.634  25.259  0.00  0.00    -0.309 N 
ATOM     10  H4  M0N d   1      13.858 -32.364  27.633  0.00  0.00     0.117 H 
ATOM     11  H5  M0N d   1      14.811 -27.493  26.432  0.00  0.00     0.089 H 
ATOM     12  H6  M0N d   1      16.085 -26.960  24.339  0.00  0.00     0.083 H 
ATOM     13  H7  M0N d   1      16.946 -28.804  22.915  0.00  0.00     0.085 H 
ATOM     14  H8  M0N d   1      16.457 -31.189  23.494  0.00  0.00     0.112 H 
ENDROOT
BRANCH   1  15
ATOM     15  C8  M0N d   1      15.368 -33.161  25.157  0.00  0.00     0.030 C 
ATOM     16  H2  M0N d   1      14.638 -33.358  24.358  0.00  0.00     0.049 H 
ATOM     17  H3  M0N d   1      16.371 -33.052  24.719  0.00  0.00     0.049 H 
BRANCH  15  18
ATOM     18  C9  M0N d   1      15.388 -34.362  26.079  0.00  0.00     0.290 C 
BRANCH  18  19
ATOM     19  O   M0N d   1      14.140 -34.449  26.759  0.00  0.00    -0.365 OA
ATOM     20  H1  M0N d   1      14.142 -35.212  27.325  0.00  0.00     0.212 HD
ENDBRANCH  18  19
BRANCH  18  21
ATOM     21  P1  M0N d   1      16.749 -34.212  27.286  0.00  0.00     0.310 P 
ATOM     22  O2  M0N d   1      18.055 -34.048  26.542  0.00  0.00    -0.637 OA
ATOM     23  O3  M0N d   1      16.545 -33.018  28.182  0.00  0.00    -0.637 OA
ATOM     24  O1  M0N d   1      16.795 -35.465  28.143  0.00  0.00    -0.637 OA
ENDBRANCH  18  21
BRANCH  18  25
ATOM     25  P2  M0N d   1      15.640 -35.864  25.089  0.00  0.00     0.310 P 
ATOM     26  O5  M0N d   1      17.007 -35.807  24.416  0.00  0.00    -0.637 OA
ATOM     27  O6  M0N d   1      14.666 -35.862  23.962  0.00  0.00    -0.637 OA
ATOM     28  O4  M0N d   1      15.592 -37.055  26.022  0.00  0.00    -0.637 OA
ENDBRANCH  18  25
ENDBRANCH  15  18
ENDBRANCH   1  15
TORSDOF 5
