REMARK  14 active torsions:
REMARK  status: ('A' for Active; 'I' for Inactive)
REMARK    1  A    between atoms: N1_1  and  C1D_9 
REMARK    2  A    between atoms: C2D_10  and  O2'_11 
REMARK    3  A    between atoms: C3D_12  and  O3D_15 
REMARK    4  A    between atoms: C4D_13  and  C5D_16 
REMARK    5  A    between atoms: C5D_16  and  O5D_17 
REMARK    6  A    between atoms: O5D_17  and  PA_18 
REMARK    7  A    between atoms: PA_18  and  O3A_21 
REMARK    8  A    between atoms: O3A_21  and  PB_22 
REMARK    9  A    between atoms: PB_22  and  O3B_25 
REMARK   10  A    between atoms: O3B_25  and  C1'_26 
REMARK   11  A    between atoms: C3'_28  and  O3'_33 
REMARK   12  A    between atoms: C4'_29  and  O4'_34 
REMARK   13  A    between atoms: C5'_30  and  C6'_31 
REMARK   14  A    between atoms: C6'_31  and  O6'_36 
ROOT
ATOM      1  PA  UPF d   1      -2.046  11.353  -6.879  0.00  0.00     0.417 P 
ATOM      2  O1A UPF d   1      -0.808  10.601  -7.040  0.00  0.00    -0.624 OA
ATOM      3  O2A UPF d   1      -2.229  12.538  -7.772  0.00  0.00    -0.624 OA
ENDROOT
BRANCH   1   4
ATOM      4  O5D UPF d   1      -3.311  10.407  -7.118  0.00  0.00    -0.287 OA
BRANCH   4   5
ATOM      5  C5D UPF d   1      -3.373   9.067  -6.561  0.00  0.00     0.058 C 
ATOM      6  H10 UPF d   1      -2.473   8.893  -5.953  0.00  0.00     0.079 H 
ATOM      7  H11 UPF d   1      -4.266   8.988  -5.924  0.00  0.00     0.079 H 
BRANCH   5   8
ATOM      8  C4D UPF d   1      -3.448   7.983  -7.664  0.00  0.00     0.089 C 
ATOM      9  C3D UPF d   1      -2.274   8.044  -8.656  0.00  0.00     0.091 C 
ATOM     10  C2D UPF d   1      -2.859   7.448  -9.909  0.00  0.00     0.105 C 
ATOM     11  H7  UPF d   1      -1.998   9.094  -8.832  0.00  0.00     0.091 H 
ATOM     12  C1D UPF d   1      -4.310   7.902  -9.887  0.00  0.00     0.141 C 
ATOM     13  H5  UPF d   1      -2.342   7.834 -10.800  0.00  0.00     0.093 H 
ATOM     14  O4D UPF d   1      -4.653   8.223  -8.491  0.00  0.00    -0.353 OA
ATOM     15  H4  UPF d   1      -4.963   7.090 -10.241  0.00  0.00     0.123 H 
ATOM     16  H8  UPF d   1      -3.489   6.990  -7.192  0.00  0.00     0.090 H 
BRANCH   9  17
ATOM     17  O3D UPF d   1      -1.108   7.356  -8.239  0.00  0.00    -0.390 OA
ATOM     18  H9  UPF d   1      -0.797   7.728  -7.422  0.00  0.00     0.210 HD
ENDBRANCH   9  17
BRANCH  10  19
ATOM     19  O2' UPF d   1      -2.776   6.012  -9.896  0.00  0.00    -0.388 OA
ATOM     20  H6  UPF d   1      -3.219   5.663 -10.661  0.00  0.00     0.210 HD
ENDBRANCH  10  19
BRANCH  12  21
ATOM     21  N1  UPF d   1      -4.461   9.113 -10.831  0.00  0.00    -0.280 N 
ATOM     22  C2  UPF d   1      -4.402   8.964 -12.256  0.00  0.00     0.331 A 
ATOM     23  N3  UPF d   1      -4.530  10.079 -13.102  0.00  0.00    -0.275 N 
ATOM     24  O2  UPF d   1      -4.214   7.842 -12.768  0.00  0.00    -0.246 OA
ATOM     25  C4  UPF d   1      -4.740  11.364 -12.544  0.00  0.00     0.250 A 
ATOM     26  H1  UPF d   1      -4.473   9.966 -14.094  0.00  0.00     0.173 HD
ATOM     27  C5  UPF d   1      -4.809  11.554 -11.145  0.00  0.00    -0.002 A 
ATOM     28  O4  UPF d   1      -4.858  12.326 -13.294  0.00  0.00    -0.268 OA
ATOM     29  C6  UPF d   1      -4.678  10.438 -10.300  0.00  0.00    -0.008 A 
ATOM     30  H2  UPF d   1      -4.961  12.549 -10.729  0.00  0.00     0.094 H 
ATOM     31  H3  UPF d   1      -4.742  10.576  -9.222  0.00  0.00     0.112 H 
ENDBRANCH  12  21
ENDBRANCH   5   8
ENDBRANCH   4   5
ENDBRANCH   1   4
BRANCH   1  32
ATOM     32  O3A UPF d   1      -2.249  11.786  -5.348  0.00  0.00    -0.180 OA
BRANCH  32  33
ATOM     33  PB  UPF d   1      -1.149  11.949  -4.155  0.00  0.00     0.420 P 
ATOM     34  O1B UPF d   1       0.250  11.688  -4.537  0.00  0.00    -0.624 OA
ATOM     35  O2B UPF d   1      -1.481  13.256  -3.520  0.00  0.00    -0.624 OA
BRANCH  33  36
ATOM     36  O3B UPF d   1      -1.530  10.684  -3.252  0.00  0.00    -0.255 OA
BRANCH  36  37
ATOM     37  C1' UPF d   1      -2.137  10.599  -1.942  0.00  0.00     0.175 C 
ATOM     38  C2' UPF d   1      -2.244   9.073  -1.701  0.00  0.00     0.153 C 
ATOM     39  C3' UPF d   1      -3.280   8.463  -2.717  0.00  0.00     0.097 C 
ATOM     40  F2' UPF d   1      -1.010   8.472  -1.808  0.00  0.00    -0.241 F 
ATOM     41  H13 UPF d   1      -2.618   8.905  -0.680  0.00  0.00     0.103 H 
ATOM     42  C4' UPF d   1      -4.663   9.160  -2.560  0.00  0.00     0.090 C 
ATOM     43  H14 UPF d   1      -2.911   8.653  -3.736  0.00  0.00     0.091 H 
ATOM     44  C5' UPF d   1      -4.482  10.703  -2.753  0.00  0.00     0.089 C 
ATOM     45  H15 UPF d   1      -5.345   8.786  -3.338  0.00  0.00     0.091 H 
ATOM     46  O5' UPF d   1      -3.446  11.261  -1.839  0.00  0.00    -0.348 OA
ATOM     47  H16 UPF d   1      -4.140  10.859  -3.787  0.00  0.00     0.090 H 
ATOM     48  H12 UPF d   1      -1.469  11.053  -1.196  0.00  0.00     0.134 H 
BRANCH  39  49
ATOM     49  O3' UPF d   1      -3.411   7.057  -2.551  0.00  0.00    -0.390 OA
ATOM     50  H19 UPF d   1      -3.754   6.872  -1.685  0.00  0.00     0.210 HD
ENDBRANCH  39  49
BRANCH  42  51
ATOM     51  O4' UPF d   1      -5.216   8.847  -1.283  0.00  0.00    -0.390 OA
ATOM     52  H20 UPF d   1      -5.311   7.905  -1.202  0.00  0.00     0.210 HD
ENDBRANCH  42  51
BRANCH  44  53
ATOM     53  C6' UPF d   1      -5.790  11.503  -2.569  0.00  0.00     0.043 C 
ATOM     54  H17 UPF d   1      -6.186  11.338  -1.556  0.00  0.00     0.078 H 
ATOM     55  H18 UPF d   1      -6.533  11.174  -3.311  0.00  0.00     0.078 H 
BRANCH  53  56
ATOM     56  O6' UPF d   1      -5.504  12.903  -2.756  0.00  0.00    -0.398 OA
ATOM     57  H21 UPF d   1      -4.861  13.182  -2.115  0.00  0.00     0.209 HD
ENDBRANCH  53  56
ENDBRANCH  44  53
ENDBRANCH  36  37
ENDBRANCH  33  36
ENDBRANCH  32  33
ENDBRANCH   1  32
TORSDOF 14
