REMARK  5 active torsions:
REMARK  status: ('A' for Active; 'I' for Inactive)
REMARK    1  A    between atoms: CBB_6  and  N6_7 
REMARK    2  A    between atoms: N6_7  and  C6_8 
REMARK    3  A    between atoms: C2_16  and  N2_17 
REMARK    4  A    between atoms: N2_17  and  CAV_18 
REMARK    5  A    between atoms: CAW_23  and  NBC_24 
ROOT
ATOM      1  C6  AD5 d   1       9.929   2.184   4.400  0.00  0.00     0.174 A 
ATOM      2  N1  AD5 d   1      10.887   1.245   4.362  0.00  0.00    -0.043 NA
ATOM      3  C5  AD5 d   1      10.078   3.298   5.113  0.00  0.00     0.129 A 
ATOM      4  N7  AD5 d   1       9.290   4.351   5.307  0.00  0.00    -0.344 N 
ATOM      5  C8  AD5 d   1       9.927   5.193   6.115  0.00  0.00     0.067 A 
ATOM      6  N9  AD5 d   1      11.107   4.658   6.419  0.00  0.00    -0.222 NA
ATOM      7  C4  AD5 d   1      11.204   3.487   5.802  0.00  0.00     0.200 A 
ATOM      8  N3  AD5 d   1      12.177   2.560   5.773  0.00  0.00    -0.040 NA
ATOM      9  C2  AD5 d   1      12.029   1.430   5.048  0.00  0.00     0.731 A 
ATOM     10  H13 AD5 d   1       8.353   4.490   4.903  0.00  0.00     0.167 HD
ATOM     11  H14 AD5 d   1       9.549   6.152   6.466  0.00  0.00     0.143 H 
ENDROOT
BRANCH   9  12
ATOM     12  N2  AD5 d   1      13.027   0.522   5.065  0.00  0.00    -0.188 N 
ATOM     13  H15 AD5 d   1      13.691   0.557   5.851  0.00  0.00     0.184 HD
BRANCH  12  14
ATOM     14  CAV AD5 d   1      13.218  -0.431   4.123  0.00  0.00     0.049 A 
ATOM     15  CAB AD5 d   1      14.508  -0.948   4.014  0.00  0.00    -0.054 A 
ATOM     16  CAD AD5 d   1      14.809  -1.940   3.092  0.00  0.00    -0.055 A 
ATOM     17  H16 AD5 d   1      15.290  -0.568   4.661  0.00  0.00     0.087 H 
ATOM     18  CAW AD5 d   1      13.811  -2.437   2.254  0.00  0.00     0.030 A 
ATOM     19  H17 AD5 d   1      15.819  -2.328   3.023  0.00  0.00     0.087 H 
ATOM     20  CAC AD5 d   1      12.511  -1.929   2.351  0.00  0.00    -0.055 A 
ATOM     21  CAA AD5 d   1      12.214  -0.938   3.290  0.00  0.00    -0.054 A 
ATOM     22  H19 AD5 d   1      11.733  -2.305   1.696  0.00  0.00     0.087 H 
ATOM     23  H18 AD5 d   1      11.201  -0.560   3.374  0.00  0.00     0.087 H 
BRANCH  18  24
ATOM     24  NBC AD5 d   1      14.131  -3.389   1.355  0.00  0.00    -0.377 N 
ATOM     25  CAM AD5 d   1      13.476  -4.730   1.393  0.00  0.00     0.015 C 
ATOM     26  CAI AD5 d   1      14.429  -5.838   0.934  0.00  0.00     0.034 C 
ATOM     27  H20 AD5 d   1      12.598  -4.717   0.730  0.00  0.00     0.067 H 
ATOM     28  H21 AD5 d   1      13.154  -4.941   2.424  0.00  0.00     0.067 H 
ATOM     29  OAU AD5 d   1      15.133  -5.423  -0.265  0.00  0.00    -0.388 OA
ATOM     30  H22 AD5 d   1      13.852  -6.750   0.720  0.00  0.00     0.076 H 
ATOM     31  H23 AD5 d   1      15.158  -6.045   1.731  0.00  0.00     0.076 H 
ATOM     32  CAJ AD5 d   1      16.011  -4.303  -0.003  0.00  0.00     0.034 C 
ATOM     33  CAN AD5 d   1      15.160  -3.075   0.318  0.00  0.00     0.015 C 
ATOM     34  H24 AD5 d   1      16.629  -4.103  -0.890  0.00  0.00     0.076 H 
ATOM     35  H25 AD5 d   1      16.662  -4.536   0.853  0.00  0.00     0.076 H 
ATOM     36  H26 AD5 d   1      15.813  -2.273   0.692  0.00  0.00     0.067 H 
ATOM     37  H27 AD5 d   1      14.655  -2.739  -0.599  0.00  0.00     0.067 H 
ENDBRANCH  18  24
ENDBRANCH  12  14
ENDBRANCH   9  12
BRANCH   1  38
ATOM     38  N6  AD5 d   1       8.777   2.049   3.730  0.00  0.00    -0.368 N 
ATOM     39  H12 AD5 d   1       8.458   2.818   3.124  0.00  0.00     0.161 HD
BRANCH  38  40
ATOM     40  CBB AD5 d   1       7.955   0.834   3.835  0.00  0.00     0.011 C 
ATOM     41  CAK AD5 d   1       7.433   0.443   2.439  0.00  0.00    -0.046 C 
ATOM     42  CAG AD5 d   1       6.201   1.280   2.064  0.00  0.00    -0.063 C 
ATOM     43  H1  AD5 d   1       8.226   0.615   1.696  0.00  0.00     0.035 H 
ATOM     44  H2  AD5 d   1       7.158  -0.622   2.442  0.00  0.00     0.035 H 
ATOM     45  CAF AD5 d   1       5.030   1.033   3.031  0.00  0.00    -0.065 C 
ATOM     46  H3  AD5 d   1       5.885   1.012   1.045  0.00  0.00     0.033 H 
ATOM     47  H4  AD5 d   1       6.471   2.346   2.096  0.00  0.00     0.033 H 
ATOM     48  CAH AD5 d   1       5.507   0.412   4.354  0.00  0.00    -0.063 C 
ATOM     49  H5  AD5 d   1       4.312   0.349   2.554  0.00  0.00     0.033 H 
ATOM     50  H6  AD5 d   1       4.536   1.992   3.245  0.00  0.00     0.033 H 
ATOM     51  CAL AD5 d   1       6.800   1.079   4.835  0.00  0.00    -0.046 C 
ATOM     52  H7  AD5 d   1       5.690  -0.662   4.202  0.00  0.00     0.033 H 
ATOM     53  H8  AD5 d   1       4.727   0.547   5.117  0.00  0.00     0.033 H 
ATOM     54  H9  AD5 d   1       7.077   0.662   5.814  0.00  0.00     0.035 H 
ATOM     55  H10 AD5 d   1       6.632   2.162   4.932  0.00  0.00     0.035 H 
ATOM     56  H11 AD5 d   1       8.579   0.012   4.217  0.00  0.00     0.072 H 
ENDBRANCH  38  40
ENDBRANCH   1  38
TORSDOF 5
