REMARK  4 active torsions:
REMARK  status: ('A' for Active; 'I' for Inactive)
REMARK    1  A    between atoms: CAQ_5  and  NAK_6 
REMARK    2  A    between atoms: NAK_6  and  CAO_7 
REMARK    3  A    between atoms: CAP_12  and  CAM_13 
REMARK       I    between atoms: CAM_13  and  NAJ_15 
REMARK    4  A    between atoms: NAJ_15  and  CAA_16 
ROOT
ATOM      1  CAO AD6 d   1      12.858  -0.147   4.240  0.00  0.00     0.034 A 
ATOM      2  CAE AD6 d   1      11.699  -0.501   3.540  0.00  0.00    -0.056 A 
ATOM      3  CAG AD6 d   1      11.740  -1.478   2.537  0.00  0.00    -0.066 A 
ATOM      4  CAD AD6 d   1      14.054  -0.799   3.931  0.00  0.00    -0.056 A 
ATOM      5  CAF AD6 d   1      14.096  -1.781   2.935  0.00  0.00    -0.066 A 
ATOM      6  CAP AD6 d   1      12.941  -2.126   2.225  0.00  0.00     0.032 A 
ATOM      7  H3  AD6 d   1      10.760  -0.014   3.776  0.00  0.00     0.086 H 
ATOM      8  H4  AD6 d   1      10.835  -1.734   1.998  0.00  0.00     0.085 H 
ATOM      9  H5  AD6 d   1      14.959  -0.541   4.469  0.00  0.00     0.086 H 
ATOM     10  H6  AD6 d   1      15.032  -2.279   2.711  0.00  0.00     0.085 H 
ENDROOT
BRANCH   1  11
ATOM     11  NAK AD6 d   1      12.914   0.780   5.224  0.00  0.00    -0.335 N 
ATOM     12  H2  AD6 d   1      13.693   0.698   5.893  0.00  0.00     0.168 HD
BRANCH  11  13
ATOM     13  CAQ AD6 d   1      12.048   1.806   5.418  0.00  0.00     0.172 A 
ATOM     14  NAI AD6 d   1      12.340   2.826   6.234  0.00  0.00    -0.235 NA
ATOM     15  CAH AD6 d   1      11.370   3.756   6.343  0.00  0.00     0.029 A 
ATOM     16  CAN AD6 d   1      10.281   3.471   5.618  0.00  0.00     0.072 A 
ATOM     17  H1  AD6 d   1      11.463   4.649   6.959  0.00  0.00     0.117 H 
ATOM     18  SAL AD6 d   1      10.489   2.076   4.815  0.00  0.00    -0.043 SA
ATOM     19 BR   AD6 d   1       8.736   4.563   5.565  0.00  0.00    -0.041 Br
ENDBRANCH  11  13
ENDBRANCH   1  11
BRANCH   6  20
ATOM     20  CAM AD6 d   1      12.989  -3.102   1.216  0.00  0.00     0.251 C 
ATOM     21  OAB AD6 d   1      13.763  -4.062   1.291  0.00  0.00    -0.268 OA
ATOM     22  NAJ AD6 d   1      12.148  -2.892   0.178  0.00  0.00    -0.361 N 
ATOM     23  H7  AD6 d   1      11.548  -2.092   0.164  0.00  0.00     0.162 HD
BRANCH  22  24
ATOM     24  CAA AD6 d   1      12.130  -3.863  -0.934  0.00  0.00    -0.018 C 
ATOM     25  H8  AD6 d   1      11.396  -3.543  -1.688  0.00  0.00     0.056 H 
ATOM     26  H9  AD6 d   1      11.852  -4.856  -0.550  0.00  0.00     0.056 H 
ATOM     27  H10 AD6 d   1      13.128  -3.913  -1.393  0.00  0.00     0.056 H 
ENDBRANCH  22  24
ENDBRANCH   6  20
TORSDOF 4
