REMARK  10 active torsions:
REMARK  status: ('A' for Active; 'I' for Inactive)
REMARK    1  A    between atoms: O3B_8  and  PG_1 
REMARK    2  A    between atoms: PB_5  and  O3B_8 
REMARK    3  A    between atoms: O3A_12  and  PB_5 
REMARK    4  A    between atoms: PA_9  and  O3A_12 
REMARK    5  A    between atoms: PA_9  and  O5'_13 
REMARK    6  A    between atoms: O5'_13  and  C5'_14 
REMARK    7  A    between atoms: C5'_14  and  C4'_15 
REMARK    8  A    between atoms: C3'_17  and  O3'_18 
REMARK    9  A    between atoms: C2'_19  and  O2'_20 
REMARK   10  A    between atoms: C1'_21  and  N9_22 
ROOT
ATOM      1  C4' ATP d   1      86.378  51.945   4.059  0.00  0.00     0.089 C 
ATOM      2  O4' ATP d   1      87.052  52.643   5.120  0.00  0.00    -0.353 OA
ATOM      3  C3' ATP d   1      86.806  52.640   2.770  0.00  0.00     0.091 C 
ATOM      4  C2' ATP d   1      86.998  54.063   3.235  0.00  0.00     0.105 C 
ATOM      5  C1' ATP d   1      87.547  53.895   4.642  0.00  0.00     0.139 C 
ATOM      6  H3  ATP d   1      85.289  52.038   4.179  0.00  0.00     0.090 H 
ATOM      7  H4  ATP d   1      87.761  52.227   2.414  0.00  0.00     0.091 H 
ATOM      8  H6  ATP d   1      87.688  54.622   2.586  0.00  0.00     0.093 H 
ATOM      9  H8  ATP d   1      87.215  54.719   5.291  0.00  0.00     0.122 H 
ENDROOT
BRANCH   1  10
ATOM     10  C5' ATP d   1      86.744  50.468   4.096  0.00  0.00     0.058 C 
ATOM     11  H1  ATP d   1      87.117  50.158   3.108  0.00  0.00     0.079 H 
ATOM     12  H2  ATP d   1      87.527  50.304   4.851  0.00  0.00     0.079 H 
BRANCH  10  13
ATOM     13  O5' ATP d   1      85.593  49.698   4.431  0.00  0.00    -0.287 OA
BRANCH  13  14
ATOM     14  PA  ATP d   1      84.665  49.059   3.281  0.00  0.00     0.417 P 
ATOM     15  O1A ATP d   1      85.356  49.230   1.948  0.00  0.00    -0.624 OA
ATOM     16  O2A ATP d   1      84.205  47.667   3.658  0.00  0.00    -0.624 OA
BRANCH  14  17
ATOM     17  O3A ATP d   1      83.453  50.093   3.329  0.00  0.00    -0.180 OA
BRANCH  17  18
ATOM     18  PB  ATP d   1      82.608  50.348   4.664  0.00  0.00     0.428 P 
ATOM     19  O1B ATP d   1      82.502  51.825   4.952  0.00  0.00    -0.624 OA
ATOM     20  O2B ATP d   1      83.154  49.445   5.737  0.00  0.00    -0.624 OA
BRANCH  18  21
ATOM     21  O3B ATP d   1      81.134  49.826   4.178  0.00  0.00    -0.173 OA
BRANCH  21  22
ATOM     22  PG  ATP d   1      80.779  48.760   2.969  0.00  0.00     0.431 P 
ATOM     23  O1G ATP d   1      81.847  47.698   2.859  0.00  0.00    -0.616 OA
ATOM     24  O2G ATP d   1      80.672  49.665   1.757  0.00  0.00    -0.616 OA
ATOM     25  O3G ATP d   1      79.489  48.118   3.424  0.00  0.00    -0.616 OA
ENDBRANCH  21  22
ENDBRANCH  18  21
ENDBRANCH  17  18
ENDBRANCH  14  17
ENDBRANCH  13  14
ENDBRANCH  10  13
ENDBRANCH   1  10
BRANCH   3  26
ATOM     26  O3' ATP d   1      85.845  52.504   1.715  0.00  0.00    -0.390 OA
ATOM     27  H5  ATP d   1      85.019  52.886   1.989  0.00  0.00     0.210 HD
ENDBRANCH   3  26
BRANCH   5  28
ATOM     28  N9  ATP d   1      89.021  53.851   4.589  0.00  0.00    -0.294 N 
ATOM     29  C8  ATP d   1      89.763  52.760   4.345  0.00  0.00     0.071 A 
ATOM     30  N7  ATP d   1      91.079  53.061   4.368  0.00  0.00    -0.236 NA
ATOM     31  H9  ATP d   1      89.359  51.767   4.154  0.00  0.00     0.144 H 
ATOM     32  C5  ATP d   1      91.184  54.367   4.615  0.00  0.00     0.149 A 
ATOM     33  C6  ATP d   1      92.293  55.318   4.762  0.00  0.00     0.155 A 
ATOM     34  C4  ATP d   1      89.827  54.893   4.761  0.00  0.00     0.167 A 
ATOM     35  N6  ATP d   1      93.556  54.875   4.634  0.00  0.00    -0.382 N 
ATOM     36  N1  ATP d   1      92.004  56.604   5.034  0.00  0.00    -0.222 NA
ATOM     37  H10 ATP d   1      94.344  55.530   4.734  0.00  0.00     0.157 HD
ATOM     38  H11 ATP d   1      93.735  53.880   4.436  0.00  0.00     0.157 HD
ATOM     39  C2  ATP d   1      90.730  57.033   5.158  0.00  0.00     0.091 A 
ATOM     40  N3  ATP d   1      89.657  56.214   5.027  0.00  0.00    -0.222 NA
ATOM     41  H12 ATP d   1      90.556  58.081   5.372  0.00  0.00     0.146 H 
ENDBRANCH   5  28
BRANCH   4  42
ATOM     42  O2' ATP d   1      85.725  54.705   3.300  0.00  0.00    -0.388 OA
ATOM     43  H7  ATP d   1      85.325  54.700   2.438  0.00  0.00     0.210 HD
ENDBRANCH   4  42
TORSDOF 10
