REMARK  13 active torsions:
REMARK  status: ('A' for Active; 'I' for Inactive)
REMARK    1  A    between atoms: C6_7  and  N7_14 
REMARK    2  A    between atoms: C5_8  and  N13_9 
REMARK       I    between atoms: N13_9  and  C14_10 
REMARK    3  A    between atoms: C14_10  and  C15_11 
REMARK    4  A    between atoms: C15_11  and  C16_12 
REMARK    5  A    between atoms: N7_14  and  C8_15 
REMARK    6  A    between atoms: C8_15  and  C9_16 
REMARK    7  A    between atoms: C9_16  and  O9_17 
REMARK    8  A    between atoms: C9_16  and  C10_18 
REMARK    9  A    between atoms: C10_18  and  O10_19 
REMARK   10  A    between atoms: C10_18  and  C11_20 
REMARK   11  A    between atoms: C11_20  and  O11_21 
REMARK   12  A    between atoms: C11_20  and  C12_22 
REMARK   13  A    between atoms: C12_22  and  O12_23 
ROOT
ATOM      1  N7  Y19 d   1      11.779   5.832 -15.737  0.00  0.00    -0.373 N 
ATOM      2  H9  Y19 d   1      11.715   4.890 -16.149  0.00  0.00     0.161 HD
ENDROOT
BRANCH   1   3
ATOM      3  C6  Y19 d   1      10.850   6.768 -16.067  0.00  0.00     0.137 A 
ATOM      4  N1  Y19 d   1      10.903   7.991 -15.482  0.00  0.00    -0.178 NA
ATOM      5  C2  Y19 d   1      10.001   8.959 -15.748  0.00  0.00     0.350 A 
ATOM      6  O2  Y19 d   1      10.113  10.066 -15.178  0.00  0.00    -0.244 OA
ATOM      7  N3  Y19 d   1       8.990   8.748 -16.624  0.00  0.00    -0.275 N 
ATOM      8  C4  Y19 d   1       8.832   7.573 -17.271  0.00  0.00     0.256 A 
ATOM      9  H1  Y19 d   1       8.339   9.487 -16.798  0.00  0.00     0.173 HD
ATOM     10  O4  Y19 d   1       7.877   7.421 -18.065  0.00  0.00    -0.270 OA
ATOM     11  C5  Y19 d   1       9.749   6.435 -17.013  0.00  0.00     0.147 A 
ATOM     12  H2  Y19 d   1       9.139   5.685 -16.489  0.00  0.00     0.100 H 
BRANCH  11  13
ATOM     13  N13 Y19 d   1      10.199   5.775 -18.234  0.00  0.00    -0.341 N 
ATOM     14  C14 Y19 d   1       9.783   4.547 -18.571  0.00  0.00     0.218 C 
ATOM     15  O23 Y19 d   1      10.162   3.992 -19.588  0.00  0.00    -0.274 OA
ATOM     16  H3  Y19 d   1      10.837   6.254 -18.837  0.00  0.00     0.163 HD
BRANCH  14  17
ATOM     17  C15 Y19 d   1       8.824   3.831 -17.640  0.00  0.00     0.006 C 
ATOM     18  H4  Y19 d   1       8.745   4.402 -16.703  0.00  0.00     0.046 H 
ATOM     19  H5  Y19 d   1       9.219   2.827 -17.426  0.00  0.00     0.046 H 
BRANCH  17  20
ATOM     20  C16 Y19 d   1       7.443   3.695 -18.248  0.00  0.00    -0.068 C 
ATOM     21  H6  Y19 d   1       6.781   3.172 -17.542  0.00  0.00     0.028 H 
ATOM     22  H7  Y19 d   1       7.509   3.120 -19.183  0.00  0.00     0.028 H 
ATOM     23  H8  Y19 d   1       7.036   4.694 -18.460  0.00  0.00     0.028 H 
ENDBRANCH  17  20
ENDBRANCH  14  17
ENDBRANCH  11  13
ENDBRANCH   1   3
BRANCH   1  24
ATOM     24  C8  Y19 d   1      12.864   6.134 -14.812  0.00  0.00     0.020 C 
ATOM     25  H10 Y19 d   1      13.160   7.185 -14.941  0.00  0.00     0.068 H 
ATOM     26  H11 Y19 d   1      13.720   5.481 -15.040  0.00  0.00     0.068 H 
BRANCH  24  27
ATOM     27  C9  Y19 d   1      12.445   5.912 -13.362  0.00  0.00     0.078 C 
ATOM     28  H12 Y19 d   1      11.886   4.968 -13.284  0.00  0.00     0.089 H 
BRANCH  27  29
ATOM     29  O9  Y19 d   1      11.623   6.995 -12.916  0.00  0.00    -0.391 OA
ATOM     30  H13 Y19 d   1      10.847   7.047 -13.461  0.00  0.00     0.210 HD
ENDBRANCH  27  29
BRANCH  27  31
ATOM     31  C10 Y19 d   1      13.687   5.849 -12.476  0.00  0.00     0.088 C 
ATOM     32  H14 Y19 d   1      13.374   5.989 -11.431  0.00  0.00     0.091 H 
BRANCH  31  33
ATOM     33  O10 Y19 d   1      14.591   6.906 -12.828  0.00  0.00    -0.390 OA
ATOM     34  H15 Y19 d   1      14.160   7.744 -12.706  0.00  0.00     0.210 HD
ENDBRANCH  31  33
BRANCH  31  35
ATOM     35  C11 Y19 d   1      14.388   4.493 -12.590  0.00  0.00     0.083 C 
ATOM     36  H16 Y19 d   1      14.606   4.309 -13.652  0.00  0.00     0.090 H 
BRANCH  35  37
ATOM     37  O11 Y19 d   1      13.520   3.455 -12.114  0.00  0.00    -0.391 OA
ATOM     38  H17 Y19 d   1      13.961   2.617 -12.188  0.00  0.00     0.210 HD
ENDBRANCH  35  37
BRANCH  35  39
ATOM     39  C12 Y19 d   1      15.707   4.459 -11.822  0.00  0.00     0.043 C 
ATOM     40  H18 Y19 d   1      16.350   5.280 -12.172  0.00  0.00     0.078 H 
ATOM     41  H19 Y19 d   1      16.208   3.497 -12.006  0.00  0.00     0.078 H 
BRANCH  39  42
ATOM     42  O12 Y19 d   1      15.477   4.608 -10.417  0.00  0.00    -0.398 OA
ATOM     43  H20 Y19 d   1      15.047   5.439 -10.254  0.00  0.00     0.209 HD
ENDBRANCH  39  42
ENDBRANCH  35  39
ENDBRANCH  31  35
ENDBRANCH  27  31
ENDBRANCH  24  27
ENDBRANCH   1  24
TORSDOF 13
