REMARK  21 active torsions:
REMARK  status: ('A' for Active; 'I' for Inactive)
REMARK       I    between atoms: C1_1  and  N2_2 
REMARK    1  A    between atoms: C1_1  and  C8_8 
REMARK    2  A    between atoms: N2_2  and  C3_3 
REMARK    3  A    between atoms: C3_3  and  C4_4 
REMARK    4  A    between atoms: C3_3  and  C5_5 
REMARK    5  A    between atoms: C4_4  and  C6_6 
REMARK    6  A    between atoms: C4_4  and  O21_21 
REMARK    7  A    between atoms: C5_5  and  C14_14 
REMARK    8  A    between atoms: C6_6  and  N20_20 
REMARK    9  A    between atoms: C10_10  and  N46_25 
REMARK   10  A    between atoms: C12_12  and  N38_22 
REMARK   11  A    between atoms: N20_20  and  C59_31 
REMARK   12  A    between atoms: N38_22  and  C39_23 
REMARK   13  A    between atoms: C39_23  and  C40_24 
REMARK   14  A    between atoms: C59_31  and  C61_32 
REMARK   15  A    between atoms: C59_31  and  C65_33 
REMARK   16  A    between atoms: C59_31  and  C69_34 
REMARK   17  A    between atoms: C69_34  and  C70_35 
REMARK   18  A    between atoms: C70_35  and  C73_36 
REMARK   19  A    between atoms: C73_36  and  C76_37 
REMARK   20  A    between atoms: C76_37  and  C79_38 
REMARK   21  A    between atoms: C76_37  and  C83_39 
ROOT
ATOM      1  C3  VG0 d   1      28.855   2.225  32.722  0.00  0.00     0.042 C 
ATOM      2  H2  VG0 d   1      29.801   2.666  32.374  0.00  0.00     0.077 H 
ENDROOT
BRANCH   1   3
ATOM      3  N2  VG0 d   1      29.120   1.217  33.758  0.00  0.00    -0.349 N 
ATOM      4  C1  VG0 d   1      30.279   1.115  34.474  0.00  0.00     0.252 C 
ATOM      5  O7  VG0 d   1      31.219   1.892  34.314  0.00  0.00    -0.268 OA
ATOM      6  H1  VG0 d   1      28.396   0.555  33.954  0.00  0.00     0.163 HD
BRANCH   4   7
ATOM      7  C8  VG0 d   1      30.354   0.008  35.422  0.00  0.00     0.036 A 
ATOM      8  C9  VG0 d   1      30.922   0.157  36.707  0.00  0.00    -0.042 A 
ATOM      9  C10 VG0 d   1      30.993  -0.933  37.598  0.00  0.00     0.040 A 
ATOM     10  H8  VG0 d   1      31.308   1.123  37.012  0.00  0.00     0.088 H 
ATOM     11  C11 VG0 d   1      30.480  -2.202  37.184  0.00  0.00    -0.032 A 
ATOM     12  C12 VG0 d   1      29.904  -2.384  35.904  0.00  0.00     0.031 A 
ATOM     13  H9  VG0 d   1      30.534  -3.043  37.866  0.00  0.00     0.090 H 
ATOM     14  C13 VG0 d   1      29.844  -1.263  35.018  0.00  0.00    -0.042 A 
ATOM     15  H10 VG0 d   1      29.408  -1.379  34.032  0.00  0.00     0.088 H 
BRANCH   9  16
ATOM     16  N46 VG0 d   1      31.564  -0.759  38.852  0.00  0.00    -0.318 N 
ATOM     17  C47 VG0 d   1      32.860  -0.084  39.058  0.00  0.00     0.003 C 
ATOM     18  C48 VG0 d   1      33.248  -0.418  40.494  0.00  0.00    -0.042 C 
ATOM     19  H25 VG0 d   1      32.756   1.003  38.928  0.00  0.00     0.065 H 
ATOM     20  H26 VG0 d   1      33.613  -0.467  38.354  0.00  0.00     0.065 H 
ATOM     21  C49 VG0 d   1      31.941  -0.798  41.191  0.00  0.00     0.011 C 
ATOM     22  H27 VG0 d   1      33.704   0.456  40.982  0.00  0.00     0.036 H 
ATOM     23  H28 VG0 d   1      33.955  -1.261  40.516  0.00  0.00     0.036 H 
ATOM     24  C50 VG0 d   1      31.014  -1.172  40.033  0.00  0.00     0.224 C 
ATOM     25  H29 VG0 d   1      31.537   0.053  41.759  0.00  0.00     0.047 H 
ATOM     26  H30 VG0 d   1      32.090  -1.653  41.867  0.00  0.00     0.047 H 
ATOM     27  O57 VG0 d   1      29.947  -1.755  40.189  0.00  0.00    -0.273 OA
ENDBRANCH   9  16
BRANCH  12  28
ATOM     28  N38 VG0 d   1      29.412  -3.624  35.523  0.00  0.00    -0.390 N 
ATOM     29  H19 VG0 d   1      29.486  -4.389  36.209  0.00  0.00     0.159 HD
BRANCH  28  30
ATOM     30  C39 VG0 d   1      28.794  -3.945  34.227  0.00  0.00    -0.011 C 
ATOM     31  H20 VG0 d   1      29.121  -4.945  33.907  0.00  0.00     0.063 H 
ATOM     32  H21 VG0 d   1      29.108  -3.200  33.481  0.00  0.00     0.063 H 
BRANCH  30  33
ATOM     33  C40 VG0 d   1      27.271  -3.927  34.346  0.00  0.00    -0.061 C 
ATOM     34  H22 VG0 d   1      26.824  -4.168  33.370  0.00  0.00     0.029 H 
ATOM     35  H23 VG0 d   1      26.940  -2.927  34.664  0.00  0.00     0.029 H 
ATOM     36  H24 VG0 d   1      26.953  -4.672  35.090  0.00  0.00     0.029 H 
ENDBRANCH  30  33
ENDBRANCH  28  30
ENDBRANCH  12  28
ENDBRANCH   4   7
ENDBRANCH   1   3
BRANCH   1  37
ATOM     37  C4  VG0 d   1      28.019   3.331  33.362  0.00  0.00     0.078 C 
ATOM     38  H3  VG0 d   1      27.193   2.862  33.917  0.00  0.00     0.088 H 
BRANCH  37  39
ATOM     39  C6  VG0 d   1      28.794   4.226  34.313  0.00  0.00     0.108 C 
ATOM     40  H6  VG0 d   1      29.703   4.585  33.809  0.00  0.00     0.079 H 
ATOM     41  H7  VG0 d   1      29.074   3.646  35.205  0.00  0.00     0.079 H 
BRANCH  39  42
ATOM     42  N20 VG0 d   1      27.988   5.378  34.724  0.00  0.00    -0.065 N 
ATOM     43  H16 VG0 d   1      27.308   5.039  35.386  0.00  0.00     0.278 HD
ATOM     44  H17 VG0 d   1      27.516   5.715  33.900  0.00  0.00     0.278 HD
BRANCH  42  45
ATOM     45  C59 VG0 d   1      28.654   6.550  35.350  0.00  0.00     0.118 C 
BRANCH  45  46
ATOM     46  C61 VG0 d   1      29.329   6.051  36.652  0.00  0.00    -0.045 C 
ATOM     47  H31 VG0 d   1      29.835   6.892  37.148  0.00  0.00     0.030 H 
ATOM     48  H32 VG0 d   1      30.066   5.272  36.408  0.00  0.00     0.030 H 
ATOM     49  H33 VG0 d   1      28.565   5.635  37.325  0.00  0.00     0.030 H 
ENDBRANCH  45  46
BRANCH  45  50
ATOM     50  C65 VG0 d   1      27.620   7.639  35.715  0.00  0.00    -0.045 C 
ATOM     51  H34 VG0 d   1      28.136   8.494  36.176  0.00  0.00     0.030 H 
ATOM     52  H35 VG0 d   1      26.888   7.226  36.425  0.00  0.00     0.030 H 
ATOM     53  H36 VG0 d   1      27.100   7.971  34.804  0.00  0.00     0.030 H 
ENDBRANCH  45  50
BRANCH  45  54
ATOM     54  C69 VG0 d   1      29.729   7.110  34.367  0.00  0.00    -0.035 C 
ATOM     55  H37 VG0 d   1      30.449   6.305  34.158  0.00  0.00     0.036 H 
ATOM     56  H38 VG0 d   1      30.245   7.942  34.868  0.00  0.00     0.036 H 
BRANCH  54  57
ATOM     57  C70 VG0 d   1      29.192   7.628  33.019  0.00  0.00    -0.062 C 
ATOM     58  H39 VG0 d   1      28.466   8.431  33.213  0.00  0.00     0.033 H 
ATOM     59  H40 VG0 d   1      28.692   6.800  32.496  0.00  0.00     0.033 H 
BRANCH  57  60
ATOM     60  C73 VG0 d   1      30.307   8.177  32.120  0.00  0.00    -0.062 C 
ATOM     61  H41 VG0 d   1      31.027   7.368  31.931  0.00  0.00     0.033 H 
ATOM     62  H42 VG0 d   1      30.809   8.997  32.655  0.00  0.00     0.033 H 
BRANCH  60  63
ATOM     63  C76 VG0 d   1      29.818   8.714  30.763  0.00  0.00    -0.061 C 
ATOM     64  H43 VG0 d   1      29.424   7.871  30.176  0.00  0.00     0.038 H 
BRANCH  63  65
ATOM     65  C79 VG0 d   1      30.996   9.344  30.013  0.00  0.00    -0.073 C 
ATOM     66  H44 VG0 d   1      30.649   9.729  29.043  0.00  0.00     0.028 H 
ATOM     67  H45 VG0 d   1      31.775   8.585  29.849  0.00  0.00     0.028 H 
ATOM     68  H46 VG0 d   1      31.410  10.171  30.609  0.00  0.00     0.028 H 
ENDBRANCH  63  65
BRANCH  63  69
ATOM     69  C83 VG0 d   1      28.704   9.768  30.917  0.00  0.00    -0.073 C 
ATOM     70  H47 VG0 d   1      27.852   9.326  31.455  0.00  0.00     0.028 H 
ATOM     71  H48 VG0 d   1      28.375  10.102  29.922  0.00  0.00     0.028 H 
ATOM     72  H49 VG0 d   1      29.089  10.628  31.484  0.00  0.00     0.028 H 
ENDBRANCH  63  69
ENDBRANCH  60  63
ENDBRANCH  57  60
ENDBRANCH  54  57
ENDBRANCH  45  54
ENDBRANCH  42  45
ENDBRANCH  39  42
ENDBRANCH  37  39
BRANCH  37  73
ATOM     73  O21 VG0 d   1      27.497   4.158  32.336  0.00  0.00    -0.392 OA
ATOM     74  H18 VG0 d   1      27.005   3.626  31.722  0.00  0.00     0.210 HD
ENDBRANCH  37  73
ENDBRANCH   1  37
BRANCH   1  75
ATOM     75  C5  VG0 d   1      28.194   1.480  31.530  0.00  0.00    -0.020 C 
ATOM     76  H4  VG0 d   1      28.258   2.122  30.639  0.00  0.00     0.043 H 
ATOM     77  H5  VG0 d   1      27.137   1.297  31.776  0.00  0.00     0.043 H 
BRANCH  75  78
ATOM     78  C14 VG0 d   1      28.849   0.154  31.213  0.00  0.00    -0.056 A 
ATOM     79  C15 VG0 d   1      30.253   0.064  30.987  0.00  0.00    -0.077 A 
ATOM     80  C16 VG0 d   1      30.860  -1.178  30.702  0.00  0.00    -0.082 A 
ATOM     81  H11 VG0 d   1      30.862   0.960  31.035  0.00  0.00     0.084 H 
ATOM     82  C17 VG0 d   1      30.072  -2.350  30.633  0.00  0.00    -0.083 A 
ATOM     83  H12 VG0 d   1      31.930  -1.233  30.536  0.00  0.00     0.083 H 
ATOM     84  C18 VG0 d   1      28.678  -2.274  30.855  0.00  0.00    -0.082 A 
ATOM     85  H13 VG0 d   1      30.536  -3.304  30.410  0.00  0.00     0.083 H 
ATOM     86  C19 VG0 d   1      28.069  -1.026  31.144  0.00  0.00    -0.077 A 
ATOM     87  H14 VG0 d   1      28.073  -3.172  30.804  0.00  0.00     0.083 H 
ATOM     88  H15 VG0 d   1      27.000  -0.975  31.313  0.00  0.00     0.084 H 
ENDBRANCH  75  78
ENDBRANCH   1  75
TORSDOF 21
