REMARK  7 active torsions:
REMARK  status: ('A' for Active; 'I' for Inactive)
REMARK    1  A    between atoms: C1_1  and  C2_2 
REMARK    2  A    between atoms: C2_2  and  N3_3 
REMARK    3  A    between atoms: C2_2  and  C4_4 
REMARK    4  A    between atoms: C4_4  and  O5_5 
REMARK    5  A    between atoms: O5_5  and  C6_6 
REMARK    6  A    between atoms: C7_7  and  C8_8 
REMARK    7  A    between atoms: C12_12  and  C13_13 
ROOT
ATOM      1  C6  505 d   1      30.097   7.411  27.303  0.00  0.00     0.080 A 
ATOM      2  C7  505 d   1      28.913   7.198  28.038  0.00  0.00    -0.028 A 
ATOM      3  C9  505 d   1      28.079   8.277  28.289  0.00  0.00    -0.074 A 
ATOM      4  C10 505 d   1      28.393   9.536  27.817  0.00  0.00    -0.082 A 
ATOM      5  C11 505 d   1      29.550   9.746  27.092  0.00  0.00    -0.074 A 
ATOM      6  C12 505 d   1      30.418   8.696  26.825  0.00  0.00    -0.028 A 
ATOM      7  H13 505 d   1      27.171   8.130  28.862  0.00  0.00     0.084 H 
ATOM      8  H14 505 d   1      27.726  10.367  28.017  0.00  0.00     0.083 H 
ATOM      9  H15 505 d   1      29.782  10.740  26.728  0.00  0.00     0.084 H 
ENDROOT
BRANCH   1  10
ATOM     10  O5  505 d   1      30.934   6.353  27.045  0.00  0.00    -0.348 OA
BRANCH  10  11
ATOM     11  C4  505 d   1      32.132   6.220  27.862  0.00  0.00     0.052 C 
ATOM     12  H8  505 d   1      32.916   6.888  27.478  0.00  0.00     0.078 H 
ATOM     13  H9  505 d   1      31.900   6.488  28.903  0.00  0.00     0.078 H 
BRANCH  11  14
ATOM     14  C2  505 d   1      32.617   4.773  27.801  0.00  0.00     0.117 C 
ATOM     15  H4  505 d   1      33.484   4.663  28.468  0.00  0.00     0.086 H 
BRANCH  14  16
ATOM     16  C1  505 d   1      31.524   3.801  28.223  0.00  0.00    -0.048 C 
ATOM     17  H1  505 d   1      31.202   4.035  29.248  0.00  0.00     0.030 H 
ATOM     18  H2  505 d   1      31.913   2.773  28.186  0.00  0.00     0.030 H 
ATOM     19  H3  505 d   1      30.667   3.893  27.539  0.00  0.00     0.030 H 
ENDBRANCH  14  16
BRANCH  14  20
ATOM     20  N3  505 d   1      33.007   4.398  26.400  0.00  0.00    -0.073 N 
ATOM     21  H5  505 d   1      33.733   5.018  26.076  0.00  0.00     0.274 HD
ATOM     22  H6  505 d   1      32.204   4.476  25.796  0.00  0.00     0.274 HD
ATOM     23  H7  505 d   1      33.346   3.449  26.388  0.00  0.00     0.274 HD
ENDBRANCH  14  20
ENDBRANCH  11  14
ENDBRANCH  10  11
ENDBRANCH   1  10
BRANCH   2  24
ATOM     24  C8  505 d   1      28.562   5.827  28.553  0.00  0.00    -0.049 C 
ATOM     25  H10 505 d   1      27.607   5.873  29.096  0.00  0.00     0.033 H 
ATOM     26  H11 505 d   1      29.354   5.476  29.232  0.00  0.00     0.033 H 
ATOM     27  H12 505 d   1      28.469   5.130  27.707  0.00  0.00     0.033 H 
ENDBRANCH   2  24
BRANCH   6  28
ATOM     28  C13 505 d   1      31.681   8.934  26.037  0.00  0.00    -0.049 C 
ATOM     29  H16 505 d   1      32.231   7.987  25.931  0.00  0.00     0.033 H 
ATOM     30  H17 505 d   1      32.310   9.666  26.564  0.00  0.00     0.033 H 
ATOM     31  H18 505 d   1      31.424   9.322  25.040  0.00  0.00     0.033 H 
ENDBRANCH   6  28
TORSDOF 7
