REMARK  5 active torsions:
REMARK  status: ('A' for Active; 'I' for Inactive)
REMARK    1  A    between atoms: N1_1  and  C2_2 
REMARK    2  A    between atoms: C2_2  and  C3_3 
REMARK    3  A    between atoms: C3_3  and  O4_4 
REMARK    4  A    between atoms: O4_4  and  C5_5 
REMARK    5  A    between atoms: C9_9  and  C13_13 
ROOT
ATOM      1  C5  L1O d   1      29.661   7.340  27.492  0.00  0.00     0.112 A 
ATOM      2  C6  L1O d   1      29.612   8.620  26.917  0.00  0.00     0.070 A 
ATOM      3 CL7  L1O d   1      30.685   9.049  25.621  0.00  0.00    -0.081 Cl
ATOM      4  C8  L1O d   1      28.678   9.543  27.370  0.00  0.00    -0.043 A 
ATOM      5  C9  L1O d   1      27.804   9.220  28.403  0.00  0.00     0.044 A 
ATOM      6  C10 L1O d   1      27.872   7.957  28.981  0.00  0.00    -0.043 A 
ATOM      7  C11 L1O d   1      28.787   7.018  28.527  0.00  0.00     0.070 A 
ATOM      8 CL12 L1O d   1      28.844   5.445  29.257  0.00  0.00    -0.081 Cl
ATOM      9  H8  L1O d   1      28.630  10.525  26.914  0.00  0.00     0.087 H 
ATOM     10  H9  L1O d   1      27.203   7.703  29.795  0.00  0.00     0.087 H 
ENDROOT
BRANCH   1  11
ATOM     11  O4  L1O d   1      30.574   6.393  27.105  0.00  0.00    -0.346 OA
BRANCH  11  12
ATOM     12  C3  L1O d   1      31.722   6.192  27.975  0.00  0.00     0.048 C 
ATOM     13  H6  L1O d   1      32.503   6.928  27.731  0.00  0.00     0.077 H 
ATOM     14  H7  L1O d   1      31.416   6.316  29.024  0.00  0.00     0.077 H 
BRANCH  12  15
ATOM     15  C2  L1O d   1      32.261   4.790  27.765  0.00  0.00     0.100 C 
ATOM     16  H4  L1O d   1      32.980   4.566  28.567  0.00  0.00     0.078 H 
ATOM     17  H5  L1O d   1      31.423   4.080  27.816  0.00  0.00     0.078 H 
BRANCH  15  18
ATOM     18  N1  L1O d   1      32.944   4.626  26.454  0.00  0.00    -0.077 N 
ATOM     19  H1  L1O d   1      33.281   3.680  26.367  0.00  0.00     0.274 HD
ATOM     20  H2  L1O d   1      33.721   5.266  26.397  0.00  0.00     0.274 HD
ATOM     21  H3  L1O d   1      32.293   4.820  25.709  0.00  0.00     0.274 HD
ENDBRANCH  15  18
ENDBRANCH  12  15
ENDBRANCH  11  12
ENDBRANCH   1  11
BRANCH   5  22
ATOM     22  C13 L1O d   1      26.818  10.233  28.901  0.00  0.00     0.209 C 
ATOM     23  O14 L1O d   1      26.307  10.160  30.002  0.00  0.00    -0.644 OA
ATOM     24  O15 L1O d   1      26.588  11.222  28.075  0.00  0.00    -0.644 OA
ENDBRANCH   5  22
TORSDOF 5
