REMARK  14 active torsions:
REMARK  status: ('A' for Active; 'I' for Inactive)
REMARK    1  A    between atoms: C3_1  and  C2_2 
REMARK    2  A    between atoms: O8_26  and  C3_1 
REMARK    3  A    between atoms: C5_3  and  C6_4 
REMARK    4  A    between atoms: O3_24  and  C5_3 
REMARK    5  A    between atoms: C7_7  and  O3_24 
REMARK    6  A    between atoms: C12_9  and  N13_10 
REMARK       I    between atoms: N13_10  and  C14_11 
REMARK    7  A    between atoms: C14_11  and  C16_13 
REMARK    8  A    between atoms: C18_15  and  C19_16 
REMARK    9  A    between atoms: C20_17  and  O21_18 
REMARK   10  A    between atoms: O21_18  and  C22_19 
REMARK   11  A    between atoms: C22_19  and  C23_20 
REMARK   12  A    between atoms: C23_20  and  N24_21 
REMARK   13  A    between atoms: C28_22  and  C29_23 
REMARK   14  A    between atoms: O8_26  and  C11_27 
ROOT
ATOM      1  N13 D55 d   1      26.545  10.684  30.053  0.00  0.00    -0.320 N 
ATOM      2  C14 D55 d   1      26.945  10.639  28.770  0.00  0.00     0.256 C 
ATOM      3  O15 D55 d   1      26.551  11.434  27.953  0.00  0.00    -0.267 OA
ATOM      4  H14 D55 d   1      26.912   9.985  30.667  0.00  0.00     0.169 HD
ENDROOT
BRANCH   2   5
ATOM      5  C16 D55 d   1      27.895   9.537  28.395  0.00  0.00     0.033 A 
ATOM      6  C17 D55 d   1      29.013   9.794  27.608  0.00  0.00    -0.059 A 
ATOM      7  C18 D55 d   1      29.898   8.783  27.249  0.00  0.00    -0.027 A 
ATOM      8  H15 D55 d   1      29.199  10.806  27.267  0.00  0.00     0.086 H 
ATOM      9  C20 D55 d   1      29.643   7.473  27.697  0.00  0.00     0.080 A 
ATOM     10  C28 D55 d   1      28.514   7.200  28.489  0.00  0.00    -0.027 A 
ATOM     11  C30 D55 d   1      27.659   8.239  28.825  0.00  0.00    -0.059 A 
ATOM     12  H29 D55 d   1      26.788   8.033  29.436  0.00  0.00     0.086 H 
BRANCH   7  13
ATOM     13  C19 D55 d   1      31.101   9.088  26.395  0.00  0.00    -0.049 C 
ATOM     14  H16 D55 d   1      31.117  10.161  26.154  0.00  0.00     0.033 H 
ATOM     15  H17 D55 d   1      31.047   8.504  25.464  0.00  0.00     0.033 H 
ATOM     16  H18 D55 d   1      32.017   8.821  26.943  0.00  0.00     0.033 H 
ENDBRANCH   7  13
BRANCH   9  17
ATOM     17  O21 D55 d   1      30.470   6.425  27.371  0.00  0.00    -0.348 OA
BRANCH  17  18
ATOM     18  C22 D55 d   1      31.652   6.226  28.176  0.00  0.00     0.048 C 
ATOM     19  H19 D55 d   1      31.417   6.411  29.235  0.00  0.00     0.077 H 
ATOM     20  H20 D55 d   1      32.444   6.916  27.850  0.00  0.00     0.077 H 
BRANCH  18  21
ATOM     21  C23 D55 d   1      32.114   4.792  27.996  0.00  0.00     0.100 C 
ATOM     22  H21 D55 d   1      31.234   4.133  28.016  0.00  0.00     0.078 H 
ATOM     23  H22 D55 d   1      32.786   4.531  28.827  0.00  0.00     0.078 H 
BRANCH  21  24
ATOM     24  N24 D55 d   1      32.837   4.582  26.714  0.00  0.00    -0.077 N 
ATOM     25  H23 D55 d   1      33.122   3.618  26.643  0.00  0.00     0.274 HD
ATOM     26  H24 D55 d   1      33.651   5.176  26.686  0.00  0.00     0.274 HD
ATOM     27  H25 D55 d   1      32.228   4.810  25.944  0.00  0.00     0.274 HD
ENDBRANCH  21  24
ENDBRANCH  18  21
ENDBRANCH  17  18
ENDBRANCH   9  17
BRANCH  10  28
ATOM     28  C29 D55 d   1      28.242   5.798  28.969  0.00  0.00    -0.049 C 
ATOM     29  H26 D55 d   1      27.320   5.788  29.569  0.00  0.00     0.033 H 
ATOM     30  H27 D55 d   1      29.085   5.451  29.585  0.00  0.00     0.033 H 
ATOM     31  H28 D55 d   1      28.122   5.131  28.103  0.00  0.00     0.033 H 
ENDBRANCH  10  28
ENDBRANCH   2   5
BRANCH   1  32
ATOM     32  C12 D55 d   1      25.655  11.627  30.615  0.00  0.00     0.071 A 
ATOM     33  C31 D55 d   1      24.326  11.699  30.217  0.00  0.00    -0.022 A 
ATOM     34  C7  D55 d   1      23.455  12.624  30.784  0.00  0.00     0.071 A 
ATOM     35  H13 D55 d   1      23.962  11.023  29.452  0.00  0.00     0.091 H 
ATOM     36  C8  D55 d   1      23.938  13.503  31.746  0.00  0.00    -0.048 A 
ATOM     37  C9  D55 d   1      25.258  13.449  32.148  0.00  0.00    -0.046 A 
ATOM     38  H12 D55 d   1      23.273  14.238  32.185  0.00  0.00     0.087 H 
ATOM     39  C11 D55 d   1      26.128  12.514  31.598  0.00  0.00     0.095 A 
ATOM     40  H11 D55 d   1      25.619  14.142  32.899  0.00  0.00     0.087 H 
BRANCH  34  41
ATOM     41  O3  D55 d   1      22.135  12.692  30.407  0.00  0.00    -0.351 OA
BRANCH  41  42
ATOM     42  C5  D55 d   1      21.603  11.610  29.587  0.00  0.00     0.023 C 
ATOM     43  H6  D55 d   1      21.905  11.758  28.540  0.00  0.00     0.074 H 
ATOM     44  H7  D55 d   1      21.993  10.647  29.949  0.00  0.00     0.074 H 
BRANCH  42  45
ATOM     45  C6  D55 d   1      20.096  11.615  29.685  0.00  0.00    -0.056 C 
ATOM     46  H8  D55 d   1      19.686  10.801  29.069  0.00  0.00     0.030 H 
ATOM     47  H9  D55 d   1      19.708  12.579  29.324  0.00  0.00     0.030 H 
ATOM     48  H10 D55 d   1      19.796  11.468  30.733  0.00  0.00     0.030 H 
ENDBRANCH  42  45
ENDBRANCH  41  42
ENDBRANCH  34  41
BRANCH  39  49
ATOM     49  O8  D55 d   1      27.457  12.387  31.914  0.00  0.00    -0.349 OA
BRANCH  49  50
ATOM     50  C3  D55 d   1      28.212  13.592  32.164  0.00  0.00     0.023 C 
ATOM     51  H1  D55 d   1      28.449  14.084  31.209  0.00  0.00     0.074 H 
ATOM     52  H2  D55 d   1      27.620  14.275  32.792  0.00  0.00     0.074 H 
BRANCH  50  53
ATOM     53  C2  D55 d   1      29.489  13.229  32.876  0.00  0.00    -0.056 C 
ATOM     54  H3  D55 d   1      30.072  14.141  33.071  0.00  0.00     0.030 H 
ATOM     55  H4  D55 d   1      30.078  12.545  32.247  0.00  0.00     0.030 H 
ATOM     56  H5  D55 d   1      29.250  12.736  33.830  0.00  0.00     0.030 H 
ENDBRANCH  50  53
ENDBRANCH  49  50
ENDBRANCH  39  49
ENDBRANCH   1  32
TORSDOF 14
