REMARK  9 active torsions:
REMARK  status: ('A' for Active; 'I' for Inactive)
REMARK    1  A    between atoms: N1_1  and  C7_7 
REMARK    2  A    between atoms: C12_12  and  N13_13 
REMARK       I    between atoms: N13_13  and  C14_14 
REMARK    3  A    between atoms: C14_14  and  C16_16 
REMARK    4  A    between atoms: C18_18  and  C19_19 
REMARK    5  A    between atoms: C20_20  and  O21_21 
REMARK    6  A    between atoms: O21_21  and  C22_22 
REMARK    7  A    between atoms: C22_22  and  C23_23 
REMARK    8  A    between atoms: C23_23  and  N24_24 
REMARK    9  A    between atoms: C28_25  and  C29_26 
ROOT
ATOM      1  N13 VG2 d   1      26.620  10.666  29.914  0.00  0.00    -0.323 N 
ATOM      2  C14 VG2 d   1      27.144  10.631  28.683  0.00  0.00     0.256 C 
ATOM      3  O15 VG2 d   1      26.872  11.445  27.834  0.00  0.00    -0.267 OA
ATOM      4  H13 VG2 d   1      26.897   9.956  30.561  0.00  0.00     0.169 HD
ENDROOT
BRANCH   2   5
ATOM      5  C16 VG2 d   1      28.064   9.498  28.375  0.00  0.00     0.033 A 
ATOM      6  C17 VG2 d   1      27.823   8.231  28.889  0.00  0.00    -0.059 A 
ATOM      7  C18 VG2 d   1      28.648   7.165  28.573  0.00  0.00    -0.027 A 
ATOM      8  H14 VG2 d   1      26.976   8.074  29.547  0.00  0.00     0.086 H 
ATOM      9  C20 VG2 d   1      29.742   7.385  27.747  0.00  0.00     0.080 A 
ATOM     10  C28 VG2 d   1      30.017   8.664  27.233  0.00  0.00    -0.027 A 
ATOM     11  C30 VG2 d   1      29.161   9.707  27.551  0.00  0.00    -0.059 A 
ATOM     12  H28 VG2 d   1      29.351  10.697  27.152  0.00  0.00     0.086 H 
BRANCH   7  13
ATOM     13  C19 VG2 d   1      28.365   5.789  29.117  0.00  0.00    -0.049 C 
ATOM     14  H15 VG2 d   1      27.462   5.822  29.745  0.00  0.00     0.033 H 
ATOM     15  H16 VG2 d   1      29.220   5.450  29.721  0.00  0.00     0.033 H 
ATOM     16  H17 VG2 d   1      28.206   5.090  28.282  0.00  0.00     0.033 H 
ENDBRANCH   7  13
BRANCH   9  17
ATOM     17  O21 VG2 d   1      30.553   6.315  27.481  0.00  0.00    -0.348 OA
BRANCH  17  18
ATOM     18  C22 VG2 d   1      31.701   6.129  28.351  0.00  0.00     0.048 C 
ATOM     19  H18 VG2 d   1      31.389   6.218  29.402  0.00  0.00     0.077 H 
ATOM     20  H19 VG2 d   1      32.463   6.891  28.129  0.00  0.00     0.077 H 
BRANCH  18  21
ATOM     21  C23 VG2 d   1      32.271   4.747  28.102  0.00  0.00     0.100 C 
ATOM     22  H20 VG2 d   1      31.457   4.008  28.141  0.00  0.00     0.078 H 
ATOM     23  H21 VG2 d   1      33.013   4.517  28.880  0.00  0.00     0.078 H 
BRANCH  21  24
ATOM     24  N24 VG2 d   1      32.925   4.683  26.769  0.00  0.00    -0.077 N 
ATOM     25  H22 VG2 d   1      33.297   3.758  26.622  0.00  0.00     0.274 HD
ATOM     26  H23 VG2 d   1      33.674   5.357  26.729  0.00  0.00     0.274 HD
ATOM     27  H24 VG2 d   1      32.248   4.891  26.052  0.00  0.00     0.274 HD
ENDBRANCH  21  24
ENDBRANCH  18  21
ENDBRANCH  17  18
ENDBRANCH   9  17
BRANCH  10  28
ATOM     28  C29 VG2 d   1      31.215   8.903  26.351  0.00  0.00    -0.049 C 
ATOM     29  H25 VG2 d   1      31.249   9.963  26.058  0.00  0.00     0.033 H 
ATOM     30  H26 VG2 d   1      31.138   8.276  25.451  0.00  0.00     0.033 H 
ATOM     31  H27 VG2 d   1      32.132   8.645  26.901  0.00  0.00     0.033 H 
ENDBRANCH  10  28
ENDBRANCH   2   5
BRANCH   1  32
ATOM     32  C12 VG2 d   1      25.701  11.641  30.357  0.00  0.00     0.038 A 
ATOM     33  C11 VG2 d   1      25.712  12.081  31.668  0.00  0.00    -0.036 A 
ATOM     34  C9  VG2 d   1      24.792  13.035  32.074  0.00  0.00     0.037 A 
ATOM     35  H12 VG2 d   1      26.434  11.683  32.372  0.00  0.00     0.089 H 
ATOM     36  C8  VG2 d   1      23.876  13.568  31.182  0.00  0.00    -0.041 A 
ATOM     37 CL   VG2 d   1      24.805  13.574  33.712  0.00  0.00    -0.084 Cl
ATOM     38  C7  VG2 d   1      23.863  13.137  29.863  0.00  0.00     0.014 A 
ATOM     39  H11 VG2 d   1      23.170  14.321  31.514  0.00  0.00     0.088 H 
ATOM     40  C31 VG2 d   1      24.785  12.178  29.464  0.00  0.00    -0.036 A 
ATOM     41  H29 VG2 d   1      24.789  11.842  28.433  0.00  0.00     0.089 H 
BRANCH  38  42
ATOM     42  N1  VG2 d   1      22.954  13.674  28.944  0.00  0.00    -0.283 NA
ATOM     43  C2  VG2 d   1      23.601  14.224  27.748  0.00  0.00    -0.016 C 
ATOM     44  C3  VG2 d   1      22.575  14.510  26.665  0.00  0.00    -0.054 C 
ATOM     45  H1  VG2 d   1      24.334  13.497  27.368  0.00  0.00     0.056 H 
ATOM     46  H2  VG2 d   1      24.116  15.159  28.014  0.00  0.00     0.056 H 
ATOM     47  C4  VG2 d   1      21.505  15.462  27.171  0.00  0.00    -0.063 C 
ATOM     48  H3  VG2 d   1      22.101  13.566  26.359  0.00  0.00     0.034 H 
ATOM     49  H4  VG2 d   1      23.081  14.964  25.800  0.00  0.00     0.034 H 
ATOM     50  C5  VG2 d   1      20.908  14.957  28.473  0.00  0.00    -0.054 C 
ATOM     51  H5  VG2 d   1      20.709  15.544  26.417  0.00  0.00     0.033 H 
ATOM     52  H6  VG2 d   1      21.953  16.452  27.340  0.00  0.00     0.033 H 
ATOM     53  C6  VG2 d   1      21.998  14.647  29.487  0.00  0.00    -0.016 C 
ATOM     54  H7  VG2 d   1      20.331  14.042  28.273  0.00  0.00     0.034 H 
ATOM     55  H8  VG2 d   1      20.241  15.728  28.886  0.00  0.00     0.034 H 
ATOM     56  H9  VG2 d   1      22.532  15.575  29.738  0.00  0.00     0.056 H 
ATOM     57  H10 VG2 d   1      21.538  14.232  30.396  0.00  0.00     0.056 H 
ENDBRANCH  38  42
ENDBRANCH   1  32
TORSDOF 9
