REMARK  12 active torsions:
REMARK  status: ('A' for Active; 'I' for Inactive)
REMARK    1  A    between atoms: C7_7  and  N1_1 
REMARK    2  A    between atoms: O12_30  and  C11_11 
REMARK    3  A    between atoms: C12_12  and  N13_13 
REMARK       I    between atoms: N13_13  and  C14_14 
REMARK    4  A    between atoms: C14_14  and  C16_16 
REMARK    5  A    between atoms: C18_18  and  C19_20 
REMARK    6  A    between atoms: C13_31  and  C10_19 
REMARK    7  A    between atoms: C20_21  and  O21_22 
REMARK    8  A    between atoms: O21_22  and  C22_23 
REMARK    9  A    between atoms: C22_23  and  C23_24 
REMARK   10  A    between atoms: C23_24  and  N24_25 
REMARK   11  A    between atoms: C28_26  and  C29_27 
REMARK   12  A    between atoms: O12_30  and  C13_31 
ROOT
ATOM      1  C7  D56 d   1      23.692  12.494  29.864  0.00  0.00     0.034 A 
ATOM      2  C8  D56 d   1      23.932  13.121  31.080  0.00  0.00    -0.034 A 
ATOM      3  C9  D56 d   1      25.186  13.057  31.672  0.00  0.00     0.071 A 
ATOM      4 CL   D56 d   1      25.452  13.839  33.194  0.00  0.00    -0.081 Cl
ATOM      5  C11 D56 d   1      26.219  12.339  31.056  0.00  0.00     0.117 A 
ATOM      6  C12 D56 d   1      25.988  11.718  29.832  0.00  0.00     0.072 A 
ATOM      7  C31 D56 d   1      24.726  11.788  29.259  0.00  0.00    -0.029 A 
ATOM      8  H11 D56 d   1      23.133  13.665  31.571  0.00  0.00     0.089 H 
ATOM      9  H31 D56 d   1      24.542  11.281  28.319  0.00  0.00     0.090 H 
ENDROOT
BRANCH   6  10
ATOM     10  N13 D56 d   1      27.048  11.001  29.251  0.00  0.00    -0.320 N 
ATOM     11  C14 D56 d   1      27.298  10.809  27.953  0.00  0.00     0.256 C 
ATOM     12  O15 D56 d   1      26.797  11.476  27.080  0.00  0.00    -0.267 OA
ATOM     13  H12 D56 d   1      27.695  10.583  29.888  0.00  0.00     0.169 HD
BRANCH  11  14
ATOM     14  C16 D56 d   1      28.222   9.683  27.638  0.00  0.00     0.033 A 
ATOM     15  C17 D56 d   1      27.979   8.435  28.204  0.00  0.00    -0.059 A 
ATOM     16  C18 D56 d   1      28.795   7.349  27.920  0.00  0.00    -0.027 A 
ATOM     17  H13 D56 d   1      27.139   8.309  28.877  0.00  0.00     0.086 H 
ATOM     18  C20 D56 d   1      29.876   7.534  27.049  0.00  0.00     0.080 A 
ATOM     19  C28 D56 d   1      30.138   8.793  26.473  0.00  0.00    -0.027 A 
ATOM     20  C30 D56 d   1      29.298   9.857  26.776  0.00  0.00    -0.059 A 
ATOM     21  H30 D56 d   1      29.483  10.831  26.337  0.00  0.00     0.086 H 
BRANCH  16  22
ATOM     22  C19 D56 d   1      28.523   6.002  28.535  0.00  0.00    -0.049 C 
ATOM     23  H17 D56 d   1      27.637   6.067  29.183  0.00  0.00     0.033 H 
ATOM     24  H18 D56 d   1      29.392   5.689  29.133  0.00  0.00     0.033 H 
ATOM     25  H19 D56 d   1      28.341   5.265  27.739  0.00  0.00     0.033 H 
ENDBRANCH  16  22
BRANCH  18  26
ATOM     26  O21 D56 d   1      30.702   6.472  26.784  0.00  0.00    -0.348 OA
BRANCH  26  27
ATOM     27  C22 D56 d   1      31.691   6.144  27.772  0.00  0.00     0.048 C 
ATOM     28  H20 D56 d   1      31.370   6.511  28.758  0.00  0.00     0.077 H 
ATOM     29  H21 D56 d   1      32.653   6.605  27.504  0.00  0.00     0.077 H 
BRANCH  27  30
ATOM     30  C23 D56 d   1      31.835   4.635  27.807  0.00  0.00     0.100 C 
ATOM     31  H22 D56 d   1      30.997   4.179  27.260  0.00  0.00     0.078 H 
ATOM     32  H23 D56 d   1      31.819   4.294  28.853  0.00  0.00     0.078 H 
BRANCH  30  33
ATOM     33  N24 D56 d   1      33.118   4.218  27.175  0.00  0.00    -0.077 N 
ATOM     34  H24 D56 d   1      33.197   3.214  27.207  0.00  0.00     0.274 HD
ATOM     35  H25 D56 d   1      33.889   4.632  27.675  0.00  0.00     0.274 HD
ATOM     36  H26 D56 d   1      33.136   4.526  26.215  0.00  0.00     0.274 HD
ENDBRANCH  30  33
ENDBRANCH  27  30
ENDBRANCH  26  27
ENDBRANCH  18  26
BRANCH  19  37
ATOM     37  C29 D56 d   1      31.308   8.985  25.546  0.00  0.00    -0.049 C 
ATOM     38  H27 D56 d   1      31.339  10.031  25.206  0.00  0.00     0.033 H 
ATOM     39  H28 D56 d   1      31.200   8.320  24.676  0.00  0.00     0.033 H 
ATOM     40  H29 D56 d   1      32.240   8.745  26.078  0.00  0.00     0.033 H 
ENDBRANCH  19  37
ENDBRANCH  11  14
ENDBRANCH   6  10
BRANCH   5  41
ATOM     41  O12 D56 d   1      27.486  12.280  31.586  0.00  0.00    -0.347 OA
BRANCH  41  42
ATOM     42  C13 D56 d   1      28.471  13.216  31.045  0.00  0.00     0.023 C 
ATOM     43  H32 D56 d   1      28.784  12.877  30.046  0.00  0.00     0.074 H 
ATOM     44  H33 D56 d   1      28.018  14.215  30.968  0.00  0.00     0.074 H 
BRANCH  42  45
ATOM     45  C10 D56 d   1      29.667  13.284  31.940  0.00  0.00    -0.056 C 
ATOM     46  H14 D56 d   1      30.398  13.991  31.521  0.00  0.00     0.030 H 
ATOM     47  H15 D56 d   1      30.124  12.287  32.018  0.00  0.00     0.030 H 
ATOM     48  H16 D56 d   1      29.358  13.625  32.939  0.00  0.00     0.030 H 
ENDBRANCH  42  45
ENDBRANCH  41  42
ENDBRANCH   5  41
BRANCH   1  49
ATOM     49  N1  D56 d   1      22.398  12.537  29.264  0.00  0.00    -0.381 N 
ATOM     50  C2  D56 d   1      21.638  13.792  29.271  0.00  0.00    -0.005 C 
ATOM     51  C3  D56 d   1      20.538  13.755  28.221  0.00  0.00    -0.050 C 
ATOM     52  H1  D56 d   1      22.318  14.628  29.053  0.00  0.00     0.064 H 
ATOM     53  H2  D56 d   1      21.186  13.936  30.264  0.00  0.00     0.064 H 
ATOM     54  C4  D56 d   1      19.609  12.574  28.447  0.00  0.00    -0.062 C 
ATOM     55  H3  D56 d   1      20.995  13.668  27.224  0.00  0.00     0.035 H 
ATOM     56  H4  D56 d   1      19.956  14.687  28.277  0.00  0.00     0.035 H 
ATOM     57  C5  D56 d   1      20.398  11.283  28.575  0.00  0.00    -0.050 C 
ATOM     58  H5  D56 d   1      18.918  12.491  27.595  0.00  0.00     0.033 H 
ATOM     59  H6  D56 d   1      19.035  12.739  29.371  0.00  0.00     0.033 H 
ATOM     60  C6  D56 d   1      21.507  11.422  29.607  0.00  0.00    -0.005 C 
ATOM     61  H7  D56 d   1      20.843  11.035  27.600  0.00  0.00     0.035 H 
ATOM     62  H8  D56 d   1      19.718  10.475  28.884  0.00  0.00     0.035 H 
ATOM     63  H9  D56 d   1      21.060  11.608  30.595  0.00  0.00     0.064 H 
ATOM     64  H10 D56 d   1      22.090  10.490  29.638  0.00  0.00     0.064 H 
ENDBRANCH   1  49
TORSDOF 12
