REMARK  18 active torsions:
REMARK  status: ('A' for Active; 'I' for Inactive)
REMARK       I    between atoms: N2_2  and  C1_1 
REMARK    1  A    between atoms: C1_1  and  C7_7 
REMARK    2  A    between atoms: C3_3  and  N2_2 
REMARK    3  A    between atoms: C4_4  and  C3_3 
REMARK    4  A    between atoms: C3_3  and  C5_5 
REMARK    5  A    between atoms: C4_4  and  O19_19 
REMARK    6  A    between atoms: C21_21  and  C4_4 
REMARK    7  A    between atoms: C5_5  and  C13_13 
REMARK    8  A    between atoms: C11_11  and  S23_23 
REMARK    9  A    between atoms: N22_22  and  C20_20 
REMARK   10  A    between atoms: C20_20  and  C24_24 
REMARK   11  A    between atoms: C20_20  and  C38_25 
REMARK   12  A    between atoms: C21_21  and  N22_22 
REMARK   13  A    between atoms: S23_23  and  C60_34 
REMARK       I    between atoms: C38_25  and  N39_26 
REMARK   14  A    between atoms: N39_26  and  C40_27 
REMARK   15  A    between atoms: C60_34  and  C61_35 
REMARK   16  A    between atoms: C61_35  and  C64_36 
REMARK   17  A    between atoms: C64_36  and  C67_37 
REMARK   18  A    between atoms: C67_37  and  C70_38 
ROOT
ATOM      1  C3  VG3 d   1      29.202   2.345  32.550  0.00  0.00     0.042 C 
ATOM      2  H2  VG3 d   1      30.185   2.719  32.228  0.00  0.00     0.077 H 
ENDROOT
BRANCH   1   3
ATOM      3  N2  VG3 d   1      29.360   1.456  33.717  0.00  0.00    -0.349 N 
ATOM      4  C1  VG3 d   1      30.547   1.245  34.359  0.00  0.00     0.252 C 
ATOM      5  O6  VG3 d   1      31.504   2.017  34.224  0.00  0.00    -0.268 OA
ATOM      6  H1  VG3 d   1      28.550   0.980  34.058  0.00  0.00     0.163 HD
BRANCH   4   7
ATOM      7  C7  VG3 d   1      30.572   0.047  35.215  0.00  0.00     0.033 A 
ATOM      8  C8  VG3 d   1      30.153  -1.229  34.731  0.00  0.00    -0.068 A 
ATOM      9  C9  VG3 d   1      30.176  -2.361  35.583  0.00  0.00    -0.081 A 
ATOM     10  H6  VG3 d   1      29.815  -1.333  33.706  0.00  0.00     0.085 H 
ATOM     11  C10 VG3 d   1      30.611  -2.234  36.921  0.00  0.00    -0.062 A 
ATOM     12  H7  VG3 d   1      29.859  -3.327  35.207  0.00  0.00     0.083 H 
ATOM     13  C11 VG3 d   1      31.029  -0.973  37.410  0.00  0.00     0.060 A 
ATOM     14  H8  VG3 d   1      30.625  -3.101  37.572  0.00  0.00     0.085 H 
ATOM     15  C12 VG3 d   1      31.011   0.168  36.565  0.00  0.00    -0.047 A 
ATOM     16  H9  VG3 d   1      31.331   1.131  36.947  0.00  0.00     0.087 H 
BRANCH  13  17
ATOM     17  S23 VG3 d   1      31.555  -0.833  39.100  0.00  0.00     0.175 S 
ATOM     18  O76 VG3 d   1      30.530  -1.417  39.924  0.00  0.00    -0.223 OA
ATOM     19  O77 VG3 d   1      31.930   0.525  39.343  0.00  0.00    -0.223 OA
BRANCH  17  20
ATOM     20  C60 VG3 d   1      32.995  -1.891  39.170  0.00  0.00     0.033 C 
ATOM     21  H36 VG3 d   1      33.761  -1.518  38.474  0.00  0.00     0.056 H 
ATOM     22  H37 VG3 d   1      32.713  -2.917  38.890  0.00  0.00     0.056 H 
BRANCH  20  23
ATOM     23  C61 VG3 d   1      33.553  -1.884  40.600  0.00  0.00    -0.052 C 
ATOM     24  H38 VG3 d   1      32.766  -2.236  41.283  0.00  0.00     0.034 H 
ATOM     25  H39 VG3 d   1      33.830  -0.852  40.861  0.00  0.00     0.034 H 
BRANCH  23  26
ATOM     26  C64 VG3 d   1      34.787  -2.779  40.776  0.00  0.00    -0.065 C 
ATOM     27  H40 VG3 d   1      35.581  -2.426  40.101  0.00  0.00     0.033 H 
ATOM     28  H41 VG3 d   1      34.516  -3.812  40.515  0.00  0.00     0.033 H 
BRANCH  26  29
ATOM     29  C67 VG3 d   1      35.316  -2.755  42.218  0.00  0.00    -0.069 C 
ATOM     30  H42 VG3 d   1      34.521  -3.106  42.892  0.00  0.00     0.032 H 
ATOM     31  H43 VG3 d   1      35.588  -1.721  42.478  0.00  0.00     0.032 H 
BRANCH  29  32
ATOM     32  C70 VG3 d   1      36.549  -3.650  42.402  0.00  0.00    -0.077 C 
ATOM     33  H44 VG3 d   1      36.887  -3.598  43.447  0.00  0.00     0.027 H 
ATOM     34  H45 VG3 d   1      37.355  -3.305  41.738  0.00  0.00     0.027 H 
ATOM     35  H46 VG3 d   1      36.288  -4.689  42.153  0.00  0.00     0.027 H 
ENDBRANCH  29  32
ENDBRANCH  26  29
ENDBRANCH  23  26
ENDBRANCH  20  23
ENDBRANCH  17  20
ENDBRANCH  13  17
ENDBRANCH   4   7
ENDBRANCH   1   3
BRANCH   1  36
ATOM     36  C4  VG3 d   1      28.337   3.524  33.019  0.00  0.00     0.078 C 
ATOM     37  H3  VG3 d   1      27.372   3.120  33.359  0.00  0.00     0.088 H 
BRANCH  36  38
ATOM     38  O19 VG3 d   1      28.098   4.450  31.987  0.00  0.00    -0.392 OA
ATOM     39  H15 VG3 d   1      27.646   4.017  31.273  0.00  0.00     0.210 HD
ENDBRANCH  36  38
BRANCH  36  40
ATOM     40  C21 VG3 d   1      28.993   4.282  34.186  0.00  0.00     0.108 C 
ATOM     41  H17 VG3 d   1      30.040   4.508  33.934  0.00  0.00     0.079 H 
ATOM     42  H18 VG3 d   1      28.960   3.659  35.092  0.00  0.00     0.079 H 
BRANCH  40  43
ATOM     43  N22 VG3 d   1      28.273   5.524  34.425  0.00  0.00    -0.060 N 
ATOM     44  H19 VG3 d   1      27.828   5.764  33.553  0.00  0.00     0.278 HD
ATOM     45  H20 VG3 d   1      27.569   5.314  35.115  0.00  0.00     0.278 HD
BRANCH  43  46
ATOM     46  C20 VG3 d   1      28.956   6.745  34.890  0.00  0.00     0.174 C 
ATOM     47  H16 VG3 d   1      28.221   7.562  34.931  0.00  0.00     0.099 H 
BRANCH  46  48
ATOM     48  C24 VG3 d   1      29.526   6.525  36.307  0.00  0.00    -0.041 C 
ATOM     49  H21 VG3 d   1      30.033   7.441  36.645  0.00  0.00     0.030 H 
ATOM     50  H22 VG3 d   1      30.246   5.693  36.288  0.00  0.00     0.030 H 
ATOM     51  H23 VG3 d   1      28.706   6.284  36.999  0.00  0.00     0.030 H 
ENDBRANCH  46  48
BRANCH  46  52
ATOM     52  C38 VG3 d   1      30.091   7.154  33.904  0.00  0.00     0.248 C 
ATOM     53  N39 VG3 d   1      29.635   7.931  32.904  0.00  0.00    -0.355 N 
ATOM     54  H24 VG3 d   1      28.672   8.200  32.913  0.00  0.00     0.162 HD
ATOM     55  O41 VG3 d   1      31.256   6.777  34.042  0.00  0.00    -0.271 OA
BRANCH  53  56
ATOM     56  C40 VG3 d   1      30.479   8.402  31.803  0.00  0.00     0.012 C 
ATOM     57  C43 VG3 d   1      30.895   9.865  32.078  0.00  0.00    -0.046 C 
ATOM     58  C44 VG3 d   1      31.780  10.403  30.884  0.00  0.00    -0.063 C 
ATOM     59  H26 VG3 d   1      31.475   9.911  33.012  0.00  0.00     0.035 H 
ATOM     60  H27 VG3 d   1      29.994  10.489  32.175  0.00  0.00     0.035 H 
ATOM     61  C45 VG3 d   1      31.086  10.244  29.507  0.00  0.00    -0.065 C 
ATOM     62  H28 VG3 d   1      32.727   9.843  30.868  0.00  0.00     0.033 H 
ATOM     63  H29 VG3 d   1      31.988  11.470  31.052  0.00  0.00     0.033 H 
ATOM     64  C46 VG3 d   1      30.568   8.798  29.279  0.00  0.00    -0.063 C 
ATOM     65  H30 VG3 d   1      31.808  10.491  28.715  0.00  0.00     0.033 H 
ATOM     66  H31 VG3 d   1      30.234  10.938  29.456  0.00  0.00     0.033 H 
ATOM     67  C47 VG3 d   1      29.707   8.295  30.468  0.00  0.00    -0.046 C 
ATOM     68  H32 VG3 d   1      31.431   8.127  29.156  0.00  0.00     0.033 H 
ATOM     69  H33 VG3 d   1      29.956   8.780  28.365  0.00  0.00     0.033 H 
ATOM     70  H34 VG3 d   1      28.793   8.904  30.532  0.00  0.00     0.035 H 
ATOM     71  H35 VG3 d   1      29.435   7.243  30.294  0.00  0.00     0.035 H 
ATOM     72  H25 VG3 d   1      31.382   7.776  31.744  0.00  0.00     0.072 H 
ENDBRANCH  53  56
ENDBRANCH  46  52
ENDBRANCH  43  46
ENDBRANCH  40  43
ENDBRANCH  36  40
ENDBRANCH   1  36
BRANCH   1  73
ATOM     73  C5  VG3 d   1      28.560   1.564  31.376  0.00  0.00    -0.020 C 
ATOM     74  H4  VG3 d   1      28.638   2.179  30.467  0.00  0.00     0.043 H 
ATOM     75  H5  VG3 d   1      27.500   1.393  31.613  0.00  0.00     0.043 H 
BRANCH  73  76
ATOM     76  C13 VG3 d   1      29.209   0.224  31.102  0.00  0.00    -0.056 A 
ATOM     77  C14 VG3 d   1      28.428  -0.965  31.089  0.00  0.00    -0.077 A 
ATOM     78  C15 VG3 d   1      29.035  -2.220  30.835  0.00  0.00    -0.082 A 
ATOM     79  H10 VG3 d   1      27.361  -0.911  31.275  0.00  0.00     0.084 H 
ATOM     80  C16 VG3 d   1      30.427  -2.296  30.593  0.00  0.00    -0.083 A 
ATOM     81  H11 VG3 d   1      28.433  -3.122  30.826  0.00  0.00     0.083 H 
ATOM     82  C17 VG3 d   1      31.214  -1.117  30.605  0.00  0.00    -0.082 A 
ATOM     83  H12 VG3 d   1      30.892  -3.256  30.398  0.00  0.00     0.083 H 
ATOM     84  C18 VG3 d   1      30.609   0.136  30.857  0.00  0.00    -0.077 A 
ATOM     85  H13 VG3 d   1      32.281  -1.176  30.421  0.00  0.00     0.083 H 
ATOM     86  H14 VG3 d   1      31.215   1.035  30.864  0.00  0.00     0.084 H 
ENDBRANCH  73  76
ENDBRANCH   1  73
TORSDOF 18
