REMARK  17 active torsions:
REMARK  status: ('A' for Active; 'I' for Inactive)
REMARK    1  A    between atoms: C1_1  and  N77_37 
REMARK    2  A    between atoms: C3_3  and  C7_7 
REMARK    3  A    between atoms: C5_5  and  O66_33 
REMARK       I    between atoms: C7_7  and  N8_8 
REMARK    4  A    between atoms: N8_8  and  C10_10 
REMARK    5  A    between atoms: C10_10  and  C11_11 
REMARK    6  A    between atoms: C10_10  and  C12_12 
REMARK    7  A    between atoms: C11_11  and  C14_14 
REMARK    8  A    between atoms: C12_12  and  O13_13 
REMARK    9  A    between atoms: C12_12  and  C15_15 
REMARK   10  A    between atoms: C15_15  and  N16_16 
REMARK   11  A    between atoms: N16_16  and  C17_17 
REMARK   12  A    between atoms: C17_17  and  C18_18 
REMARK   13  A    between atoms: C17_17  and  C22_22 
REMARK       I    between atoms: C18_18  and  N19_19 
REMARK   14  A    between atoms: N19_19  and  C21_21 
REMARK   15  A    between atoms: O66_33  and  C67_34 
REMARK   16  A    between atoms: C67_34  and  C68_35 
REMARK   17  A    between atoms: C68_35  and  C71_36 
ROOT
ATOM      1  C10 VG4 d   1      29.267   2.396  32.535  0.00  0.00     0.042 C 
ATOM      2  H5  VG4 d   1      30.237   2.837  32.261  0.00  0.00     0.077 H 
ENDROOT
BRANCH   1   3
ATOM      3  N8  VG4 d   1      29.494   1.346  33.551  0.00  0.00    -0.349 N 
ATOM      4  C7  VG4 d   1      30.673   1.252  34.237  0.00  0.00     0.252 C 
ATOM      5  O9  VG4 d   1      31.589   2.058  34.046  0.00  0.00    -0.268 OA
ATOM      6  H4  VG4 d   1      28.766   0.687  33.741  0.00  0.00     0.163 HD
BRANCH   4   7
ATOM      7  C3  VG4 d   1      30.808   0.123  35.165  0.00  0.00     0.036 A 
ATOM      8  C2  VG4 d   1      31.394   0.235  36.443  0.00  0.00    -0.042 A 
ATOM      9  C1  VG4 d   1      31.510  -0.909  37.285  0.00  0.00     0.040 A 
ATOM     10  H1  VG4 d   1      31.758   1.196  36.787  0.00  0.00     0.088 H 
ATOM     11  C6  VG4 d   1      31.032  -2.162  36.828  0.00  0.00    -0.025 A 
ATOM     12  C5  VG4 d   1      30.441  -2.307  35.558  0.00  0.00     0.071 A 
ATOM     13  H3  VG4 d   1      31.123  -3.030  37.471  0.00  0.00     0.091 H 
ATOM     14  C4  VG4 d   1      30.337  -1.148  34.726  0.00  0.00    -0.035 A 
ATOM     15  H2  VG4 d   1      29.891  -1.238  33.742  0.00  0.00     0.089 H 
BRANCH   9  16
ATOM     16  N77 VG4 d   1      32.090  -0.813  38.526  0.00  0.00    -0.318 N 
ATOM     17  C78 VG4 d   1      33.444  -0.271  38.668  0.00  0.00     0.003 A 
ATOM     18  C79 VG4 d   1      33.754  -0.329  40.153  0.00  0.00    -0.042 A 
ATOM     19  H42 VG4 d   1      33.481   0.768  38.308  0.00  0.00     0.065 H 
ATOM     20  H43 VG4 d   1      34.163  -0.881  38.102  0.00  0.00     0.065 H 
ATOM     21  C80 VG4 d   1      32.545  -0.963  40.839  0.00  0.00     0.011 A 
ATOM     22  H44 VG4 d   1      33.921   0.686  40.544  0.00  0.00     0.036 H 
ATOM     23  H45 VG4 d   1      34.651  -0.941  40.328  0.00  0.00     0.036 H 
ATOM     24  C81 VG4 d   1      31.547  -1.208  39.711  0.00  0.00     0.224 A 
ATOM     25  H46 VG4 d   1      32.122  -0.280  41.590  0.00  0.00     0.047 H 
ATOM     26  H47 VG4 d   1      32.825  -1.911  41.322  0.00  0.00     0.047 H 
ATOM     27  O88 VG4 d   1      30.439  -1.699  39.899  0.00  0.00    -0.273 OA
ENDBRANCH   9  16
BRANCH  12  28
ATOM     28  O66 VG4 d   1      29.956  -3.553  35.073  0.00  0.00    -0.351 OA
BRANCH  28  29
ATOM     29  C67 VG4 d   1      29.092  -3.581  33.934  0.00  0.00     0.026 C 
ATOM     30  H35 VG4 d   1      29.233  -4.525  33.387  0.00  0.00     0.075 H 
ATOM     31  H36 VG4 d   1      29.327  -2.734  33.272  0.00  0.00     0.075 H 
BRANCH  29  32
ATOM     32  C68 VG4 d   1      27.640  -3.475  34.408  0.00  0.00    -0.048 C 
ATOM     33  H37 VG4 d   1      27.519  -2.542  34.978  0.00  0.00     0.035 H 
ATOM     34  H38 VG4 d   1      27.414  -4.333  35.058  0.00  0.00     0.035 H 
BRANCH  32  35
ATOM     35  C71 VG4 d   1      26.663  -3.470  33.243  0.00  0.00    -0.075 C 
ATOM     36  H39 VG4 d   1      25.635  -3.393  33.627  0.00  0.00     0.027 H 
ATOM     37  H40 VG4 d   1      26.771  -4.402  32.670  0.00  0.00     0.027 H 
ATOM     38  H41 VG4 d   1      26.876  -2.611  32.590  0.00  0.00     0.027 H 
ENDBRANCH  32  35
ENDBRANCH  29  32
ENDBRANCH  28  29
ENDBRANCH  12  28
ENDBRANCH   4   7
ENDBRANCH   1   3
BRANCH   1  39
ATOM     39  C11 VG4 d   1      28.655   1.726  31.273  0.00  0.00    -0.020 C 
ATOM     40  H6  VG4 d   1      28.806   2.399  30.416  0.00  0.00     0.043 H 
ATOM     41  H7  VG4 d   1      27.577   1.586  31.444  0.00  0.00     0.043 H 
BRANCH  39  42
ATOM     42  C14 VG4 d   1      29.265   0.372  30.931  0.00  0.00    -0.056 A 
ATOM     43  C56 VG4 d   1      28.414  -0.739  30.709  0.00  0.00    -0.077 A 
ATOM     44  C57 VG4 d   1      28.953  -2.014  30.391  0.00  0.00    -0.082 A 
ATOM     45  H30 VG4 d   1      27.340  -0.614  30.783  0.00  0.00     0.084 H 
ATOM     46  C58 VG4 d   1      30.356  -2.190  30.293  0.00  0.00    -0.083 A 
ATOM     47  H31 VG4 d   1      28.290  -2.855  30.223  0.00  0.00     0.083 H 
ATOM     48  C59 VG4 d   1      31.218  -1.089  30.510  0.00  0.00    -0.082 A 
ATOM     49  H32 VG4 d   1      30.767  -3.164  30.053  0.00  0.00     0.083 H 
ATOM     50  C60 VG4 d   1      30.675   0.183  30.825  0.00  0.00    -0.077 A 
ATOM     51  H33 VG4 d   1      32.292  -1.218  30.436  0.00  0.00     0.083 H 
ATOM     52  H34 VG4 d   1      31.341   1.023  30.987  0.00  0.00     0.084 H 
ENDBRANCH  39  42
ENDBRANCH   1  39
BRANCH   1  53
ATOM     53  C12 VG4 d   1      28.370   3.525  33.085  0.00  0.00     0.078 C 
ATOM     54  H8  VG4 d   1      27.430   3.086  33.450  0.00  0.00     0.088 H 
BRANCH  53  55
ATOM     55  O13 VG4 d   1      28.091   4.457  32.056  0.00  0.00    -0.392 OA
ATOM     56  H9  VG4 d   1      27.642   4.016  31.344  0.00  0.00     0.210 HD
ENDBRANCH  53  55
BRANCH  53  57
ATOM     57  C15 VG4 d   1      29.050   4.282  34.230  0.00  0.00     0.108 C 
ATOM     58  H10 VG4 d   1      30.101   4.471  33.966  0.00  0.00     0.079 H 
ATOM     59  H11 VG4 d   1      29.006   3.672  35.144  0.00  0.00     0.079 H 
BRANCH  57  60
ATOM     60  N16 VG4 d   1      28.379   5.552  34.468  0.00  0.00    -0.060 N 
ATOM     61  H12 VG4 d   1      27.645   5.358  35.131  0.00  0.00     0.278 HD
ATOM     62  H13 VG4 d   1      27.972   5.821  33.586  0.00  0.00     0.278 HD
BRANCH  60  63
ATOM     63  C17 VG4 d   1      29.077   6.747  34.973  0.00  0.00     0.174 C 
ATOM     64  H14 VG4 d   1      28.357   7.572  35.083  0.00  0.00     0.099 H 
BRANCH  63  65
ATOM     65  C18 VG4 d   1      30.152   7.140  33.937  0.00  0.00     0.248 C 
ATOM     66  N19 VG4 d   1      29.665   7.881  32.927  0.00  0.00    -0.355 N 
ATOM     67  H15 VG4 d   1      28.694   8.118  32.929  0.00  0.00     0.162 HD
ATOM     68  O20 VG4 d   1      31.323   6.780  34.055  0.00  0.00    -0.271 OA
BRANCH  66  69
ATOM     69  C21 VG4 d   1      30.504   8.353  31.825  0.00  0.00     0.012 C 
ATOM     70  C23 VG4 d   1      30.980   9.800  32.103  0.00  0.00    -0.046 C 
ATOM     71  C24 VG4 d   1      31.863  10.314  30.939  0.00  0.00    -0.063 C 
ATOM     72  H20 VG4 d   1      31.564   9.816  33.035  0.00  0.00     0.035 H 
ATOM     73  H21 VG4 d   1      30.103  10.456  32.209  0.00  0.00     0.035 H 
ATOM     74  C25 VG4 d   1      31.130  10.212  29.571  0.00  0.00    -0.065 C 
ATOM     75  H22 VG4 d   1      32.782   9.712  30.896  0.00  0.00     0.033 H 
ATOM     76  H23 VG4 d   1      32.123  11.366  31.127  0.00  0.00     0.033 H 
ATOM     77  C26 VG4 d   1      30.581   8.785  29.312  0.00  0.00    -0.063 C 
ATOM     78  H24 VG4 d   1      31.837  10.472  28.769  0.00  0.00     0.033 H 
ATOM     79  H25 VG4 d   1      30.290  10.922  29.564  0.00  0.00     0.033 H 
ATOM     80  C27 VG4 d   1      29.713   8.284  30.493  0.00  0.00    -0.046 C 
ATOM     81  H26 VG4 d   1      31.428   8.097  29.174  0.00  0.00     0.033 H 
ATOM     82  H27 VG4 d   1      29.968   8.799  28.399  0.00  0.00     0.033 H 
ATOM     83  H28 VG4 d   1      28.815   8.914  30.573  0.00  0.00     0.035 H 
ATOM     84  H29 VG4 d   1      29.414   7.242  30.305  0.00  0.00     0.035 H 
ATOM     85  H16 VG4 d   1      31.386   7.701  31.746  0.00  0.00     0.072 H 
ENDBRANCH  66  69
ENDBRANCH  63  65
BRANCH  63  86
ATOM     86  C22 VG4 d   1      29.721   6.461  36.350  0.00  0.00    -0.041 C 
ATOM     87  H17 VG4 d   1      30.236   7.364  36.709  0.00  0.00     0.030 H 
ATOM     88  H18 VG4 d   1      30.446   5.640  36.252  0.00  0.00     0.030 H 
ATOM     89  H19 VG4 d   1      28.939   6.176  37.069  0.00  0.00     0.030 H 
ENDBRANCH  63  86
ENDBRANCH  60  63
ENDBRANCH  57  60
ENDBRANCH  53  57
ENDBRANCH   1  53
TORSDOF 17
