REMARK  1 active torsions:
REMARK  status: ('A' for Active; 'I' for Inactive)
REMARK    1  A    between atoms: CAD_4  and  CAC_5 
ROOT
ATOM      1  CAE XP1 d   1     -20.939 -12.877  37.208  0.00  0.00    -0.083 A 
ATOM      2  CAJ XP1 d   1     -22.005 -12.230  36.575  0.00  0.00    -0.082 A 
ATOM      3  CAI XP1 d   1     -22.766 -11.292  37.255  0.00  0.00    -0.070 A 
ATOM      4  CAD XP1 d   1     -22.465 -10.979  38.579  0.00  0.00     0.002 A 
ATOM      5  CAA XP1 d   1     -21.391 -11.613  39.218  0.00  0.00    -0.070 A 
ATOM      6  CAB XP1 d   1     -20.624 -12.562  38.532  0.00  0.00    -0.082 A 
ATOM      7  H1  XP1 d   1     -20.359 -13.620  36.673  0.00  0.00     0.083 H 
ATOM      8  H2  XP1 d   1     -22.238 -12.464  35.543  0.00  0.00     0.083 H 
ATOM      9  H3  XP1 d   1     -23.595 -10.802  36.757  0.00  0.00     0.084 H 
ATOM     10  H5  XP1 d   1     -21.153 -11.368  40.247  0.00  0.00     0.084 H 
ATOM     11  H6  XP1 d   1     -19.791 -13.049  39.025  0.00  0.00     0.083 H 
ENDROOT
BRANCH   4  12
ATOM     12  CAC XP1 d   1     -23.279  -9.972  39.305  0.00  0.00     0.118 C 
ATOM     13  OAH XP1 d   1     -22.698  -9.227  40.071  0.00  0.00    -0.301 OA
ATOM     14  H4  XP1 d   1     -24.356  -9.903  39.157  0.00  0.00     0.151 H 
ENDBRANCH   4  12
TORSDOF 1
