REMARK  15 active torsions:
REMARK  status: ('A' for Active; 'I' for Inactive)
REMARK    1  A    between atoms: C3_3  and  C7_7 
REMARK    2  A    between atoms: C5_5  and  N1_33 
REMARK       I    between atoms: C7_7  and  N8_8 
REMARK    3  A    between atoms: N8_8  and  C10_10 
REMARK    4  A    between atoms: C10_10  and  C11_11 
REMARK    5  A    between atoms: C10_10  and  C12_12 
REMARK    6  A    between atoms: C11_11  and  C14_14 
REMARK    7  A    between atoms: C12_12  and  O13_13 
REMARK    8  A    between atoms: C12_12  and  C15_15 
REMARK    9  A    between atoms: C15_15  and  N16_16 
REMARK   10  A    between atoms: N16_16  and  C17_17 
REMARK   11  A    between atoms: C17_17  and  C18_18 
REMARK   12  A    between atoms: C17_17  and  C22_22 
REMARK       I    between atoms: C18_18  and  N19_19 
REMARK   13  A    between atoms: N19_19  and  C21_21 
REMARK   14  A    between atoms: N1_33  and  C67_34 
REMARK   15  A    between atoms: C67_34  and  C68_35 
ROOT
ATOM      1  C10 VG5 d   1      28.919   2.447  32.627  0.00  0.00     0.042 C 
ATOM      2  H5  VG5 d   1      29.863   2.887  32.271  0.00  0.00     0.077 H 
ENDROOT
BRANCH   1   3
ATOM      3  N8  VG5 d   1      29.216   1.425  33.665  0.00  0.00    -0.349 N 
ATOM      4  C7  VG5 d   1      30.412   1.327  34.322  0.00  0.00     0.252 C 
ATOM      5  O9  VG5 d   1      31.342   2.111  34.113  0.00  0.00    -0.268 OA
ATOM      6  H4  VG5 d   1      28.498   0.769  33.897  0.00  0.00     0.163 HD
BRANCH   4   7
ATOM      7  C3  VG5 d   1      30.539   0.224  35.252  0.00  0.00     0.036 A 
ATOM      8  C2  VG5 d   1      31.165   0.360  36.514  0.00  0.00    -0.042 A 
ATOM      9  C1  VG5 d   1      31.271  -0.808  37.392  0.00  0.00     0.040 A 
ATOM     10  H1  VG5 d   1      31.562   1.319  36.828  0.00  0.00     0.088 H 
ATOM     11  C6  VG5 d   1      30.728  -2.086  36.950  0.00  0.00    -0.032 A 
ATOM     12  N77 VG5 d   1      31.874  -0.704  38.612  0.00  0.00    -0.318 N 
ATOM     13  C5  VG5 d   1      30.094  -2.249  35.691  0.00  0.00     0.031 A 
ATOM     14  H3  VG5 d   1      30.811  -2.944  37.607  0.00  0.00     0.090 H 
ATOM     15  C4  VG5 d   1      29.999  -1.080  34.826  0.00  0.00    -0.042 A 
ATOM     16  H2  VG5 d   1      29.524  -1.171  33.856  0.00  0.00     0.088 H 
ATOM     17  C78 VG5 d   1      33.215  -0.118  38.718  0.00  0.00     0.003 A 
ATOM     18  C81 VG5 d   1      31.366  -1.100  39.813  0.00  0.00     0.224 A 
ATOM     19  C79 VG5 d   1      33.564  -0.169  40.197  0.00  0.00    -0.042 A 
ATOM     20  H41 VG5 d   1      33.210   0.922  38.360  0.00  0.00     0.065 H 
ATOM     21  H42 VG5 d   1      33.938  -0.704  38.132  0.00  0.00     0.065 H 
ATOM     22  C80 VG5 d   1      32.380  -0.800  40.922  0.00  0.00     0.011 A 
ATOM     23  H43 VG5 d   1      33.739   0.848  40.578  0.00  0.00     0.036 H 
ATOM     24  H44 VG5 d   1      34.467  -0.778  40.350  0.00  0.00     0.036 H 
ATOM     25  H45 VG5 d   1      31.956  -0.100  41.657  0.00  0.00     0.047 H 
ATOM     26  H46 VG5 d   1      32.685  -1.726  41.431  0.00  0.00     0.047 H 
ATOM     27  O88 VG5 d   1      30.278  -1.622  40.032  0.00  0.00    -0.273 OA
BRANCH  13  28
ATOM     28  N1  VG5 d   1      29.579  -3.536  35.311  0.00  0.00    -0.390 N 
ATOM     29  H35 VG5 d   1      29.606  -4.296  36.006  0.00  0.00     0.159 HD
BRANCH  28  30
ATOM     30  C67 VG5 d   1      29.022  -3.823  34.000  0.00  0.00    -0.011 C 
ATOM     31  H36 VG5 d   1      29.338  -4.826  33.678  0.00  0.00     0.063 H 
ATOM     32  H37 VG5 d   1      29.381  -3.076  33.277  0.00  0.00     0.063 H 
BRANCH  30  33
ATOM     33  C68 VG5 d   1      27.487  -3.768  34.076  0.00  0.00    -0.061 C 
ATOM     34  H38 VG5 d   1      27.063  -3.985  33.084  0.00  0.00     0.029 H 
ATOM     35  H39 VG5 d   1      27.172  -2.765  34.398  0.00  0.00     0.029 H 
ATOM     36  H40 VG5 d   1      27.129  -4.515  34.800  0.00  0.00     0.029 H 
ENDBRANCH  30  33
ENDBRANCH  28  30
ENDBRANCH  13  28
ENDBRANCH   4   7
ENDBRANCH   1   3
BRANCH   1  37
ATOM     37  C11 VG5 d   1      28.230   1.673  31.452  0.00  0.00    -0.020 C 
ATOM     38  H6  VG5 d   1      28.254   2.307  30.553  0.00  0.00     0.043 H 
ATOM     39  H7  VG5 d   1      27.185   1.471  31.730  0.00  0.00     0.043 H 
BRANCH  37  40
ATOM     40  C14 VG5 d   1      28.912   0.346  31.130  0.00  0.00    -0.056 A 
ATOM     41  C56 VG5 d   1      28.120  -0.847  31.053  0.00  0.00    -0.077 A 
ATOM     42  C57 VG5 d   1      28.740  -2.113  30.758  0.00  0.00    -0.082 A 
ATOM     43  H30 VG5 d   1      27.050  -0.796  31.218  0.00  0.00     0.084 H 
ATOM     44  C58 VG5 d   1      30.159  -2.194  30.543  0.00  0.00    -0.083 A 
ATOM     45  H31 VG5 d   1      28.134  -3.009  30.698  0.00  0.00     0.083 H 
ATOM     46  C59 VG5 d   1      30.964  -1.008  30.618  0.00  0.00    -0.082 A 
ATOM     47  H32 VG5 d   1      30.621  -3.150  30.324  0.00  0.00     0.083 H 
ATOM     48  C60 VG5 d   1      30.346   0.254  30.908  0.00  0.00    -0.077 A 
ATOM     49  H33 VG5 d   1      32.034  -1.065  30.456  0.00  0.00     0.083 H 
ATOM     50  H34 VG5 d   1      30.955   1.149  30.962  0.00  0.00     0.084 H 
ENDBRANCH  37  40
ENDBRANCH   1  37
BRANCH   1  51
ATOM     51  C12 VG5 d   1      28.028   3.592  33.159  0.00  0.00     0.078 C 
ATOM     52  H8  VG5 d   1      27.079   3.172  33.524  0.00  0.00     0.088 H 
BRANCH  51  53
ATOM     53  O13 VG5 d   1      27.776   4.517  32.105  0.00  0.00    -0.392 OA
ATOM     54  H9  VG5 d   1      27.332   4.071  31.393  0.00  0.00     0.210 HD
ENDBRANCH  51  53
BRANCH  51  55
ATOM     55  C15 VG5 d   1      28.721   4.358  34.296  0.00  0.00     0.108 C 
ATOM     56  H10 VG5 d   1      29.774   4.524  34.024  0.00  0.00     0.079 H 
ATOM     57  H11 VG5 d   1      28.670   3.755  35.215  0.00  0.00     0.079 H 
BRANCH  55  58
ATOM     58  N16 VG5 d   1      28.083   5.659  34.545  0.00  0.00    -0.060 N 
ATOM     59  H12 VG5 d   1      27.338   5.481  35.201  0.00  0.00     0.278 HD
ATOM     60  H13 VG5 d   1      27.692   5.949  33.662  0.00  0.00     0.278 HD
BRANCH  58  61
ATOM     61  C17 VG5 d   1      28.817   6.838  35.072  0.00  0.00     0.174 C 
ATOM     62  H14 VG5 d   1      28.109   7.666  35.224  0.00  0.00     0.099 H 
BRANCH  61  63
ATOM     63  C18 VG5 d   1      29.878   7.262  34.013  0.00  0.00     0.248 C 
ATOM     64  N19 VG5 d   1      29.341   7.911  32.959  0.00  0.00    -0.355 N 
ATOM     65  H15 VG5 d   1      28.353   8.064  32.941  0.00  0.00     0.162 HD
ATOM     66  O20 VG5 d   1      31.079   7.011  34.154  0.00  0.00    -0.271 OA
BRANCH  64  67
ATOM     67  C21 VG5 d   1      30.151   8.402  31.836  0.00  0.00     0.012 C 
ATOM     68  C23 VG5 d   1      30.610   9.872  32.102  0.00  0.00    -0.046 C 
ATOM     69  C24 VG5 d   1      31.468  10.401  30.908  0.00  0.00    -0.063 C 
ATOM     70  H20 VG5 d   1      31.212   9.902  33.022  0.00  0.00     0.035 H 
ATOM     71  H21 VG5 d   1      29.724  10.512  32.222  0.00  0.00     0.035 H 
ATOM     72  C25 VG5 d   1      30.714  10.268  29.535  0.00  0.00    -0.065 C 
ATOM     73  H22 VG5 d   1      32.402   9.822  30.858  0.00  0.00     0.033 H 
ATOM     74  H23 VG5 d   1      31.703  11.461  31.082  0.00  0.00     0.033 H 
ATOM     75  C26 VG5 d   1      30.152   8.827  29.295  0.00  0.00    -0.063 C 
ATOM     76  H24 VG5 d   1      31.415  10.513  28.723  0.00  0.00     0.033 H 
ATOM     77  H25 VG5 d   1      29.875  10.980  29.523  0.00  0.00     0.033 H 
ATOM     78  C27 VG5 d   1      29.330   8.310  30.515  0.00  0.00    -0.046 C 
ATOM     79  H26 VG5 d   1      30.994   8.142  29.119  0.00  0.00     0.033 H 
ATOM     80  H27 VG5 d   1      29.500   8.843  28.409  0.00  0.00     0.033 H 
ATOM     81  H28 VG5 d   1      28.420   8.919  30.617  0.00  0.00     0.035 H 
ATOM     82  H29 VG5 d   1      29.051   7.261  30.340  0.00  0.00     0.035 H 
ATOM     83  H16 VG5 d   1      31.045   7.768  31.740  0.00  0.00     0.072 H 
ENDBRANCH  64  67
ENDBRANCH  61  63
BRANCH  61  84
ATOM     84  C22 VG5 d   1      29.489   6.502  36.434  0.00  0.00    -0.041 C 
ATOM     85  H17 VG5 d   1      30.026   7.387  36.806  0.00  0.00     0.030 H 
ATOM     86  H18 VG5 d   1      30.199   5.673  36.298  0.00  0.00     0.030 H 
ATOM     87  H19 VG5 d   1      28.717   6.209  37.161  0.00  0.00     0.030 H 
ENDBRANCH  61  84
ENDBRANCH  58  61
ENDBRANCH  55  58
ENDBRANCH  51  55
ENDBRANCH   1  51
TORSDOF 15
