REMARK  15 active torsions:
REMARK  status: ('A' for Active; 'I' for Inactive)
REMARK    1  A    between atoms: C1_1  and  N38_22 
REMARK    2  A    between atoms: C3_3  and  C7_7 
REMARK    3  A    between atoms: C5_5  and  N47_25 
REMARK       I    between atoms: C7_7  and  N8_8 
REMARK    4  A    between atoms: N8_8  and  C10_10 
REMARK    5  A    between atoms: C10_10  and  C11_11 
REMARK    6  A    between atoms: C10_10  and  C12_12 
REMARK    7  A    between atoms: C11_11  and  C14_14 
REMARK    8  A    between atoms: C12_12  and  O13_13 
REMARK    9  A    between atoms: C12_12  and  C15_15 
REMARK   10  A    between atoms: C15_15  and  N16_16 
REMARK   11  A    between atoms: N16_16  and  C59_31 
REMARK   12  A    between atoms: N38_22  and  C39_23 
REMARK   13  A    between atoms: C39_23  and  C41_24 
REMARK   14  A    between atoms: C59_31  and  C61_32 
REMARK   15  A    between atoms: C67_36  and  C73_38 
ROOT
ATOM      1  C10 VG6 d   1      29.087   2.641  32.516  0.00  0.00     0.042 C 
ATOM      2  H5  VG6 d   1      30.057   3.160  32.501  0.00  0.00     0.077 H 
ENDROOT
BRANCH   1   3
ATOM      3  N8  VG6 d   1      29.257   1.553  33.470  0.00  0.00    -0.349 N 
ATOM      4  C7  VG6 d   1      30.354   1.437  34.241  0.00  0.00     0.252 C 
ATOM      5  O9  VG6 d   1      31.273   2.256  34.181  0.00  0.00    -0.268 OA
ATOM      6  H4  VG6 d   1      28.533   0.868  33.555  0.00  0.00     0.163 HD
BRANCH   4   7
ATOM      7  C3  VG6 d   1      30.382   0.251  35.105  0.00  0.00     0.036 A 
ATOM      8  C2  VG6 d   1      29.832  -0.989  34.675  0.00  0.00    -0.042 A 
ATOM      9  C1  VG6 d   1      29.876  -2.136  35.517  0.00  0.00     0.031 A 
ATOM     10  H1  VG6 d   1      29.374  -1.061  33.695  0.00  0.00     0.088 H 
ATOM     11  C6  VG6 d   1      30.478  -2.028  36.781  0.00  0.00    -0.032 A 
ATOM     12  C5  VG6 d   1      31.037  -0.798  37.236  0.00  0.00     0.040 A 
ATOM     13  H3  VG6 d   1      30.519  -2.899  37.425  0.00  0.00     0.090 H 
ATOM     14  C4  VG6 d   1      30.983   0.337  36.382  0.00  0.00    -0.042 A 
ATOM     15  H2  VG6 d   1      31.407   1.278  36.713  0.00  0.00     0.088 H 
BRANCH   9  16
ATOM     16  N38 VG6 d   1      29.361  -3.362  35.155  0.00  0.00    -0.390 N 
ATOM     17  H19 VG6 d   1      29.369  -4.108  35.865  0.00  0.00     0.159 HD
BRANCH  16  18
ATOM     18  C39 VG6 d   1      28.802  -3.690  33.840  0.00  0.00    -0.011 C 
ATOM     19  H20 VG6 d   1      29.073  -4.723  33.575  0.00  0.00     0.063 H 
ATOM     20  H21 VG6 d   1      29.210  -3.000  33.087  0.00  0.00     0.063 H 
BRANCH  18  21
ATOM     21  C41 VG6 d   1      27.278  -3.558  33.877  0.00  0.00    -0.061 C 
ATOM     22  H22 VG6 d   1      26.864  -3.805  32.888  0.00  0.00     0.029 H 
ATOM     23  H23 VG6 d   1      27.006  -2.525  34.141  0.00  0.00     0.029 H 
ATOM     24  H24 VG6 d   1      26.868  -4.249  34.629  0.00  0.00     0.029 H 
ENDBRANCH  18  21
ENDBRANCH  16  18
ENDBRANCH   9  16
BRANCH  12  25
ATOM     25  N47 VG6 d   1      31.634  -0.698  38.478  0.00  0.00    -0.318 N 
ATOM     26  C48 VG6 d   1      31.074  -1.089  39.664  0.00  0.00     0.224 C 
ATOM     27  C49 VG6 d   1      32.053  -0.814  40.804  0.00  0.00     0.011 C 
ATOM     28  O58 VG6 d   1      29.967  -1.587  39.827  0.00  0.00    -0.273 OA
ATOM     29  C50 VG6 d   1      33.372  -0.565  40.075  0.00  0.00    -0.042 C 
ATOM     30  H25 VG6 d   1      32.131  -1.682  41.476  0.00  0.00     0.047 H 
ATOM     31  H26 VG6 d   1      31.748   0.071  41.382  0.00  0.00     0.047 H 
ATOM     32  C51 VG6 d   1      32.976  -0.143  38.667  0.00  0.00     0.003 C 
ATOM     33  H27 VG6 d   1      33.977  -1.484  40.047  0.00  0.00     0.036 H 
ATOM     34  H28 VG6 d   1      33.942   0.234  40.571  0.00  0.00     0.036 H 
ATOM     35  H29 VG6 d   1      32.958   0.954  38.581  0.00  0.00     0.065 H 
ATOM     36  H30 VG6 d   1      33.675  -0.558  37.926  0.00  0.00     0.065 H 
ENDBRANCH  12  25
ENDBRANCH   4   7
ENDBRANCH   1   3
BRANCH   1  37
ATOM     37  C11 VG6 d   1      28.908   2.121  31.063  0.00  0.00    -0.020 C 
ATOM     38  H6  VG6 d   1      29.640   2.639  30.426  0.00  0.00     0.043 H 
ATOM     39  H7  VG6 d   1      27.890   2.377  30.735  0.00  0.00     0.043 H 
BRANCH  37  40
ATOM     40  C14 VG6 d   1      29.098   0.627  30.872  0.00  0.00    -0.056 A 
ATOM     41  C17 VG6 d   1      28.022  -0.300  30.823  0.00  0.00    -0.077 A 
ATOM     42  C18 VG6 d   1      28.288  -1.678  30.628  0.00  0.00    -0.082 A 
ATOM     43  H14 VG6 d   1      27.001   0.046  30.934  0.00  0.00     0.084 H 
ATOM     44  C19 VG6 d   1      29.619  -2.140  30.479  0.00  0.00    -0.083 A 
ATOM     45  H15 VG6 d   1      27.466  -2.384  30.593  0.00  0.00     0.083 H 
ATOM     46  C20 VG6 d   1      30.692  -1.227  30.527  0.00  0.00    -0.082 A 
ATOM     47  H16 VG6 d   1      29.812  -3.196  30.328  0.00  0.00     0.083 H 
ATOM     48  C21 VG6 d   1      30.430   0.143  30.720  0.00  0.00    -0.077 A 
ATOM     49  H17 VG6 d   1      31.712  -1.577  30.416  0.00  0.00     0.083 H 
ATOM     50  H18 VG6 d   1      31.257   0.843  30.754  0.00  0.00     0.084 H 
ENDBRANCH  37  40
ENDBRANCH   1  37
BRANCH   1  51
ATOM     51  C12 VG6 d   1      28.086   3.726  32.998  0.00  0.00     0.078 C 
ATOM     52  H8  VG6 d   1      27.203   3.234  33.432  0.00  0.00     0.088 H 
BRANCH  51  53
ATOM     53  O13 VG6 d   1      27.693   4.568  31.943  0.00  0.00    -0.392 OA
ATOM     54  H9  VG6 d   1      27.274   4.050  31.266  0.00  0.00     0.210 HD
ENDBRANCH  51  53
BRANCH  51  55
ATOM     55  C15 VG6 d   1      28.748   4.625  34.036  0.00  0.00     0.107 C 
ATOM     56  H10 VG6 d   1      29.654   5.061  33.591  0.00  0.00     0.079 H 
ATOM     57  H11 VG6 d   1      29.025   4.009  34.904  0.00  0.00     0.079 H 
BRANCH  55  58
ATOM     58  N16 VG6 d   1      27.884   5.719  34.499  0.00  0.00    -0.069 N 
ATOM     59  H12 VG6 d   1      27.274   5.361  35.217  0.00  0.00     0.277 HD
ATOM     60  H13 VG6 d   1      27.332   6.041  33.719  0.00  0.00     0.277 HD
BRANCH  58  61
ATOM     61  C59 VG6 d   1      28.636   6.877  35.054  0.00  0.00     0.105 C 
ATOM     62  H31 VG6 d   1      29.130   6.550  35.981  0.00  0.00     0.083 H 
ATOM     63  H32 VG6 d   1      27.913   7.673  35.285  0.00  0.00     0.083 H 
BRANCH  61  64
ATOM     64  C61 VG6 d   1      29.701   7.460  34.132  0.00  0.00    -0.032 A 
ATOM     65  C64 VG6 d   1      31.062   7.460  34.537  0.00  0.00    -0.075 A 
ATOM     66  C65 VG6 d   1      32.067   7.992  33.696  0.00  0.00    -0.082 A 
ATOM     67  H33 VG6 d   1      31.334   7.048  35.502  0.00  0.00     0.084 H 
ATOM     68  C66 VG6 d   1      31.727   8.533  32.435  0.00  0.00    -0.068 A 
ATOM     69  H34 VG6 d   1      33.102   7.985  34.020  0.00  0.00     0.083 H 
ATOM     70  C67 VG6 d   1      30.360   8.556  31.982  0.00  0.00     0.048 A 
ATOM     71  H35 VG6 d   1      32.507   8.937  31.799  0.00  0.00     0.084 H 
ATOM     72  C68 VG6 d   1      29.361   8.004  32.869  0.00  0.00    -0.061 A 
ATOM     73  H36 VG6 d   1      28.322   8.006  32.559  0.00  0.00     0.085 H 
BRANCH  70  74
ATOM     74  C73 VG6 d   1      29.962   9.152  30.585  0.00  0.00     0.417 C 
ATOM     75  F74 VG6 d   1      28.928   9.981  30.732  0.00  0.00    -0.166 F 
ATOM     76  F75 VG6 d   1      29.623   8.147  29.799  0.00  0.00    -0.166 F 
ATOM     77  F76 VG6 d   1      30.969   9.821  30.019  0.00  0.00    -0.166 F 
ENDBRANCH  70  74
ENDBRANCH  61  64
ENDBRANCH  58  61
ENDBRANCH  55  58
ENDBRANCH  51  55
ENDBRANCH   1  51
TORSDOF 15
