REMARK  13 active torsions:
REMARK  status: ('A' for Active; 'I' for Inactive)
REMARK    1  A    between atoms: C1_1  and  N38_21 
REMARK    2  A    between atoms: C3_3  and  C7_7 
REMARK    3  A    between atoms: C5_5  and  N47_24 
REMARK       I    between atoms: C7_7  and  N8_8 
REMARK    4  A    between atoms: N8_8  and  C10_10 
REMARK    5  A    between atoms: C10_10  and  C11_11 
REMARK    6  A    between atoms: C10_10  and  C12_12 
REMARK    7  A    between atoms: C11_11  and  C14_14 
REMARK    8  A    between atoms: C12_12  and  O13_13 
REMARK    9  A    between atoms: C12_12  and  C15_15 
REMARK   10  A    between atoms: C15_15  and  N16_30 
REMARK   11  A    between atoms: N38_21  and  C39_22 
REMARK   12  A    between atoms: C39_22  and  C41_23 
REMARK   13  A    between atoms: N16_30  and  C59_31 
ROOT
ATOM      1  C10 VG7 d   1      29.330   2.677  32.643  0.00  0.00     0.042 C 
ATOM      2  H5  VG7 d   1      30.279   3.083  32.263  0.00  0.00     0.077 H 
ENDROOT
BRANCH   1   3
ATOM      3  N8  VG7 d   1      29.627   1.633  33.652  0.00  0.00    -0.349 N 
ATOM      4  C7  VG7 d   1      30.839   1.485  34.256  0.00  0.00     0.252 C 
ATOM      5  O9  VG7 d   1      31.792   2.236  34.014  0.00  0.00    -0.268 OA
ATOM      6  H4  VG7 d   1      28.895   1.000  33.904  0.00  0.00     0.163 HD
BRANCH   4   7
ATOM      7  C3  VG7 d   1      30.927   0.356  35.159  0.00  0.00     0.036 A 
ATOM      8  C2  VG7 d   1      30.350  -0.906  34.760  0.00  0.00    -0.042 A 
ATOM      9  C1  VG7 d   1      30.416  -2.068  35.607  0.00  0.00     0.031 A 
ATOM     10  H1  VG7 d   1      29.855  -0.980  33.799  0.00  0.00     0.088 H 
ATOM     11  C6  VG7 d   1      31.075  -1.947  36.863  0.00  0.00    -0.032 A 
ATOM     12  C5  VG7 d   1      31.669  -0.687  37.296  0.00  0.00     0.040 A 
ATOM     13  H3  VG7 d   1      31.137  -2.812  37.513  0.00  0.00     0.090 H 
ATOM     14  C4  VG7 d   1      31.585   0.463  36.424  0.00  0.00    -0.042 A 
ATOM     15  H2  VG7 d   1      32.021   1.407  36.729  0.00  0.00     0.088 H 
BRANCH   9  16
ATOM     16  N38 VG7 d   1      29.878  -3.304  35.264  0.00  0.00    -0.390 N 
ATOM     17  H17 VG7 d   1      29.854  -4.022  36.002  0.00  0.00     0.159 HD
BRANCH  16  18
ATOM     18  C39 VG7 d   1      29.340  -3.685  33.950  0.00  0.00    -0.011 C 
ATOM     19  H18 VG7 d   1      29.620  -4.726  33.733  0.00  0.00     0.063 H 
ATOM     20  H19 VG7 d   1      29.763  -3.023  33.180  0.00  0.00     0.063 H 
BRANCH  18  21
ATOM     21  C41 VG7 d   1      27.811  -3.561  33.937  0.00  0.00    -0.061 C 
ATOM     22  H20 VG7 d   1      27.428  -3.850  32.947  0.00  0.00     0.029 H 
ATOM     23  H21 VG7 d   1      27.526  -2.521  34.151  0.00  0.00     0.029 H 
ATOM     24  H22 VG7 d   1      27.383  -4.224  34.703  0.00  0.00     0.029 H 
ENDBRANCH  18  21
ENDBRANCH  16  18
ENDBRANCH   9  16
BRANCH  12  25
ATOM     25  N47 VG7 d   1      32.316  -0.586  38.522  0.00  0.00    -0.318 N 
ATOM     26  C48 VG7 d   1      31.819  -1.023  39.715  0.00  0.00     0.224 C 
ATOM     27  C49 VG7 d   1      32.826  -0.743  40.826  0.00  0.00     0.011 C 
ATOM     28  O58 VG7 d   1      30.739  -1.566  39.916  0.00  0.00    -0.273 OA
ATOM     29  C50 VG7 d   1      34.099  -0.355  40.063  0.00  0.00    -0.042 C 
ATOM     30  H23 VG7 d   1      32.993  -1.640  41.441  0.00  0.00     0.047 H 
ATOM     31  H24 VG7 d   1      32.485   0.083  41.468  0.00  0.00     0.047 H 
ATOM     32  C51 VG7 d   1      33.651   0.021  38.663  0.00  0.00     0.003 C 
ATOM     33  H25 VG7 d   1      34.796  -1.205  40.026  0.00  0.00     0.036 H 
ATOM     34  H26 VG7 d   1      34.590   0.501  40.550  0.00  0.00     0.036 H 
ATOM     35  H27 VG7 d   1      33.594   1.114  38.555  0.00  0.00     0.065 H 
ATOM     36  H28 VG7 d   1      34.344  -0.386  37.912  0.00  0.00     0.065 H 
ENDBRANCH  12  25
ENDBRANCH   4   7
ENDBRANCH   1   3
BRANCH   1  37
ATOM     37  C11 VG7 d   1      28.583   1.958  31.463  0.00  0.00    -0.020 C 
ATOM     38  H6  VG7 d   1      28.609   2.613  30.579  0.00  0.00     0.043 H 
ATOM     39  H7  VG7 d   1      27.538   1.785  31.761  0.00  0.00     0.043 H 
BRANCH  37  40
ATOM     40  C14 VG7 d   1      29.216   0.614  31.095  0.00  0.00    -0.056 A 
ATOM     41  C17 VG7 d   1      28.402  -0.581  31.051  0.00  0.00    -0.077 A 
ATOM     42  C18 VG7 d   1      28.982  -1.858  30.713  0.00  0.00    -0.082 A 
ATOM     43  H12 VG7 d   1      27.343  -0.516  31.275  0.00  0.00     0.084 H 
ATOM     44  C19 VG7 d   1      30.384  -1.958  30.418  0.00  0.00    -0.083 A 
ATOM     45  H13 VG7 d   1      28.358  -2.744  30.682  0.00  0.00     0.083 H 
ATOM     46  C20 VG7 d   1      31.203  -0.779  30.458  0.00  0.00    -0.082 A 
ATOM     47  H14 VG7 d   1      30.821  -2.917  30.167  0.00  0.00     0.083 H 
ATOM     48  C21 VG7 d   1      30.627   0.496  30.793  0.00  0.00    -0.077 A 
ATOM     49  H15 VG7 d   1      32.261  -0.850  30.235  0.00  0.00     0.083 H 
ATOM     50  H16 VG7 d   1      31.256   1.378  30.820  0.00  0.00     0.084 H 
ENDBRANCH  37  40
ENDBRANCH   1  37
BRANCH   1  51
ATOM     51  C12 VG7 d   1      28.524   3.859  33.242  0.00  0.00     0.078 C 
ATOM     52  H8  VG7 d   1      27.593   3.477  33.685  0.00  0.00     0.088 H 
BRANCH  51  53
ATOM     53  O13 VG7 d   1      28.241   4.809  32.234  0.00  0.00    -0.392 OA
ATOM     54  H9  VG7 d   1      27.730   4.397  31.547  0.00  0.00     0.210 HD
ENDBRANCH  51  53
BRANCH  51  55
ATOM     55  C15 VG7 d   1      29.328   4.609  34.281  0.00  0.00     0.107 C 
ATOM     56  H10 VG7 d   1      30.246   4.987  33.807  0.00  0.00     0.079 H 
ATOM     57  H11 VG7 d   1      29.593   3.911  35.089  0.00  0.00     0.079 H 
BRANCH  55  58
ATOM     58  N16 VG7 d   1      28.601   5.746  34.866  0.00  0.00    -0.068 N 
ATOM     59  H29 VG7 d   1      27.964   5.401  35.567  0.00  0.00     0.277 HD
ATOM     60  H30 VG7 d   1      28.081   6.211  34.139  0.00  0.00     0.277 HD
BRANCH  58  61
ATOM     61  C59 VG7 d   1      29.529   6.723  35.496  0.00  0.00     0.102 C 
ATOM     62  C61 VG7 d   1      30.062   6.154  36.858  0.00  0.00    -0.038 C 
ATOM     63  C62 VG7 d   1      31.055   7.174  37.569  0.00  0.00    -0.063 C 
ATOM     64  H32 VG7 d   1      30.595   5.211  36.667  0.00  0.00     0.036 H 
ATOM     65  H33 VG7 d   1      29.208   5.964  37.525  0.00  0.00     0.036 H 
ATOM     66  C63 VG7 d   1      31.261   8.501  36.723  0.00  0.00    -0.065 C 
ATOM     67  H34 VG7 d   1      32.031   6.684  37.702  0.00  0.00     0.033 H 
ATOM     68  H35 VG7 d   1      30.642   7.442  38.553  0.00  0.00     0.033 H 
ATOM     69  C64 VG7 d   1      29.826   9.108  36.433  0.00  0.00    -0.063 C 
ATOM     70  H36 VG7 d   1      31.768   8.268  35.776  0.00  0.00     0.033 H 
ATOM     71  H37 VG7 d   1      31.865   9.221  37.295  0.00  0.00     0.033 H 
ATOM     72  C65 VG7 d   1      28.833   8.094  35.738  0.00  0.00    -0.038 C 
ATOM     73  H38 VG7 d   1      29.945   9.982  35.776  0.00  0.00     0.033 H 
ATOM     74  H39 VG7 d   1      29.384   9.426  37.389  0.00  0.00     0.033 H 
ATOM     75  H40 VG7 d   1      27.957   7.945  36.386  0.00  0.00     0.036 H 
ATOM     76  H41 VG7 d   1      28.509   8.510  34.773  0.00  0.00     0.036 H 
ATOM     77  H31 VG7 d   1      30.382   6.879  34.819  0.00  0.00     0.084 H 
ENDBRANCH  58  61
ENDBRANCH  55  58
ENDBRANCH  51  55
ENDBRANCH   1  51
TORSDOF 13
