REMARK  8 active torsions:
REMARK  status: ('A' for Active; 'I' for Inactive)
REMARK    1  A    between atoms: N1_1  and  C1'_9 
REMARK    2  A    between atoms: C2'_10  and  O2'_11 
REMARK    3  A    between atoms: C3'_12  and  O3'_15 
REMARK    4  A    between atoms: C4'_13  and  C5'_16 
REMARK    5  A    between atoms: C5'_16  and  O5'_17 
REMARK    6  A    between atoms: O5'_17  and  PA_18 
REMARK    7  A    between atoms: PA_18  and  O3A_21 
REMARK    8  A    between atoms: O3A_21  and  PB_22 
ROOT
ATOM      1  C1' UDP d   1      23.299  25.012  34.466  0.00  0.00     0.141 C 
ATOM      2  C2' UDP d   1      22.811  23.905  35.369  0.00  0.00     0.105 C 
ATOM      3  C3' UDP d   1      21.711  23.259  34.546  0.00  0.00     0.091 C 
ATOM      4  C4' UDP d   1      22.285  23.389  33.137  0.00  0.00     0.089 C 
ATOM      5  O4' UDP d   1      22.858  24.680  33.148  0.00  0.00    -0.353 OA
ATOM      6  H4  UDP d   1      24.398  25.065  34.482  0.00  0.00     0.123 H 
ATOM      7  H5  UDP d   1      22.429  24.275  36.332  0.00  0.00     0.093 H 
ATOM      8  H7  UDP d   1      20.775  23.831  34.626  0.00  0.00     0.091 H 
ATOM      9  H8  UDP d   1      23.053  22.617  32.983  0.00  0.00     0.090 H 
ENDROOT
BRANCH   4  10
ATOM     10  C5' UDP d   1      21.292  23.310  31.992  0.00  0.00     0.058 C 
ATOM     11  H10 UDP d   1      20.693  22.392  32.077  0.00  0.00     0.079 H 
ATOM     12  H11 UDP d   1      21.826  23.312  31.030  0.00  0.00     0.079 H 
BRANCH  10  13
ATOM     13  O5' UDP d   1      20.460  24.434  32.079  0.00  0.00    -0.287 OA
BRANCH  13  14
ATOM     14  PA  UDP d   1      18.987  24.307  31.492  0.00  0.00     0.418 P 
ATOM     15  O1A UDP d   1      18.056  25.348  32.005  0.00  0.00    -0.624 OA
ATOM     16  O2A UDP d   1      18.389  22.963  31.718  0.00  0.00    -0.624 OA
BRANCH  14  17
ATOM     17  O3A UDP d   1      19.371  24.654  29.970  0.00  0.00    -0.173 OA
BRANCH  17  18
ATOM     18  PB  UDP d   1      18.582  24.035  28.702  0.00  0.00     0.431 P 
ATOM     19  O1B UDP d   1      19.436  24.235  27.499  0.00  0.00    -0.616 OA
ATOM     20  O2B UDP d   1      18.354  22.571  28.890  0.00  0.00    -0.616 OA
ATOM     21  O3B UDP d   1      17.270  24.713  28.593  0.00  0.00    -0.616 OA
ENDBRANCH  17  18
ENDBRANCH  14  17
ENDBRANCH  13  14
ENDBRANCH  10  13
ENDBRANCH   4  10
BRANCH   3  22
ATOM     22  O3' UDP d   1      21.454  21.944  34.969  0.00  0.00    -0.390 OA
ATOM     23  H9  UDP d   1      20.825  21.541  34.382  0.00  0.00     0.210 HD
ENDBRANCH   3  22
BRANCH   2  24
ATOM     24  O2' UDP d   1      23.918  23.049  35.561  0.00  0.00    -0.388 OA
ATOM     25  H6  UDP d   1      23.666  22.329  36.126  0.00  0.00     0.210 HD
ENDBRANCH   2  24
BRANCH   1  26
ATOM     26  N1  UDP d   1      22.747  26.287  34.959  0.00  0.00    -0.280 N 
ATOM     27  C2  UDP d   1      23.270  26.878  36.116  0.00  0.00     0.331 A 
ATOM     28  N3  UDP d   1      22.760  28.067  36.574  0.00  0.00    -0.275 N 
ATOM     29  O2  UDP d   1      24.197  26.401  36.747  0.00  0.00    -0.246 OA
ATOM     30  C4  UDP d   1      21.719  28.675  35.905  0.00  0.00     0.250 A 
ATOM     31  H1  UDP d   1      23.144  28.493  37.394  0.00  0.00     0.173 HD
ATOM     32  C5  UDP d   1      21.171  28.092  34.748  0.00  0.00    -0.002 A 
ATOM     33  O4  UDP d   1      21.293  29.737  36.350  0.00  0.00    -0.268 OA
ATOM     34  C6  UDP d   1      21.703  26.889  34.278  0.00  0.00    -0.008 A 
ATOM     35  H2  UDP d   1      20.344  28.572  34.226  0.00  0.00     0.094 H 
ATOM     36  H3  UDP d   1      21.298  26.426  33.379  0.00  0.00     0.112 H 
ENDBRANCH   1  26
TORSDOF 8
