REMARK  9 active torsions:
REMARK  status: ('A' for Active; 'I' for Inactive)
REMARK    1  A    between atoms: O6_1  and  C6_2 
REMARK    2  A    between atoms: C6_2  and  C5_3 
REMARK    3  A    between atoms: C4_5  and  O4_6 
REMARK    4  A    between atoms: C3_7  and  O3_8 
REMARK    5  A    between atoms: C2_9  and  O2_10 
REMARK    6  A    between atoms: C1_11  and  O1_12 
REMARK    7  A    between atoms: O1_12  and  C18_13 
REMARK    8  A    between atoms: C26_21  and  C28_24 
REMARK    9  A    between atoms: C31_27  and  O34_28 
ROOT
ATOM      1  C18 DZN d   1      95.149  16.543  68.042  0.00  0.00     0.074 A 
ATOM      2  C19 DZN d   1      94.979  15.160  67.977  0.00  0.00    -0.050 A 
ATOM      3  C20 DZN d   1      93.952  14.513  68.646  0.00  0.00    -0.064 A 
ATOM      4  C21 DZN d   1      93.054  15.252  69.398  0.00  0.00     0.049 A 
ATOM      5  C22 DZN d   1      93.194  16.726  69.476  0.00  0.00     0.091 A 
ATOM      6  C23 DZN d   1      94.258  17.331  68.784  0.00  0.00    -0.017 A 
ATOM      7  O24 DZN d   1      92.275  17.429  70.234  0.00  0.00    -0.321 OA
ATOM      8  C25 DZN d   1      91.175  16.783  70.936  0.00  0.00     0.034 A 
ATOM      9  C26 DZN d   1      90.972  15.391  70.900  0.00  0.00     0.048 A 
ATOM     10  C27 DZN d   1      91.940  14.570  70.110  0.00  0.00     0.197 A 
ATOM     11  O35 DZN d   1      91.852  13.326  70.014  0.00  0.00    -0.286 OA
ATOM     12  H12 DZN d   1      95.672  14.573  67.385  0.00  0.00     0.087 H 
ATOM     13  H13 DZN d   1      93.852  13.435  68.581  0.00  0.00     0.085 H 
ATOM     14  H14 DZN d   1      94.389  18.406  68.824  0.00  0.00     0.092 H 
ATOM     15  H15 DZN d   1      90.484  17.399  71.510  0.00  0.00     0.125 H 
ENDROOT
BRANCH   1  16
ATOM     16  O1  DZN d   1      96.238  17.060  67.320  0.00  0.00    -0.318 OA
BRANCH  16  17
ATOM     17  C1  DZN d   1      96.519  18.455  67.059  0.00  0.00     0.164 C 
ATOM     18  O5  DZN d   1      95.423  19.119  66.475  0.00  0.00    -0.348 OA
ATOM     19  C5  DZN d   1      95.579  20.531  66.376  0.00  0.00     0.089 C 
ATOM     20  C4  DZN d   1      96.740  20.965  65.469  0.00  0.00     0.090 C 
ATOM     21  H4  DZN d   1      95.817  20.887  67.389  0.00  0.00     0.090 H 
ATOM     22  C3  DZN d   1      97.997  20.070  65.710  0.00  0.00     0.092 C 
ATOM     23  H5  DZN d   1      96.433  20.798  64.426  0.00  0.00     0.091 H 
ATOM     24  C2  DZN d   1      97.732  18.589  66.093  0.00  0.00     0.110 C 
ATOM     25  H7  DZN d   1      98.555  20.530  66.539  0.00  0.00     0.091 H 
ATOM     26  H9  DZN d   1      97.527  18.013  65.179  0.00  0.00     0.094 H 
ATOM     27  H11 DZN d   1      96.762  18.944  68.014  0.00  0.00     0.134 H 
BRANCH  19  28
ATOM     28  C6  DZN d   1      94.276  21.243  65.938  0.00  0.00     0.043 C 
ATOM     29  H2  DZN d   1      93.774  21.668  66.820  0.00  0.00     0.078 H 
ATOM     30  H3  DZN d   1      94.517  22.049  65.229  0.00  0.00     0.078 H 
BRANCH  28  31
ATOM     31  O6  DZN d   1      93.426  20.305  65.317  0.00  0.00    -0.398 OA
ATOM     32  H1  DZN d   1      93.221  19.610  65.931  0.00  0.00     0.209 HD
ENDBRANCH  28  31
ENDBRANCH  19  28
BRANCH  20  33
ATOM     33  O4  DZN d   1      96.952  22.403  65.624  0.00  0.00    -0.390 OA
ATOM     34  H6  DZN d   1      97.163  22.595  66.530  0.00  0.00     0.210 HD
ENDBRANCH  20  33
BRANCH  22  35
ATOM     35  O3  DZN d   1      98.834  20.043  64.561  0.00  0.00    -0.390 OA
ATOM     36  H8  DZN d   1      99.589  19.493  64.734  0.00  0.00     0.210 HD
ENDBRANCH  22  35
BRANCH  24  37
ATOM     37  O2  DZN d   1      98.906  18.064  66.741  0.00  0.00    -0.388 OA
ATOM     38  H10 DZN d   1      98.755  17.157  66.980  0.00  0.00     0.210 HD
ENDBRANCH  24  37
ENDBRANCH  16  17
ENDBRANCH   1  16
BRANCH   9  39
ATOM     39  C28 DZN d   1      89.838  14.730  71.629  0.00  0.00    -0.020 A 
ATOM     40  C29 DZN d   1      88.945  15.493  72.369  0.00  0.00    -0.069 A 
ATOM     41  C30 DZN d   1      87.885  14.900  73.045  0.00  0.00    -0.050 A 
ATOM     42  H16 DZN d   1      89.076  16.568  72.421  0.00  0.00     0.085 H 
ATOM     43  C31 DZN d   1      87.708  13.528  73.008  0.00  0.00     0.065 A 
ATOM     44  H17 DZN d   1      87.192  15.517  73.605  0.00  0.00     0.087 H 
ATOM     45  C32 DZN d   1      88.594  12.746  72.274  0.00  0.00    -0.050 A 
ATOM     46  C33 DZN d   1      89.648  13.345  71.594  0.00  0.00    -0.069 A 
ATOM     47  H19 DZN d   1      88.463  11.671  72.232  0.00  0.00     0.087 H 
ATOM     48  H20 DZN d   1      90.335  12.728  71.026  0.00  0.00     0.085 H 
BRANCH  43  49
ATOM     49  O34 DZN d   1      86.669  12.963  73.684  0.00  0.00    -0.361 OA
ATOM     50  H18 DZN d   1      85.850  13.312  73.353  0.00  0.00     0.217 HD
ENDBRANCH  43  49
ENDBRANCH   9  39
TORSDOF 9
