REMARK  15 active torsions:
REMARK  status: ('A' for Active; 'I' for Inactive)
REMARK    1  A    between atoms: CA_2  and  N_1 
REMARK    2  A    between atoms: CA_2  and  CB_5 
REMARK    3  A    between atoms: C_3  and  CA_2 
REMARK       I    between atoms: N_6  and  C_3 
REMARK    4  A    between atoms: CA_7  and  N_6 
REMARK    5  A    between atoms: CA_7  and  CB_10 
REMARK    6  A    between atoms: C_8  and  CA_7 
REMARK       I    between atoms: C_8  and  N_17 
REMARK    7  A    between atoms: CB_10  and  CG_11 
REMARK    8  A    between atoms: CG_11  and  CD_12 
REMARK    9  A    between atoms: CD_12  and  NE_13 
REMARK       I    between atoms: NE_13  and  CZ_14 
REMARK       I    between atoms: CZ_14  and  NH1_15 
REMARK   10  A    between atoms: N_17  and  CA_18 
REMARK   11  A    between atoms: CA_18  and  CB_21 
REMARK   12  A    between atoms: CA_18  and  C_19 
REMARK   13  A    between atoms: C_19  and  O1_24 
REMARK   14  A    between atoms: CB_21  and  CG2_23 
REMARK   15  A    between atoms: CB_21  and  OG1_22 
ROOT
ATOM      1  CA  ARG d   1      -1.810 -19.641  11.723  0.00  0.00     0.089 C 
ATOM      2  H9  ARG d   1      -1.890 -20.424  12.492  0.00  0.00     0.087 H 
ENDROOT
BRANCH   1   3
ATOM      3  N   ARG d   1      -2.172 -18.365  12.315  0.00  0.00    -0.346 N 
ATOM      4  C   ALA d   1      -1.984 -18.158  13.607  0.00  0.00     0.248 C 
ATOM      5  O   ALA d   1      -1.540 -19.046  14.358  0.00  0.00    -0.271 OA
ATOM      6  H8  ARG d   1      -2.564 -17.643  11.745  0.00  0.00     0.163 HD
BRANCH   4   7
ATOM      7  CA  ALA d   1      -2.372 -16.776  14.140  0.00  0.00     0.172 C 
ATOM      8  H4  ALA d   1      -3.266 -16.459  13.583  0.00  0.00     0.098 H 
BRANCH   7   9
ATOM      9  N   ALA d   1      -2.740 -16.779  15.590  0.00  0.00    -0.067 N 
ATOM     10  H1  ALA d   1      -2.984 -15.844  15.877  0.00  0.00     0.275 HD
ATOM     11  H2  ALA d   1      -1.957 -17.104  16.135  0.00  0.00     0.275 HD
ATOM     12  H3  ALA d   1      -3.528 -17.391  15.736  0.00  0.00     0.275 HD
ENDBRANCH   7   9
BRANCH   7  13
ATOM     13  CB  ALA d   1      -1.272 -15.746  13.865  0.00  0.00    -0.042 C 
ATOM     14  H5  ALA d   1      -1.016 -15.759  12.795  0.00  0.00     0.030 H 
ATOM     15  H6  ALA d   1      -0.380 -15.995  14.458  0.00  0.00     0.030 H 
ATOM     16  H7  ALA d   1      -1.630 -14.744  14.144  0.00  0.00     0.030 H 
ENDBRANCH   7  13
ENDBRANCH   4   7
ENDBRANCH   1   3
BRANCH   1  17
ATOM     17  CB  ARG d   1      -2.764 -19.976  10.572  0.00  0.00    -0.036 C 
ATOM     18  H10 ARG d   1      -2.472 -20.943  10.136  0.00  0.00     0.036 H 
ATOM     19  H11 ARG d   1      -2.688 -19.191   9.805  0.00  0.00     0.036 H 
BRANCH  17  20
ATOM     20  CG  ARG d   1      -4.210 -20.064  11.049  0.00  0.00    -0.048 C 
ATOM     21  H12 ARG d   1      -4.455 -19.159  11.624  0.00  0.00     0.035 H 
ATOM     22  H13 ARG d   1      -4.323 -20.949  11.693  0.00  0.00     0.035 H 
BRANCH  20  23
ATOM     23  CD  ARG d   1      -5.159 -20.179   9.884  0.00  0.00     0.009 C 
ATOM     24  H14 ARG d   1      -6.181 -20.343  10.257  0.00  0.00     0.064 H 
ATOM     25  H15 ARG d   1      -4.861 -21.026   9.249  0.00  0.00     0.064 H 
BRANCH  23  26
ATOM     26  NE  ARG d   1      -5.117 -18.947   9.103  0.00  0.00    -0.227 N 
ATOM     27  CZ  ARG d   1      -4.545 -18.856   7.901  0.00  0.00     0.665 C 
ATOM     28  NH2 ARG d   1      -4.549 -17.692   7.271  0.00  0.00    -0.235 N 
ATOM     29  NH1 ARG d   1      -3.971 -19.915   7.337  0.00  0.00    -0.235 N 
ATOM     30  H19 ARG d   1      -4.993 -16.872   7.707  0.00  0.00     0.174 HD
ATOM     31  H20 ARG d   1      -4.108 -17.607   6.344  0.00  0.00     0.174 HD
ATOM     32  H17 ARG d   1      -3.533 -19.830   6.409  0.00  0.00     0.174 HD
ATOM     33  H18 ARG d   1      -3.964 -20.820   7.829  0.00  0.00     0.174 HD
ATOM     34  H16 ARG d   1      -5.552 -18.102   9.501  0.00  0.00     0.177 HD
ENDBRANCH  23  26
ENDBRANCH  20  23
ENDBRANCH  17  20
ENDBRANCH   1  17
BRANCH   1  35
ATOM     35  C   ARG d   1      -0.378 -19.601  11.208  0.00  0.00     0.241 C 
ATOM     36  O   ARG d   1      -0.016 -18.721  10.410  0.00  0.00    -0.271 OA
ATOM     37  N   THR d   1       0.436 -20.558  11.663  0.00  0.00    -0.343 N 
ATOM     38  H21 THR d   1       0.081 -21.265  12.274  0.00  0.00     0.163 HD
BRANCH  37  39
ATOM     39  CA  THR d   1       1.834 -20.574  11.273  0.00  0.00     0.117 C 
ATOM     40  H22 THR d   1       1.973 -19.934  10.389  0.00  0.00     0.093 H 
BRANCH  39  41
ATOM     41  CB  THR d   1       2.719 -20.059  12.411  0.00  0.00     0.061 C 
ATOM     42  H23 THR d   1       3.750 -19.935  12.049  0.00  0.00     0.086 H 
BRANCH  41  43
ATOM     43  CG2 THR d   1       2.184 -18.703  12.908  0.00  0.00    -0.050 C 
ATOM     44  H25 THR d   1       2.821 -18.335  13.726  0.00  0.00     0.031 H 
ATOM     45  H26 THR d   1       1.154 -18.827  13.273  0.00  0.00     0.031 H 
ATOM     46  H27 THR d   1       2.195 -17.979  12.080  0.00  0.00     0.031 H 
ENDBRANCH  41  43
BRANCH  41  47
ATOM     47  OG1 THR d   1       2.699 -21.012  13.486  0.00  0.00    -0.393 OA
ATOM     48  H24 THR d   1       3.030 -21.846  13.174  0.00  0.00     0.210 HD
ENDBRANCH  41  47
ENDBRANCH  39  41
BRANCH  39  49
ATOM     49  C   THR d   1       2.226 -22.001  10.935  0.00  0.00     0.166 C 
ATOM     50  O   THR d   1       1.541 -22.955  11.332  0.00  0.00    -0.648 OA
BRANCH  49  51
ATOM     51  O1  THR d   1       3.315 -22.230  10.206  0.00  0.00    -0.775 OA
ATOM     52  H28 THR d   1       3.725 -21.403   9.983  0.00  0.00     0.167 HD
ENDBRANCH  49  51
ENDBRANCH  39  49
ENDBRANCH  37  39
ENDBRANCH   1  35
TORSDOF 15
