REMARK  15 active torsions:
REMARK  status: ('A' for Active; 'I' for Inactive)
REMARK    1  A    between atoms: C01_2  and  C02_1 
REMARK    2  A    between atoms: N03_42  and  C01_2 
REMARK    3  A    between atoms: C13_10  and  N11_8 
REMARK    4  A    between atoms: C15_12  and  C19_16 
REMARK    5  A    between atoms: C17_14  and  N03_42 
REMARK       I    between atoms: C19_16  and  N21_18 
REMARK    6  A    between atoms: N21_18  and  C22_19 
REMARK    7  A    between atoms: C22_19  and  C23_20 
REMARK    8  A    between atoms: C22_19  and  C30_27 
REMARK    9  A    between atoms: C23_20  and  C24_21 
REMARK   10  A    between atoms: C30_27  and  O31_28 
REMARK   11  A    between atoms: C30_27  and  C32_29 
REMARK   12  A    between atoms: C32_29  and  N33_30 
REMARK   13  A    between atoms: N33_30  and  C34_31 
REMARK   14  A    between atoms: C34_31  and  C35_32 
REMARK   15  A    between atoms: C39_36  and  C41_39 
ROOT
ATOM      1  C22 CM8 d   1      28.709   2.407  32.675  0.00  0.00     0.042 C 
ATOM      2  H16 CM8 d   1      29.666   2.848  32.360  0.00  0.00     0.077 H 
ENDROOT
BRANCH   1   3
ATOM      3  N21 CM8 d   1      28.910   1.444  33.765  0.00  0.00    -0.349 N 
ATOM      4  C19 CM8 d   1      30.159   1.416  34.496  0.00  0.00     0.252 C 
ATOM      5  O20 CM8 d   1      31.048   2.189  34.271  0.00  0.00    -0.268 OA
ATOM      6  H15 CM8 d   1      28.180   0.804  34.004  0.00  0.00     0.163 HD
BRANCH   4   7
ATOM      7  C15 CM8 d   1      30.355   0.210  35.379  0.00  0.00     0.036 A 
ATOM      8  C14 CM8 d   1      30.957   0.388  36.652  0.00  0.00    -0.041 A 
ATOM      9  C13 CM8 d   1      31.104  -0.752  37.536  0.00  0.00     0.048 A 
ATOM     10  H12 CM8 d   1      31.304   1.367  36.961  0.00  0.00     0.088 H 
ATOM     11  C18 CM8 d   1      30.713  -2.043  37.135  0.00  0.00    -0.031 A 
ATOM     12  C17 CM8 d   1      30.092  -2.212  35.817  0.00  0.00     0.031 A 
ATOM     13  H14 CM8 d   1      30.868  -2.895  37.787  0.00  0.00     0.090 H 
ATOM     14  C16 CM8 d   1      29.902  -1.070  34.941  0.00  0.00    -0.042 A 
ATOM     15  H13 CM8 d   1      29.426  -1.187  33.974  0.00  0.00     0.088 H 
BRANCH   9  16
ATOM     16  N11 CM8 d   1      31.758  -0.448  38.788  0.00  0.00    -0.276 N 
ATOM     17  S08 CM8 d   1      31.297  -1.203  40.073  0.00  0.00     0.233 S 
ATOM     18  C07 CM8 d   1      32.355  -2.713  40.314  0.00  0.00     0.047 C 
ATOM     19  O10 CM8 d   1      31.521  -0.333  41.210  0.00  0.00    -0.205 OA
ATOM     20  O09 CM8 d   1      29.908  -1.617  39.973  0.00  0.00    -0.205 OA
ATOM     21  C06 CM8 d   1      33.845  -2.245  40.166  0.00  0.00    -0.050 C 
ATOM     22  H8  CM8 d   1      32.188  -3.137  41.315  0.00  0.00     0.058 H 
ATOM     23  H9  CM8 d   1      32.117  -3.469  39.551  0.00  0.00     0.058 H 
ATOM     24  C31 CM8 d   1      34.059  -1.433  38.826  0.00  0.00    -0.048 C 
ATOM     25  H6  CM8 d   1      34.500  -3.129  40.158  0.00  0.00     0.034 H 
ATOM     26  H7  CM8 d   1      34.106  -1.603  41.020  0.00  0.00     0.034 H 
ATOM     27  C12 CM8 d   1      33.207  -0.118  38.720  0.00  0.00     0.010 C 
ATOM     28  H35 CM8 d   1      33.791  -2.085  37.982  0.00  0.00     0.035 H 
ATOM     29  H36 CM8 d   1      35.122  -1.160  38.755  0.00  0.00     0.035 H 
ATOM     30  H10 CM8 d   1      33.468   0.554  39.551  0.00  0.00     0.066 H 
ATOM     31  H11 CM8 d   1      33.423   0.381  37.764  0.00  0.00     0.066 H 
ENDBRANCH   9  16
BRANCH  12  32
ATOM     32  N03 CM8 d   1      29.687  -3.548  35.414  0.00  0.00    -0.390 N 
ATOM     33  H38 CM8 d   1      29.830  -4.336  36.061  0.00  0.00     0.159 HD
BRANCH  32  34
ATOM     34  C01 CM8 d   1      29.093  -3.789  34.133  0.00  0.00    -0.011 C 
ATOM     35  H4  CM8 d   1      29.453  -3.022  33.431  0.00  0.00     0.063 H 
ATOM     36  H5  CM8 d   1      29.408  -4.783  33.783  0.00  0.00     0.063 H 
BRANCH  34  37
ATOM     37  C02 CM8 d   1      27.594  -3.746  34.158  0.00  0.00    -0.061 C 
ATOM     38  H1  CM8 d   1      27.205  -3.938  33.147  0.00  0.00     0.029 H 
ATOM     39  H2  CM8 d   1      27.261  -2.754  34.496  0.00  0.00     0.029 H 
ATOM     40  H3  CM8 d   1      27.217  -4.515  34.849  0.00  0.00     0.029 H 
ENDBRANCH  34  37
ENDBRANCH  32  34
ENDBRANCH  12  32
ENDBRANCH   4   7
ENDBRANCH   1   3
BRANCH   1  41
ATOM     41  C23 CM8 d   1      28.062   1.630  31.508  0.00  0.00    -0.020 C 
ATOM     42  H17 CM8 d   1      28.107   2.251  30.601  0.00  0.00     0.043 H 
ATOM     43  H18 CM8 d   1      27.011   1.423  31.759  0.00  0.00     0.043 H 
BRANCH  41  44
ATOM     44  C24 CM8 d   1      28.783   0.286  31.229  0.00  0.00    -0.056 A 
ATOM     45  C29 CM8 d   1      30.237   0.222  31.110  0.00  0.00    -0.077 A 
ATOM     46  C28 CM8 d   1      30.896  -1.035  30.863  0.00  0.00    -0.082 A 
ATOM     47  H19 CM8 d   1      30.825   1.127  31.208  0.00  0.00     0.084 H 
ATOM     48  C27 CM8 d   1      30.067  -2.218  30.706  0.00  0.00    -0.083 A 
ATOM     49  H20 CM8 d   1      31.976  -1.096  30.796  0.00  0.00     0.083 H 
ATOM     50  C26 CM8 d   1      28.633  -2.164  30.821  0.00  0.00    -0.082 A 
ATOM     51  H21 CM8 d   1      30.542  -3.169  30.496  0.00  0.00     0.083 H 
ATOM     52  C25 CM8 d   1      27.954  -0.906  31.076  0.00  0.00    -0.077 A 
ATOM     53  H22 CM8 d   1      28.053  -3.074  30.716  0.00  0.00     0.083 H 
ATOM     54  H23 CM8 d   1      26.874  -0.854  31.150  0.00  0.00     0.084 H 
ENDBRANCH  41  44
ENDBRANCH   1  41
BRANCH   1  55
ATOM     55  C30 CM8 d   1      27.745   3.522  33.181  0.00  0.00     0.078 C 
ATOM     56  H24 CM8 d   1      26.849   3.087  33.647  0.00  0.00     0.088 H 
BRANCH  55  57
ATOM     57  O31 CM8 d   1      27.405   4.381  32.063  0.00  0.00    -0.392 OA
ATOM     58  H25 CM8 d   1      26.979   3.866  31.388  0.00  0.00     0.210 HD
ENDBRANCH  55  57
BRANCH  55  59
ATOM     59  C32 CM8 d   1      28.522   4.431  34.168  0.00  0.00     0.107 C 
ATOM     60  H26 CM8 d   1      29.442   4.800  33.692  0.00  0.00     0.079 H 
ATOM     61  H27 CM8 d   1      28.780   3.865  35.075  0.00  0.00     0.079 H 
BRANCH  59  62
ATOM     62  N33 CM8 d   1      27.638   5.578  34.520  0.00  0.00    -0.069 N 
ATOM     63  H28 CM8 d   1      26.927   5.263  35.161  0.00  0.00     0.277 HD
ATOM     64  H29 CM8 d   1      27.203   5.930  33.682  0.00  0.00     0.277 HD
BRANCH  62  65
ATOM     65  C34 CM8 d   1      28.417   6.663  35.154  0.00  0.00     0.105 C 
ATOM     66  H30 CM8 d   1      28.969   6.253  36.013  0.00  0.00     0.083 H 
ATOM     67  H31 CM8 d   1      27.726   7.445  35.502  0.00  0.00     0.083 H 
BRANCH  65  68
ATOM     68  C35 CM8 d   1      29.425   7.287  34.156  0.00  0.00    -0.032 A 
ATOM     69  C36 CM8 d   1      30.823   7.354  34.525  0.00  0.00    -0.075 A 
ATOM     70  C37 CM8 d   1      31.798   7.933  33.626  0.00  0.00    -0.082 A 
ATOM     71  H32 CM8 d   1      31.143   6.966  35.485  0.00  0.00     0.084 H 
ATOM     72  C38 CM8 d   1      31.385   8.443  32.347  0.00  0.00    -0.068 A 
ATOM     73  H33 CM8 d   1      32.841   7.982  33.917  0.00  0.00     0.083 H 
ATOM     74  C39 CM8 d   1      29.987   8.360  31.980  0.00  0.00     0.048 A 
ATOM     75  H34 CM8 d   1      32.108   8.882  31.669  0.00  0.00     0.084 H 
ATOM     76  C40 CM8 d   1      29.003   7.794  32.875  0.00  0.00    -0.061 A 
ATOM     77  H37 CM8 d   1      27.959   7.752  32.586  0.00  0.00     0.085 H 
BRANCH  74  78
ATOM     78  C41 CM8 d   1      29.548   8.901  30.640  0.00  0.00     0.417 C 
ATOM     79  F44 CM8 d   1      30.591   9.478  29.979  0.00  0.00    -0.166 F 
ATOM     80  F43 CM8 d   1      29.013   7.913  29.891  0.00  0.00    -0.166 F 
ATOM     81  F42 CM8 d   1      28.624   9.849  30.862  0.00  0.00    -0.166 F 
ENDBRANCH  74  78
ENDBRANCH  65  68
ENDBRANCH  62  65
ENDBRANCH  59  62
ENDBRANCH  55  59
ENDBRANCH   1  55
TORSDOF 15
