REMARK  14 active torsions:
REMARK  status: ('A' for Active; 'I' for Inactive)
REMARK    1  A    between atoms: C01_1  and  C02_2 
REMARK    2  A    between atoms: C02_2  and  C03_3 
REMARK    3  A    between atoms: N11_11  and  C12_12 
REMARK    4  A    between atoms: C15_15  and  C19_19 
REMARK       I    between atoms: C19_19  and  N21_21 
REMARK    5  A    between atoms: N21_21  and  C22_22 
REMARK    6  A    between atoms: C22_22  and  C23_23 
REMARK    7  A    between atoms: C22_22  and  C30_30 
REMARK    8  A    between atoms: C23_23  and  C24_24 
REMARK    9  A    between atoms: C30_30  and  O31_31 
REMARK   10  A    between atoms: C30_30  and  C32_32 
REMARK   11  A    between atoms: C32_32  and  N33_33 
REMARK   12  A    between atoms: N33_33  and  C34_34 
REMARK   13  A    between atoms: C34_34  and  C35_35 
REMARK   14  A    between atoms: C39_39  and  C41_41 
ROOT
ATOM      1  C22 CM7 d   1      28.893   2.629  32.537  0.00  0.00     0.042 C 
ATOM      2  H17 CM7 d   1      29.848   3.036  32.174  0.00  0.00     0.077 H 
ENDROOT
BRANCH   1   3
ATOM      3  N21 CM7 d   1      29.083   1.702  33.642  0.00  0.00    -0.349 N 
ATOM      4  C19 CM7 d   1      30.272   1.693  34.430  0.00  0.00     0.252 C 
ATOM      5  O20 CM7 d   1      31.198   2.444  34.244  0.00  0.00    -0.268 OA
ATOM      6  H16 CM7 d   1      28.356   1.050  33.856  0.00  0.00     0.163 HD
BRANCH   4   7
ATOM      7  C15 CM7 d   1      30.506   0.427  35.195  0.00  0.00     0.035 A 
ATOM      8  C14 CM7 d   1      31.140   0.618  36.438  0.00  0.00    -0.039 A 
ATOM      9  C13 CM7 d   1      31.446  -0.526  37.234  0.00  0.00     0.073 A 
ATOM     10  H14 CM7 d   1      31.391   1.615  36.783  0.00  0.00     0.088 H 
ATOM     11  N11 CM7 d   1      32.054  -0.468  38.571  0.00  0.00    -0.278 N 
ATOM     12  C18 CM7 d   1      31.059  -1.873  36.773  0.00  0.00     0.073 A 
ATOM     13  S08 CM7 d   1      31.438  -1.232  39.779  0.00  0.00     0.234 S 
ATOM     14  C07 CM7 d   1      31.867  -3.021  39.948  0.00  0.00     0.061 C 
ATOM     15  O09 CM7 d   1      31.870  -0.515  41.008  0.00  0.00    -0.205 OA
ATOM     16  O10 CM7 d   1      29.997  -1.253  39.678  0.00  0.00    -0.205 OA
ATOM     17  C06 CM7 d   1      31.834  -3.752  38.596  0.00  0.00     0.013 C 
ATOM     18  H9  CM7 d   1      32.878  -3.105  40.372  0.00  0.00     0.061 H 
ATOM     19  H10 CM7 d   1      31.144  -3.497  40.627  0.00  0.00     0.061 H 
ATOM     20  N05 CM7 d   1      31.179  -3.210  37.348  0.00  0.00    -0.353 N 
ATOM     21  H7  CM7 d   1      32.887  -3.924  38.327  0.00  0.00     0.066 H 
ATOM     22  H8  CM7 d   1      31.343  -4.716  38.793  0.00  0.00     0.066 H 
ATOM     23  C04 CM7 d   1      30.703  -4.196  36.476  0.00  0.00    -0.013 A 
ATOM     24  C03 CM7 d   1      30.188  -3.472  35.327  0.00  0.00    -0.030 A 
ATOM     25  H6  CM7 d   1      30.716  -5.274  36.627  0.00  0.00     0.112 H 
ATOM     26  C17 CM7 d   1      30.409  -2.059  35.523  0.00  0.00     0.002 A 
ATOM     27  C16 CM7 d   1      30.107  -0.892  34.676  0.00  0.00    -0.055 A 
ATOM     28  H15 CM7 d   1      29.614  -0.999  33.716  0.00  0.00     0.086 H 
BRANCH  11  29
ATOM     29  C12 CM7 d   1      33.464  -0.032  38.578  0.00  0.00    -0.004 C 
ATOM     30  H11 CM7 d   1      33.692   0.486  37.635  0.00  0.00     0.058 H 
ATOM     31  H12 CM7 d   1      34.119  -0.910  38.682  0.00  0.00     0.058 H 
ATOM     32  H13 CM7 d   1      33.632   0.653  39.422  0.00  0.00     0.058 H 
ENDBRANCH  11  29
BRANCH  24  33
ATOM     33  C02 CM7 d   1      29.517  -4.101  34.084  0.00  0.00    -0.042 C 
ATOM     34  H4  CM7 d   1      30.024  -3.740  33.177  0.00  0.00     0.039 H 
ATOM     35  H5  CM7 d   1      29.604  -5.196  34.141  0.00  0.00     0.039 H 
BRANCH  33  36
ATOM     36  C01 CM7 d   1      28.029  -3.713  34.022  0.00  0.00    -0.073 C 
ATOM     37  H1  CM7 d   1      27.568  -4.168  33.133  0.00  0.00     0.028 H 
ATOM     38  H2  CM7 d   1      27.938  -2.618  33.962  0.00  0.00     0.028 H 
ATOM     39  H3  CM7 d   1      27.518  -4.075  34.926  0.00  0.00     0.028 H 
ENDBRANCH  33  36
ENDBRANCH  24  33
ENDBRANCH   4   7
ENDBRANCH   1   3
BRANCH   1  40
ATOM     40  C23 CM7 d   1      28.185   1.793  31.429  0.00  0.00    -0.020 C 
ATOM     41  H18 CM7 d   1      28.170   2.377  30.497  0.00  0.00     0.043 H 
ATOM     42  H19 CM7 d   1      27.153   1.583  31.747  0.00  0.00     0.043 H 
BRANCH  40  43
ATOM     43  C24 CM7 d   1      28.913   0.447  31.166  0.00  0.00    -0.056 A 
ATOM     44  C25 CM7 d   1      30.365   0.381  31.030  0.00  0.00    -0.077 A 
ATOM     45  C26 CM7 d   1      30.994  -0.890  30.782  0.00  0.00    -0.082 A 
ATOM     46  H20 CM7 d   1      30.964   1.280  31.115  0.00  0.00     0.084 H 
ATOM     47  C27 CM7 d   1      30.157  -2.092  30.666  0.00  0.00    -0.083 A 
ATOM     48  H21 CM7 d   1      32.071  -0.959  30.682  0.00  0.00     0.083 H 
ATOM     49  C28 CM7 d   1      28.719  -2.033  30.799  0.00  0.00    -0.082 A 
ATOM     50  H22 CM7 d   1      30.631  -3.048  30.476  0.00  0.00     0.083 H 
ATOM     51  C29 CM7 d   1      28.088  -0.755  31.042  0.00  0.00    -0.077 A 
ATOM     52  H23 CM7 d   1      28.122  -2.934  30.718  0.00  0.00     0.083 H 
ATOM     53  H24 CM7 d   1      27.010  -0.688  31.132  0.00  0.00     0.084 H 
ENDBRANCH  40  43
ENDBRANCH   1  40
BRANCH   1  54
ATOM     54  C30 CM7 d   1      27.981   3.761  33.052  0.00  0.00     0.078 C 
ATOM     55  H25 CM7 d   1      27.076   3.337  33.511  0.00  0.00     0.088 H 
BRANCH  54  56
ATOM     56  O31 CM7 d   1      27.643   4.605  31.933  0.00  0.00    -0.392 OA
ATOM     57  H26 CM7 d   1      27.189   4.091  31.276  0.00  0.00     0.210 HD
ENDBRANCH  54  56
BRANCH  54  58
ATOM     58  C32 CM7 d   1      28.737   4.658  34.076  0.00  0.00     0.107 C 
ATOM     59  H27 CM7 d   1      29.658   5.051  33.621  0.00  0.00     0.079 H 
ATOM     60  H28 CM7 d   1      28.992   4.071  34.971  0.00  0.00     0.079 H 
BRANCH  58  61
ATOM     61  N33 CM7 d   1      27.831   5.788  34.449  0.00  0.00    -0.069 N 
ATOM     62  H29 CM7 d   1      27.169   5.456  35.132  0.00  0.00     0.277 HD
ATOM     63  H30 CM7 d   1      27.339   6.090  33.623  0.00  0.00     0.277 HD
BRANCH  61  64
ATOM     64  C34 CM7 d   1      28.555   6.954  35.021  0.00  0.00     0.105 C 
ATOM     65  H31 CM7 d   1      29.043   6.643  35.957  0.00  0.00     0.083 H 
ATOM     66  H32 CM7 d   1      27.828   7.752  35.234  0.00  0.00     0.083 H 
BRANCH  64  67
ATOM     67  C35 CM7 d   1      29.634   7.507  34.057  0.00  0.00    -0.032 A 
ATOM     68  C36 CM7 d   1      31.042   7.493  34.438  0.00  0.00    -0.075 A 
ATOM     69  C37 CM7 d   1      32.043   8.017  33.525  0.00  0.00    -0.082 A 
ATOM     70  H33 CM7 d   1      31.341   7.093  35.400  0.00  0.00     0.084 H 
ATOM     71  C38 CM7 d   1      31.645   8.572  32.239  0.00  0.00    -0.068 A 
ATOM     72  H34 CM7 d   1      33.091   7.995  33.802  0.00  0.00     0.083 H 
ATOM     73  C39 CM7 d   1      30.248   8.569  31.865  0.00  0.00     0.048 A 
ATOM     74  H35 CM7 d   1      32.390   8.984  31.567  0.00  0.00     0.084 H 
ATOM     75  C40 CM7 d   1      29.239   8.048  32.767  0.00  0.00    -0.061 A 
ATOM     76  H36 CM7 d   1      28.194   8.062  32.480  0.00  0.00     0.085 H 
BRANCH  73  77
ATOM     77  C41 CM7 d   1      29.793   9.130  30.518  0.00  0.00     0.417 C 
ATOM     78  F42 CM7 d   1      28.777  10.005  30.668  0.00  0.00    -0.166 F 
ATOM     79  F43 CM7 d   1      29.342   8.114  29.759  0.00  0.00    -0.166 F 
ATOM     80  F44 CM7 d   1      30.814   9.748  29.891  0.00  0.00    -0.166 F 
ENDBRANCH  73  77
ENDBRANCH  64  67
ENDBRANCH  61  64
ENDBRANCH  58  61
ENDBRANCH  54  58
ENDBRANCH   1  54
TORSDOF 14
