REMARK  4 active torsions:
REMARK  status: ('A' for Active; 'I' for Inactive)
REMARK    1  A    between atoms: N1_1  and  C16_14 
REMARK    2  A    between atoms: C5_4  and  C4_3 
REMARK    3  A    between atoms: C4_3  and  C9_7 
REMARK    4  A    between atoms: C5_4  and  N6_5 
ROOT
ATOM      1  N1  M05 d   1      -6.809  -8.394  -8.200  0.00  0.00    -0.365 N 
ATOM      2  C8  M05 d   1      -8.030  -8.805  -7.494  0.00  0.00    -0.001 C 
ATOM      3  C5  M05 d   1      -9.383  -8.408  -9.639  0.00  0.00     0.130 C 
ATOM      4  C2  M05 d   1      -7.124  -7.329  -9.157  0.00  0.00    -0.001 C 
ATOM      5  C3  M05 d   1      -9.058  -9.356  -8.471  0.00  0.00    -0.019 C 
ATOM      6  C17 M05 d   1      -8.071  -7.859 -10.218  0.00  0.00    -0.019 C 
ATOM      7  H1  M05 d   1      -8.457  -7.934  -6.974  0.00  0.00     0.064 H 
ATOM      8  H2  M05 d   1      -7.777  -9.583  -6.759  0.00  0.00     0.064 H 
ATOM      9  H8  M05 d   1      -6.197  -6.981  -9.635  0.00  0.00     0.064 H 
ATOM     10  H9  M05 d   1      -7.600  -6.491  -8.628  0.00  0.00     0.064 H 
ATOM     11  H18 M05 d   1      -9.988  -9.556  -7.918  0.00  0.00     0.039 H 
ATOM     12  H19 M05 d   1      -8.670 -10.297  -8.887  0.00  0.00     0.039 H 
ATOM     13  H20 M05 d   1      -8.311  -7.040 -10.912  0.00  0.00     0.039 H 
ATOM     14  H21 M05 d   1      -7.565  -8.668 -10.765  0.00  0.00     0.039 H 
ENDROOT
BRANCH   3  15
ATOM     15  C4  M05 d   1     -10.216  -7.185  -9.193  0.00  0.00    -0.010 C 
ATOM     16  H3  M05 d   1     -10.439  -6.591 -10.091  0.00  0.00     0.043 H 
ATOM     17  H4  M05 d   1      -9.593  -6.593  -8.507  0.00  0.00     0.043 H 
BRANCH  15  18
ATOM     18  C9  M05 d   1     -11.523  -7.460  -8.496  0.00  0.00    -0.056 A 
ATOM     19  C10 M05 d   1     -12.554  -8.138  -9.148  0.00  0.00    -0.075 A 
ATOM     20  C11 M05 d   1     -13.751  -8.372  -8.503  0.00  0.00    -0.061 A 
ATOM     21  H10 M05 d   1     -12.414  -8.482 -10.166  0.00  0.00     0.084 H 
ATOM     22  C12 M05 d   1     -13.942  -7.913  -7.209  0.00  0.00     0.034 A 
ATOM     23  H11 M05 d   1     -14.542  -8.915  -9.008  0.00  0.00     0.086 H 
ATOM     24 CL1  M05 d   1     -15.451  -8.197  -6.402  0.00  0.00    -0.084 Cl
ATOM     25  C14 M05 d   1     -12.928  -7.223  -6.561  0.00  0.00    -0.061 A 
ATOM     26  C15 M05 d   1     -11.729  -6.994  -7.201  0.00  0.00    -0.075 A 
ATOM     27  H12 M05 d   1     -13.079  -6.863  -5.550  0.00  0.00     0.086 H 
ATOM     28  H13 M05 d   1     -10.942  -6.448  -6.693  0.00  0.00     0.084 H 
ENDBRANCH  15  18
ENDBRANCH   3  15
BRANCH   3  29
ATOM     29  N6  M05 d   1     -10.073  -9.203 -10.713  0.00  0.00    -0.070 N 
ATOM     30  H5  M05 d   1      -9.496  -9.988 -10.973  0.00  0.00     0.275 HD
ATOM     31  H6  M05 d   1     -10.226  -8.617 -11.519  0.00  0.00     0.275 HD
ATOM     32  H7  M05 d   1     -10.959  -9.537 -10.367  0.00  0.00     0.275 HD
ENDBRANCH   3  29
BRANCH   1  33
ATOM     33  C16 M05 d   1      -5.636  -9.177  -8.330  0.00  0.00     0.141 A 
ATOM     34  N17 M05 d   1      -5.704 -10.463  -7.920  0.00  0.00    -0.224 NA
ATOM     35  C18 M05 d   1      -4.602 -11.218  -8.032  0.00  0.00     0.091 A 
ATOM     36  N19 M05 d   1      -3.390 -10.870  -8.469  0.00  0.00    -0.223 NA
ATOM     37  H14 M05 d   1      -4.710 -12.252  -7.726  0.00  0.00     0.146 H 
ATOM     38  C20 M05 d   1      -3.346  -9.569  -8.844  0.00  0.00     0.142 A 
ATOM     39  N21 M05 d   1      -2.258  -8.892  -9.322  0.00  0.00    -0.350 N 
ATOM     40  C24 M05 d   1      -4.410  -8.671  -8.789  0.00  0.00     0.057 A 
ATOM     41  C22 M05 d   1      -2.608  -7.606  -9.571  0.00  0.00    -0.020 A 
ATOM     42  H15 M05 d   1      -1.322  -9.295  -9.469  0.00  0.00     0.166 HD
ATOM     43  C23 M05 d   1      -3.928  -7.441  -9.250  0.00  0.00    -0.051 A 
ATOM     44  H16 M05 d   1      -1.948  -6.833  -9.962  0.00  0.00     0.111 H 
ATOM     45  H17 M05 d   1      -4.500  -6.519  -9.338  0.00  0.00     0.087 H 
ENDBRANCH   1  33
TORSDOF 4
