REMARK WARNING: 32 MAX_TORS EXCEEDED!!!
REMARK  38 active torsions:
REMARK  status: ('A' for Active; 'I' for Inactive)
REMARK    1  A    between atoms: CA_2  and  N_1 
REMARK    2  A    between atoms: C_3  and  CA_2 
REMARK    3  A    between atoms: CA_2  and  CB_5 
REMARK       I    between atoms: N_8  and  C_3 
REMARK    4  A    between atoms: NH1_16  and  C1_6 
REMARK    5  A    between atoms: NH1_16  and  C2_7 
REMARK    6  A    between atoms: CA_9  and  N_8 
REMARK    7  A    between atoms: CB_10  and  CA_9 
REMARK    8  A    between atoms: CA_9  and  C_17 
REMARK    9  A    between atoms: CG_11  and  CB_10 
REMARK   10  A    between atoms: CD_12  and  CG_11 
REMARK   11  A    between atoms: NE_13  and  CD_12 
REMARK       I    between atoms: CZ_14  and  NE_13 
REMARK       I    between atoms: CZ_14  and  NH2_15 
REMARK       I    between atoms: C_17  and  N_19 
REMARK   12  A    between atoms: N_19  and  CA_20 
REMARK   13  A    between atoms: CA_20  and  C_21 
REMARK   14  A    between atoms: CA_20  and  CB_23 
REMARK       I    between atoms: C_21  and  N_26 
REMARK   15  A    between atoms: CB_23  and  OG1_24 
REMARK   16  A    between atoms: CB_23  and  CG2_25 
REMARK   17  A    between atoms: N_26  and  CA_27 
REMARK   18  A    between atoms: CA_27  and  CB_28 
REMARK   19  A    between atoms: CA_27  and  C_35 
REMARK   20  A    between atoms: CB_28  and  CG_29 
REMARK   21  A    between atoms: CG_29  and  CD_30 
REMARK   22  A    between atoms: CD_30  and  CE_31 
REMARK   23  A    between atoms: CE_31  and  NZ_32 
REMARK   24  A    between atoms: NZ_32  and  CH1_33 
REMARK   25  A    between atoms: NZ_32  and  CH2_34 
REMARK       I    between atoms: C_35  and  N_37 
REMARK   26  A    between atoms: N_37  and  CA_38 
REMARK   27  A    between atoms: CA_38  and  C_39 
REMARK   28  A    between atoms: CA_38  and  CB_41 
REMARK       I    between atoms: C_39  and  N_46 
REMARK   29  A    between atoms: CB_41  and  CG_42 
REMARK   30  A    between atoms: CG_42  and  CD_43 
REMARK       I    between atoms: CD_43  and  NE2_45 
REMARK   31  A    between atoms: N_46  and  CA_47 
REMARK   32  A    between atoms: CA_47  and  C_48 
REMARK   33  A    between atoms: CA_47  and  CB_50 
REMARK       I    between atoms: C_48  and  N_53 
REMARK   34  A    between atoms: CB_50  and  OG1_51 
REMARK   35  A    between atoms: CB_50  and  CG2_52 
REMARK   36  A    between atoms: N_53  and  CA_54 
REMARK   37  A    between atoms: CA_54  and  C_55 
REMARK   38  A    between atoms: CA_54  and  CB_57 
ROOT
ATOM      1  CA  MLY d   1     -20.154 -11.077  13.743  0.00  0.00     0.089 C 
ATOM      2  H33 MLY d   1     -20.587 -10.767  14.706  0.00  0.00     0.087 H 
ENDROOT
BRANCH   1   3
ATOM      3  N   MLY d   1     -19.723 -12.462  13.905  0.00  0.00    -0.346 N 
ATOM      4  C   THR d   1     -20.501 -13.351  14.524  0.00  0.00     0.243 C 
ATOM      5  O   THR d   1     -21.551 -13.038  15.059  0.00  0.00    -0.271 OA
ATOM      6  H32 MLY d   1     -18.834 -12.748  13.548  0.00  0.00     0.163 HD
BRANCH   4   7
ATOM      7  CA  THR d   1     -20.046 -14.791  14.503  0.00  0.00     0.113 C 
ATOM      8  H26 THR d   1     -19.059 -14.882  14.980  0.00  0.00     0.091 H 
BRANCH   7   9
ATOM      9  N   THR d   1     -21.011 -15.635  15.230  0.00  0.00    -0.344 N 
ATOM     10  C   DA2 d   1     -20.635 -16.534  16.133  0.00  0.00     0.241 C 
ATOM     11  O   DA2 d   1     -19.460 -16.766  16.404  0.00  0.00    -0.271 OA
ATOM     12  H25 THR d   1     -21.986 -15.527  15.036  0.00  0.00     0.163 HD
BRANCH  10  13
ATOM     13  CA  DA2 d   1     -21.751 -17.249  16.864  0.00  0.00     0.089 C 
ATOM     14  H15 DA2 d   1     -22.712 -16.848  16.511  0.00  0.00     0.087 H 
BRANCH  13  15
ATOM     15  N   DA2 d   1     -21.721 -18.675  16.597  0.00  0.00    -0.346 N 
ATOM     16  C   ALA d   1     -22.201 -19.175  15.458  0.00  0.00     0.248 C 
ATOM     17  O   ALA d   1     -22.721 -18.472  14.568  0.00  0.00    -0.271 OA
ATOM     18  H14 DA2 d   1     -21.333 -19.294  17.280  0.00  0.00     0.163 HD
BRANCH  16  19
ATOM     19  CA  ALA d   1     -22.100 -20.687  15.307  0.00  0.00     0.172 C 
ATOM     20  H4  ALA d   1     -22.127 -21.135  16.311  0.00  0.00     0.098 H 
BRANCH  19  21
ATOM     21  N   ALA d   1     -23.256 -21.218  14.530  0.00  0.00    -0.067 N 
ATOM     22  H1  ALA d   1     -23.170 -22.218  14.442  0.00  0.00     0.275 HD
ATOM     23  H2  ALA d   1     -23.265 -20.799  13.613  0.00  0.00     0.275 HD
ATOM     24  H3  ALA d   1     -24.114 -20.995  15.010  0.00  0.00     0.275 HD
ENDBRANCH  19  21
BRANCH  19  25
ATOM     25  CB  ALA d   1     -20.787 -21.075  14.651  0.00  0.00    -0.042 C 
ATOM     26  H5  ALA d   1     -19.950 -20.673  15.241  0.00  0.00     0.030 H 
ATOM     27  H6  ALA d   1     -20.750 -20.662  13.632  0.00  0.00     0.030 H 
ATOM     28  H7  ALA d   1     -20.710 -22.171  14.605  0.00  0.00     0.030 H 
ENDBRANCH  19  25
ENDBRANCH  16  19
ENDBRANCH  13  15
BRANCH  13  29
ATOM     29  CB  DA2 d   1     -21.636 -16.998  18.367  0.00  0.00    -0.036 C 
ATOM     30  H16 DA2 d   1     -20.648 -17.324  18.724  0.00  0.00     0.036 H 
ATOM     31  H17 DA2 d   1     -22.421 -17.556  18.899  0.00  0.00     0.036 H 
BRANCH  29  32
ATOM     32  CG  DA2 d   1     -21.807 -15.506  18.614  0.00  0.00    -0.048 C 
ATOM     33  H18 DA2 d   1     -22.675 -15.139  18.046  0.00  0.00     0.035 H 
ATOM     34  H19 DA2 d   1     -20.902 -14.975  18.284  0.00  0.00     0.035 H 
BRANCH  32  35
ATOM     35  CD  DA2 d   1     -22.028 -15.252  20.086  0.00  0.00     0.009 C 
ATOM     36  H20 DA2 d   1     -21.163 -15.596  20.672  0.00  0.00     0.064 H 
ATOM     37  H21 DA2 d   1     -22.936 -15.766  20.436  0.00  0.00     0.064 H 
BRANCH  35  38
ATOM     38  NE  DA2 d   1     -22.181 -13.813  20.197  0.00  0.00    -0.227 N 
ATOM     39  CZ  DA2 d   1     -22.287 -13.186  21.362  0.00  0.00     0.668 C 
ATOM     40  NH2 DA2 d   1     -22.253 -13.920  22.470  0.00  0.00    -0.235 N 
ATOM     41  NH1 DA2 d   1     -22.410 -11.864  21.423  0.00  0.00    -0.227 N 
ATOM     42  H23 DA2 d   1     -22.157 -14.944  22.407  0.00  0.00     0.174 HD
ATOM     43  H24 DA2 d   1     -22.322 -13.465  23.392  0.00  0.00     0.174 HD
ATOM     44  H22 DA2 d   1     -22.209 -13.253  19.333  0.00  0.00     0.177 HD
BRANCH  41  45
ATOM     45  C1  DA2 d   1     -22.433 -11.019  20.231  0.00  0.00    -0.003 C 
ATOM     46  H8  DA2 d   1     -22.542  -9.966  20.530  0.00  0.00     0.057 H 
ATOM     47  H9  DA2 d   1     -23.281 -11.309  19.593  0.00  0.00     0.057 H 
ATOM     48  H10 DA2 d   1     -21.494 -11.146  19.673  0.00  0.00     0.057 H 
ENDBRANCH  41  45
BRANCH  41  49
ATOM     49  C2  DA2 d   1     -22.541 -11.155  22.689  0.00  0.00    -0.003 C 
ATOM     50  H11 DA2 d   1     -22.512 -11.877  23.518  0.00  0.00     0.057 H 
ATOM     51  H12 DA2 d   1     -23.498 -10.613  22.708  0.00  0.00     0.057 H 
ATOM     52  H13 DA2 d   1     -21.712 -10.440  22.796  0.00  0.00     0.057 H 
ENDBRANCH  41  49
ENDBRANCH  35  38
ENDBRANCH  32  35
ENDBRANCH  29  32
ENDBRANCH  13  29
ENDBRANCH  10  13
ENDBRANCH   7   9
BRANCH   7  53
ATOM     53  CB  THR d   1     -19.946 -15.196  13.009  0.00  0.00     0.060 C 
ATOM     54  H27 THR d   1     -19.130 -14.623  12.545  0.00  0.00     0.086 H 
BRANCH  53  55
ATOM     55  OG1 THR d   1     -21.172 -14.881  12.344  0.00  0.00    -0.393 OA
ATOM     56  H28 THR d   1     -21.108 -15.130  11.430  0.00  0.00     0.210 HD
ENDBRANCH  53  55
BRANCH  53  57
ATOM     57  CG2 THR d   1     -19.651 -16.673  12.850  0.00  0.00    -0.050 C 
ATOM     58  H29 THR d   1     -19.588 -16.921  11.780  0.00  0.00     0.031 H 
ATOM     59  H30 THR d   1     -20.456 -17.260  13.316  0.00  0.00     0.031 H 
ATOM     60  H31 THR d   1     -18.695 -16.911  13.339  0.00  0.00     0.031 H 
ENDBRANCH  53  57
ENDBRANCH   7  53
ENDBRANCH   4   7
ENDBRANCH   1   3
BRANCH   1  61
ATOM     61  CB  MLY d   1     -18.950 -10.149  13.480  0.00  0.00    -0.038 C 
ATOM     62  H34 MLY d   1     -19.314  -9.118  13.361  0.00  0.00     0.036 H 
ATOM     63  H35 MLY d   1     -18.448 -10.470  12.555  0.00  0.00     0.036 H 
BRANCH  61  64
ATOM     64  CG  MLY d   1     -17.945 -10.189  14.627  0.00  0.00    -0.061 C 
ATOM     65  H36 MLY d   1     -17.048  -9.627  14.327  0.00  0.00     0.033 H 
ATOM     66  H37 MLY d   1     -17.674 -11.238  14.818  0.00  0.00     0.033 H 
BRANCH  64  67
ATOM     67  CD  MLY d   1     -18.488  -9.583  15.922  0.00  0.00    -0.042 C 
ATOM     68  H38 MLY d   1     -19.383 -10.143  16.230  0.00  0.00     0.035 H 
ATOM     69  H39 MLY d   1     -18.758  -8.533  15.738  0.00  0.00     0.035 H 
BRANCH  67  70
ATOM     70  CE  MLY d   1     -17.456  -9.640  17.049  0.00  0.00     0.083 C 
ATOM     71  H40 MLY d   1     -16.511  -9.211  16.684  0.00  0.00     0.075 H 
ATOM     72  H41 MLY d   1     -17.297 -10.692  17.328  0.00  0.00     0.075 H 
BRANCH  70  73
ATOM     73  NZ  MLY d   1     -17.887  -8.886  18.257  0.00  0.00    -0.079 N 
ATOM     74  H42 MLY d   1     -18.126  -7.940  18.003  0.00  0.00     0.278 HD
BRANCH  73  75
ATOM     75  CH1 MLY d   1     -16.749  -8.894  19.192  0.00  0.00     0.066 C 
ATOM     76  H43 MLY d   1     -17.021  -8.345  20.106  0.00  0.00     0.068 H 
ATOM     77  H44 MLY d   1     -15.882  -8.410  18.718  0.00  0.00     0.068 H 
ATOM     78  H45 MLY d   1     -16.494  -9.932  19.450  0.00  0.00     0.068 H 
ENDBRANCH  73  75
BRANCH  73  79
ATOM     79  CH2 MLY d   1     -19.040  -9.525  18.903  0.00  0.00     0.066 C 
ATOM     80  H46 MLY d   1     -19.895  -9.523  18.211  0.00  0.00     0.068 H 
ATOM     81  H47 MLY d   1     -19.305  -8.969  19.814  0.00  0.00     0.068 H 
ATOM     82  H48 MLY d   1     -18.784 -10.562  19.167  0.00  0.00     0.068 H 
ENDBRANCH  73  79
ENDBRANCH  70  73
ENDBRANCH  67  70
ENDBRANCH  64  67
ENDBRANCH  61  64
ENDBRANCH   1  61
BRANCH   1  83
ATOM     83  C   MLY d   1     -21.253 -10.923  12.714  0.00  0.00     0.241 C 
ATOM     84  O   MLY d   1     -21.890  -9.860  12.618  0.00  0.00    -0.271 OA
ATOM     85  N   GLN d   1     -21.500 -11.979  11.945  0.00  0.00    -0.346 N 
ATOM     86  H49 GLN d   1     -20.954 -12.807  12.076  0.00  0.00     0.163 HD
BRANCH  85  87
ATOM     87  CA  GLN d   1     -22.541 -11.978  10.913  0.00  0.00     0.090 C 
ATOM     88  H50 GLN d   1     -22.647 -10.953  10.529  0.00  0.00     0.087 H 
BRANCH  87  89
ATOM     89  C   GLN d   1     -23.893 -12.400  11.525  0.00  0.00     0.241 C 
ATOM     90  O   GLN d   1     -24.948 -12.151  10.938  0.00  0.00    -0.271 OA
ATOM     91  N   THR d   1     -23.851 -13.022  12.703  0.00  0.00    -0.344 N 
ATOM     92  H57 THR d   1     -22.959 -13.186  13.124  0.00  0.00     0.163 HD
BRANCH  91  93
ATOM     93  CA  THR d   1     -25.059 -13.480  13.415  0.00  0.00     0.113 C 
ATOM     94  H58 THR d   1     -25.566 -14.225  12.784  0.00  0.00     0.091 H 
BRANCH  93  95
ATOM     95  C   THR d   1     -26.026 -12.320  13.656  0.00  0.00     0.243 C 
ATOM     96  O   THR d   1     -25.607 -11.265  14.118  0.00  0.00    -0.271 OA
ATOM     97  N   ALA d   1     -27.307 -12.518  13.332  0.00  0.00    -0.345 N 
ATOM     98  H64 ALA d   1     -27.595 -13.432  13.046  0.00  0.00     0.163 HD
BRANCH  97  99
ATOM     99  CA  ALA d   1     -28.309 -11.442  13.380  0.00  0.00     0.093 C 
ATOM    100  H65 ALA d   1     -27.942 -10.626  12.741  0.00  0.00     0.089 H 
BRANCH  99 101
ATOM    101  C   ALA d   1     -28.508 -10.864  14.784  0.00  0.00     0.196 C 
ATOM    102  O   ALA d   1     -28.597 -11.609  15.768  0.00  0.00    -0.646 OA
ATOM    103  OXT ALA d   1     -28.583  -9.641  14.960  0.00  0.00    -0.646 OA
ENDBRANCH  99 101
BRANCH  99 104
ATOM    104  CB  ALA d   1     -29.647 -11.925  12.801  0.00  0.00    -0.048 C 
ATOM    105  H66 ALA d   1     -30.382 -11.108  12.845  0.00  0.00     0.030 H 
ATOM    106  H67 ALA d   1     -30.013 -12.780  13.388  0.00  0.00     0.030 H 
ATOM    107  H68 ALA d   1     -29.504 -12.233  11.755  0.00  0.00     0.030 H 
ENDBRANCH  99 104
ENDBRANCH  97  99
ENDBRANCH  93  95
BRANCH  93 108
ATOM    108  CB  THR d   1     -24.687 -14.157  14.762  0.00  0.00     0.060 C 
ATOM    109  H59 THR d   1     -24.096 -13.451  15.364  0.00  0.00     0.086 H 
BRANCH 108 110
ATOM    110  OG1 THR d   1     -23.913 -15.327  14.504  0.00  0.00    -0.393 OA
ATOM    111  H60 THR d   1     -24.420 -15.930  13.974  0.00  0.00     0.210 HD
ENDBRANCH 108 110
BRANCH 108 112
ATOM    112  CG2 THR d   1     -25.932 -14.561  15.547  0.00  0.00    -0.050 C 
ATOM    113  H61 THR d   1     -25.631 -15.036  16.492  0.00  0.00     0.031 H 
ATOM    114  H62 THR d   1     -26.526 -15.271  14.953  0.00  0.00     0.031 H 
ATOM    115  H63 THR d   1     -26.536 -13.667  15.762  0.00  0.00     0.031 H 
ENDBRANCH 108 112
ENDBRANCH  93 108
ENDBRANCH  91  93
ENDBRANCH  87  89
BRANCH  87 116
ATOM    116  CB  GLN d   1     -22.128 -12.888   9.734  0.00  0.00    -0.030 C 
ATOM    117  H51 GLN d   1     -22.150 -13.929  10.089  0.00  0.00     0.037 H 
ATOM    118  H52 GLN d   1     -21.101 -12.620   9.446  0.00  0.00     0.037 H 
BRANCH 116 119
ATOM    119  CG  GLN d   1     -23.019 -12.801   8.456  0.00  0.00     0.011 C 
ATOM    120  H53 GLN d   1     -23.073 -11.747   8.145  0.00  0.00     0.047 H 
ATOM    121  H54 GLN d   1     -24.026 -13.160   8.713  0.00  0.00     0.047 H 
BRANCH 119 122
ATOM    122  CD  GLN d   1     -22.499 -13.634   7.258  0.00  0.00     0.215 C 
ATOM    123  OE1 GLN d   1     -23.157 -14.588   6.810  0.00  0.00    -0.274 OA
ATOM    124  NE2 GLN d   1     -21.324 -13.277   6.742  0.00  0.00    -0.370 N 
ATOM    125  H55 GLN d   1     -20.944 -13.782   5.967  0.00  0.00     0.159 HD
ATOM    126  H56 GLN d   1     -20.822 -12.504   7.129  0.00  0.00     0.159 HD
ENDBRANCH 119 122
ENDBRANCH 116 119
ENDBRANCH  87 116
ENDBRANCH  85  87
ENDBRANCH   1  83
TORSDOF 38
