REMARK  6 active torsions:
REMARK  status: ('A' for Active; 'I' for Inactive)
REMARK    1  A    between atoms: C13_6  and  C19_7 
REMARK       I    between atoms: N1_15  and  C7_16 
REMARK    2  A    between atoms: C7_16  and  C4_18 
REMARK    3  A    between atoms: C1_22  and  C5_23 
REMARK    4  A    between atoms: C5_23  and  C6_24 
REMARK    5  A    between atoms: C5_23  and  O3_28 
REMARK    6  A    between atoms: C5_23  and  O2_29 
ROOT
ATOM      1  C19 TFG d   1      18.083  74.826  41.168  0.00  0.00     0.064 A 
ATOM      2  C12 TFG d   1      17.676  73.873  40.331  0.00  0.00     0.031 A 
ATOM      3  N3  TFG d   1      18.312  74.018  39.160  0.00  0.00    -0.243 NA
ATOM      4  C11 TFG d   1      19.149  75.051  39.230  0.00  0.00     0.124 A 
ATOM      5  C10 TFG d   1      20.103  75.611  38.158  0.00  0.00     0.053 C 
ATOM      6  N2  TFG d   1      19.031  75.589  40.515  0.00  0.00    -0.330 N 
ATOM      7  C9  TFG d   1      19.783  76.756  40.987  0.00  0.00     0.016 C 
ATOM      8  C8  TFG d   1      20.971  76.971  40.104  0.00  0.00     0.014 C 
ATOM      9  N1  TFG d   1      20.587  76.886  38.676  0.00  0.00    -0.339 N 
ATOM     10  C7  TFG d   1      20.684  78.016  37.988  0.00  0.00     0.261 C 
ATOM     11  O1  TFG d   1      21.123  78.971  38.634  0.00  0.00    -0.267 OA
ATOM     12  H6  TFG d   1      16.944  73.100  40.561  0.00  0.00     0.118 H 
ATOM     13  H7  TFG d   1      19.566  75.763  37.210  0.00  0.00     0.076 H 
ATOM     14  H8  TFG d   1      20.944  74.920  37.996  0.00  0.00     0.076 H 
ATOM     15  H9  TFG d   1      20.120  76.583  42.020  0.00  0.00     0.067 H 
ATOM     16  H10 TFG d   1      19.137  77.646  40.956  0.00  0.00     0.067 H 
ATOM     17  H11 TFG d   1      21.726  76.201  40.321  0.00  0.00     0.067 H 
ATOM     18  H12 TFG d   1      21.394  77.966  40.305  0.00  0.00     0.067 H 
ENDROOT
BRANCH  10  19
ATOM     19  C4  TFG d   1      20.473  78.251  36.497  0.00  0.00     0.073 A 
ATOM     20  S1  TFG d   1      20.187  79.775  35.880  0.00  0.00    -0.083 SA
ATOM     21  C1  TFG d   1      20.220  79.297  34.265  0.00  0.00     0.054 A 
ATOM     22  C2  TFG d   1      20.486  77.973  34.249  0.00  0.00    -0.063 A 
ATOM     23  C3  TFG d   1      20.642  77.405  35.475  0.00  0.00    -0.060 A 
ATOM     24  H14 TFG d   1      20.569  77.403  33.325  0.00  0.00     0.085 H 
ATOM     25  H13 TFG d   1      20.884  76.352  35.613  0.00  0.00     0.085 H 
BRANCH  21  26
ATOM     26  C5  TFG d   1      20.018  80.286  33.078  0.00  0.00     0.297 C 
BRANCH  26  27
ATOM     27  C6  TFG d   1      19.611  79.632  31.757  0.00  0.00     0.450 C 
ATOM     28  F1  TFG d   1      20.443  78.642  31.446  0.00  0.00    -0.165 F 
ATOM     29  F2  TFG d   1      18.369  79.216  31.845  0.00  0.00    -0.165 F 
ATOM     30  F3  TFG d   1      19.667  80.543  30.812  0.00  0.00    -0.165 F 
ENDBRANCH  26  27
BRANCH  26  31
ATOM     31  O3  TFG d   1      19.066  81.314  33.417  0.00  0.00    -0.354 OA
ATOM     32  H15 TFG d   1      18.221  80.917  33.589  0.00  0.00     0.213 HD
ENDBRANCH  26  31
BRANCH  26  33
ATOM     33  O2  TFG d   1      21.275  80.991  32.833  0.00  0.00    -0.354 OA
ATOM     34  H16 TFG d   1      21.949  80.363  32.603  0.00  0.00     0.213 HD
ENDBRANCH  26  33
ENDBRANCH  21  26
ENDBRANCH  10  19
BRANCH   1  35
ATOM     35  C13 TFG d   1      17.760  75.095  42.500  0.00  0.00    -0.008 A 
ATOM     36  C14 TFG d   1      17.459  74.038  43.359  0.00  0.00    -0.071 A 
ATOM     37  C15 TFG d   1      17.175  74.293  44.694  0.00  0.00    -0.082 A 
ATOM     38  H1  TFG d   1      17.447  73.020  42.985  0.00  0.00     0.084 H 
ATOM     39  C16 TFG d   1      17.196  75.599  45.183  0.00  0.00    -0.083 A 
ATOM     40  H2  TFG d   1      16.936  73.472  45.360  0.00  0.00     0.083 H 
ATOM     41  C17 TFG d   1      17.507  76.662  44.337  0.00  0.00    -0.082 A 
ATOM     42  H3  TFG d   1      16.969  75.788  46.226  0.00  0.00     0.083 H 
ATOM     43  C18 TFG d   1      17.791  76.402  42.998  0.00  0.00    -0.071 A 
ATOM     44  H4  TFG d   1      17.528  77.677  44.716  0.00  0.00     0.083 H 
ATOM     45  H5  TFG d   1      18.039  77.222  42.334  0.00  0.00     0.084 H 
ENDBRANCH   1  35
TORSDOF 6
