REMARK  8 active torsions:
REMARK  status: ('A' for Active; 'I' for Inactive)
REMARK    1  A    between atoms: C1_1  and  O1_2 
REMARK    2  A    between atoms: C3_4  and  C11_13 
REMARK    3  A    between atoms: C11_13  and  C13_15 
REMARK    4  A    between atoms: C13_15  and  C12_14 
REMARK    5  A    between atoms: C12_14  and  C14_16 
REMARK    6  A    between atoms: C14_16  and  C15_17 
REMARK    7  A    between atoms: C15_17  and  C16_18 
REMARK    8  A    between atoms: C16_18  and  C17_19 
ROOT
ATOM      1  C11 HQO d   1      37.956   1.750 -15.247  0.00  0.00    -0.024 C 
ATOM      2  H   HQO d   1      37.710   0.789 -14.772  0.00  0.00     0.042 H 
ATOM      3  H   HQO d   1      39.032   1.783 -15.473  0.00  0.00     0.042 H 
ENDROOT
BRANCH   1   4
ATOM      4  C3  HQO d   1      37.617   2.882 -14.281  0.00  0.00     0.046 A 
ATOM      5  C2  HQO d   1      38.374   4.068 -14.330  0.00  0.00    -0.026 A 
ATOM      6  C1  HQO d   1      38.103   5.143 -13.472  0.00  0.00     0.080 A 
ATOM      7  H   HQO d   1      39.183   4.152 -15.046  0.00  0.00     0.090 H 
ATOM      8  C10 HQO d   1      36.981   4.992 -12.496  0.00  0.00     0.026 A 
ATOM      9  C5  HQO d   1      36.263   3.791 -12.486  0.00  0.00     0.078 A 
ATOM     10  C9  HQO d   1      36.645   6.025 -11.615  0.00  0.00    -0.068 A 
ATOM     11  N1  HQO d   1      36.602   2.742 -13.394  0.00  0.00    -0.192 N 
ATOM     12  C6  HQO d   1      35.210   3.644 -11.576  0.00  0.00    -0.054 A 
ATOM     13  O4  HQO d   1      35.951   1.684 -13.370  0.00  0.00    -0.080 OA
ATOM     14  C7  HQO d   1      34.881   4.675 -10.693  0.00  0.00    -0.081 A 
ATOM     15  H   HQO d   1      34.644   2.720 -11.556  0.00  0.00     0.087 H 
ATOM     16  C8  HQO d   1      35.595   5.871 -10.709  0.00  0.00    -0.082 A 
ATOM     17  H   HQO d   1      34.065   4.544  -9.991  0.00  0.00     0.083 H 
ATOM     18  H   HQO d   1      35.338   6.672 -10.026  0.00  0.00     0.083 H 
ATOM     19  H   HQO d   1      37.205   6.953 -11.636  0.00  0.00     0.085 H 
BRANCH   6  20
ATOM     20  O1  HQO d   1      38.843   6.299 -13.519  0.00  0.00    -0.360 OA
ATOM     21  H   HQO d   1      38.516   6.910 -12.869  0.00  0.00     0.217 HD
ENDBRANCH   6  20
ENDBRANCH   1   4
BRANCH   1  22
ATOM     22  C13 HQO d   1      37.163   1.877 -16.562  0.00  0.00    -0.060 C 
ATOM     23  H   HQO d   1      37.087   2.944 -16.819  0.00  0.00     0.033 H 
ATOM     24  H   HQO d   1      36.155   1.466 -16.400  0.00  0.00     0.033 H 
BRANCH  22  25
ATOM     25  C12 HQO d   1      37.800   1.140 -17.743  0.00  0.00    -0.065 C 
ATOM     26  H   HQO d   1      38.514   0.401 -17.351  0.00  0.00     0.033 H 
ATOM     27  H   HQO d   1      38.335   1.873 -18.365  0.00  0.00     0.033 H 
BRANCH  25  28
ATOM     28  C14 HQO d   1      36.774   0.409 -18.622  0.00  0.00    -0.065 C 
ATOM     29  H   HQO d   1      37.066   0.524 -19.676  0.00  0.00     0.033 H 
ATOM     30  H   HQO d   1      35.785   0.864 -18.464  0.00  0.00     0.033 H 
BRANCH  28  31
ATOM     31  C15 HQO d   1      36.686  -1.089 -18.295  0.00  0.00    -0.065 C 
ATOM     32  H   HQO d   1      35.882  -1.233 -17.558  0.00  0.00     0.033 H 
ATOM     33  H   HQO d   1      37.645  -1.402 -17.857  0.00  0.00     0.033 H 
BRANCH  31  34
ATOM     34  C16 HQO d   1      36.395  -1.990 -19.503  0.00  0.00    -0.069 C 
ATOM     35  H   HQO d   1      36.599  -1.420 -20.421  0.00  0.00     0.032 H 
ATOM     36  H   HQO d   1      35.333  -2.277 -19.477  0.00  0.00     0.032 H 
BRANCH  34  37
ATOM     37  C17 HQO d   1      37.239  -3.259 -19.524  0.00  0.00    -0.077 C 
ATOM     38  H   HQO d   1      36.981  -3.856 -20.411  0.00  0.00     0.027 H 
ATOM     39  H   HQO d   1      37.040  -3.847 -18.616  0.00  0.00     0.027 H 
ATOM     40  H   HQO d   1      38.305  -2.990 -19.560  0.00  0.00     0.027 H 
ENDBRANCH  34  37
ENDBRANCH  31  34
ENDBRANCH  28  31
ENDBRANCH  25  28
ENDBRANCH  22  25
ENDBRANCH   1  22
TORSDOF 8
