REMARK WARNING: 32 MAX_TORS EXCEEDED!!!
REMARK  43 active torsions:
REMARK  status: ('A' for Active; 'I' for Inactive)
REMARK    1  A    between atoms: N_1  and  CA_2 
REMARK    2  A    between atoms: CA_2  and  C_3 
REMARK       I    between atoms: C_3  and  N_5 
REMARK    3  A    between atoms: N_5  and  CA_6 
REMARK    4  A    between atoms: CA_6  and  C_7 
REMARK    5  A    between atoms: CA_6  and  CB_9 
REMARK       I    between atoms: C_7  and  N_10 
REMARK    6  A    between atoms: N_10  and  CA_11 
REMARK    7  A    between atoms: CA_11  and  C_12 
REMARK    8  A    between atoms: CA_11  and  CB_14 
REMARK       I    between atoms: C_12  and  N_18 
REMARK    9  A    between atoms: CB_14  and  CG_15 
REMARK   10  A    between atoms: CG_15  and  CD1_16 
REMARK   11  A    between atoms: CG_15  and  CD2_17 
REMARK   12  A    between atoms: N_18  and  CA_19 
REMARK   13  A    between atoms: CA_19  and  C_20 
REMARK       I    between atoms: C_20  and  N_22 
REMARK   14  A    between atoms: N_22  and  CA_23 
REMARK   15  A    between atoms: CA_23  and  C_24 
REMARK       I    between atoms: C_24  and  N_26 
REMARK   16  A    between atoms: N_26  and  CA_27 
REMARK   17  A    between atoms: CA_27  and  C_28 
REMARK   18  A    between atoms: CA_27  and  CB_30 
REMARK       I    between atoms: C_28  and  N_31 
REMARK   19  A    between atoms: N_31  and  CA_32 
REMARK   20  A    between atoms: CA_32  and  C_33 
REMARK   21  A    between atoms: CA_32  and  CB_35 
REMARK       I    between atoms: C_33  and  N_40 
REMARK   22  A    between atoms: CB_35  and  CG_36 
REMARK   23  A    between atoms: CG_36  and  CD_37 
REMARK   24  A    between atoms: CD_37  and  CE_38 
REMARK   25  A    between atoms: CE_38  and  NZ_39 
REMARK   26  A    between atoms: N_40  and  CA_41 
REMARK   27  A    between atoms: CA_41  and  C_42 
REMARK   28  A    between atoms: CA_41  and  CB_44 
REMARK       I    between atoms: C_42  and  N_49 
REMARK   29  A    between atoms: CB_44  and  CG_45 
REMARK   30  A    between atoms: CG_45  and  CD_46 
REMARK       I    between atoms: CD_46  and  NE2_48 
REMARK   31  A    between atoms: N_49  and  CA_50 
REMARK   32  A    between atoms: CA_50  and  C_51 
REMARK   33  A    between atoms: CA_50  and  CB_53 
REMARK       I    between atoms: C_51  and  N_54 
REMARK   34  A    between atoms: N_54  and  CA_55 
REMARK   35  A    between atoms: CA_55  and  C_56 
REMARK       I    between atoms: C_56  and  N_58 
REMARK   36  A    between atoms: N_58  and  CA_59 
REMARK   37  A    between atoms: CA_59  and  C_60 
REMARK   38  A    between atoms: CA_59  and  CB_62 
REMARK       I    between atoms: C_60  and  N_63 
REMARK   39  A    between atoms: N_63  and  CA_64 
REMARK   40  A    between atoms: CA_64  and  C_65 
REMARK   41  A    between atoms: CA_64  and  CB_67 
REMARK   42  A    between atoms: CB_67  and  CG1_68 
REMARK   43  A    between atoms: CB_67  and  CG2_69 
ROOT
ATOM      1  CA  LYS d   1      38.112  40.546  23.613  0.00  0.00     0.089 C 
ATOM      2  H34 LYS d   1      37.326  41.159  24.078  0.00  0.00     0.087 H 
ENDROOT
BRANCH   1   3
ATOM      3  N   LYS d   1      38.774  39.774  24.656  0.00  0.00    -0.346 N 
ATOM      4  C   ALA d   1      38.564  40.040  25.935  0.00  0.00     0.240 C 
ATOM      5  O   ALA d   1      37.963  41.075  26.319  0.00  0.00    -0.271 OA
ATOM      6  H33 LYS d   1      39.396  39.033  24.402  0.00  0.00     0.163 HD
BRANCH   4   7
ATOM      7  CA  ALA d   1      39.112  38.990  26.907  0.00  0.00     0.086 C 
ATOM      8  H29 ALA d   1      40.069  38.631  26.501  0.00  0.00     0.086 H 
BRANCH   7   9
ATOM      9  N   ALA d   1      39.369  39.519  28.222  0.00  0.00    -0.347 N 
ATOM     10  C   GLY d   1      40.565  39.469  28.811  0.00  0.00     0.236 C 
ATOM     11  O   GLY d   1      41.468  38.713  28.471  0.00  0.00    -0.272 OA
ATOM     12  H28 ALA d   1      38.613  39.945  28.718  0.00  0.00     0.163 HD
BRANCH  10  13
ATOM     13  CA  GLY d   1      40.772  40.421  29.948  0.00  0.00     0.069 C 
ATOM     14  H26 GLY d   1      40.989  41.420  29.543  0.00  0.00     0.078 H 
ATOM     15  H27 GLY d   1      39.853  40.462  30.552  0.00  0.00     0.078 H 
BRANCH  13  16
ATOM     16  N   GLY d   1      41.878  40.005  30.797  0.00  0.00    -0.351 N 
ATOM     17  C   GLY d   1      42.097  40.643  31.938  0.00  0.00     0.235 C 
ATOM     18  O   GLY d   1      41.389  41.572  32.290  0.00  0.00    -0.272 OA
ATOM     19  H25 GLY d   1      42.467  39.245  30.522  0.00  0.00     0.163 HD
BRANCH  17  20
ATOM     20  CA  GLY d   1      43.253  40.163  32.813  0.00  0.00     0.069 C 
ATOM     21  H23 GLY d   1      43.212  39.066  32.880  0.00  0.00     0.078 H 
ATOM     22  H24 GLY d   1      44.200  40.467  32.344  0.00  0.00     0.078 H 
BRANCH  20  23
ATOM     23  N   GLY d   1      43.200  40.723  34.177  0.00  0.00    -0.351 N 
ATOM     24  C   LEU d   1      44.173  41.489  34.679  0.00  0.00     0.240 C 
ATOM     25  O   LEU d   1      45.266  41.608  34.149  0.00  0.00    -0.271 OA
ATOM     26  H22 GLY d   1      42.404  40.521  34.748  0.00  0.00     0.163 HD
BRANCH  24  27
ATOM     27  CA  LEU d   1      43.850  42.279  35.951  0.00  0.00     0.089 C 
ATOM     28  H12 LEU d   1      42.835  41.978  36.251  0.00  0.00     0.087 H 
BRANCH  27  29
ATOM     29  N   LEU d   1      44.706  42.061  37.137  0.00  0.00    -0.346 N 
ATOM     30  C   HIS d   1      44.248  42.162  38.383  0.00  0.00     0.240 C 
ATOM     31  O   HIS d   1      43.032  42.222  38.658  0.00  0.00    -0.271 OA
ATOM     32  H11 LEU d   1      45.668  41.828  36.997  0.00  0.00     0.163 HD
BRANCH  30  33
ATOM     33  CA  HIS d   1      45.304  42.189  39.494  0.00  0.00     0.086 C 
ATOM     34  H7  HIS d   1      46.051  42.953  39.235  0.00  0.00     0.086 H 
BRANCH  33  35
ATOM     35  N   HIS d   1      44.715  42.550  40.790  0.00  0.00    -0.347 N 
ATOM     36  C   HIS d   1      45.376  43.250  41.709  0.00  0.00     0.243 C 
ATOM     37  O   HIS d   1      46.527  43.644  41.556  0.00  0.00    -0.272 OA
ATOM     38  H6  HIS d   1      43.780  42.258  40.990  0.00  0.00     0.163 HD
BRANCH  36  39
ATOM     39  CA  HIS d   1      44.635  43.528  43.002  0.00  0.00     0.152 C 
ATOM     40  H4  HIS d   1      44.380  44.597  43.045  0.00  0.00     0.090 H 
ATOM     41  H5  HIS d   1      43.712  42.930  43.020  0.00  0.00     0.090 H 
BRANCH  39  42
ATOM     42  N   HIS d   1      45.464  43.178  44.195  0.00  0.00    -0.071 N 
ATOM     43  H1  HIS d   1      44.943  43.374  45.035  0.00  0.00     0.274 HD
ATOM     44  H2  HIS d   1      46.310  43.726  44.188  0.00  0.00     0.274 HD
ATOM     45  H3  HIS d   1      45.698  42.198  44.166  0.00  0.00     0.274 HD
ENDBRANCH  39  42
ENDBRANCH  36  39
ENDBRANCH  33  35
BRANCH  33  46
ATOM     46  CB  HIS d   1      46.013  40.838  39.587  0.00  0.00    -0.049 C 
ATOM     47  H8  HIS d   1      46.447  40.584  38.609  0.00  0.00     0.030 H 
ATOM     48  H9  HIS d   1      45.289  40.063  39.879  0.00  0.00     0.030 H 
ATOM     49  H10 HIS d   1      46.813  40.895  40.340  0.00  0.00     0.030 H 
ENDBRANCH  33  46
ENDBRANCH  30  33
ENDBRANCH  27  29
BRANCH  27  50
ATOM     50  CB  LEU d   1      43.814  43.764  35.603  0.00  0.00    -0.035 C 
ATOM     51  H13 LEU d   1      44.842  44.071  35.361  0.00  0.00     0.037 H 
ATOM     52  H14 LEU d   1      43.471  44.304  36.498  0.00  0.00     0.037 H 
BRANCH  50  53
ATOM     53  CG  LEU d   1      42.920  44.194  34.437  0.00  0.00    -0.059 C 
ATOM     54  H15 LEU d   1      43.247  43.674  33.525  0.00  0.00     0.038 H 
BRANCH  53  55
ATOM     55  CD1 LEU d   1      41.417  43.865  34.672  0.00  0.00    -0.073 C 
ATOM     56  H16 LEU d   1      40.829  44.197  33.803  0.00  0.00     0.028 H 
ATOM     57  H17 LEU d   1      41.064  44.386  35.574  0.00  0.00     0.028 H 
ATOM     58  H18 LEU d   1      41.295  42.780  34.804  0.00  0.00     0.028 H 
ENDBRANCH  53  55
BRANCH  53  59
ATOM     59  CD2 LEU d   1      43.117  45.673  34.267  0.00  0.00    -0.073 C 
ATOM     60  H19 LEU d   1      44.184  45.884  34.102  0.00  0.00     0.028 H 
ATOM     61  H20 LEU d   1      42.776  46.195  35.173  0.00  0.00     0.028 H 
ATOM     62  H21 LEU d   1      42.536  46.023  33.401  0.00  0.00     0.028 H 
ENDBRANCH  53  59
ENDBRANCH  50  53
ENDBRANCH  27  50
ENDBRANCH  24  27
ENDBRANCH  20  23
ENDBRANCH  17  20
ENDBRANCH  13  16
ENDBRANCH  10  13
ENDBRANCH   7   9
BRANCH   7  63
ATOM     63  CB  ALA d   1      38.162  37.804  26.996  0.00  0.00    -0.049 C 
ATOM     64  H30 ALA d   1      37.973  37.409  25.987  0.00  0.00     0.030 H 
ATOM     65  H31 ALA d   1      37.212  38.128  27.446  0.00  0.00     0.030 H 
ATOM     66  H32 ALA d   1      38.614  37.018  27.619  0.00  0.00     0.030 H 
ENDBRANCH   7  63
ENDBRANCH   4   7
ENDBRANCH   1   3
BRANCH   1  67
ATOM     67  C   LYS d   1      37.443  39.585  22.618  0.00  0.00     0.241 C 
ATOM     68  O   LYS d   1      37.988  38.546  22.267  0.00  0.00    -0.271 OA
ATOM     69  N   GLN d   1      36.255  39.941  22.153  0.00  0.00    -0.346 N 
ATOM     70  H46 GLN d   1      35.870  40.829  22.406  0.00  0.00     0.163 HD
BRANCH  69  71
ATOM     71  CA  GLN d   1      35.509  39.059  21.283  0.00  0.00     0.090 C 
ATOM     72  H47 GLN d   1      36.160  38.231  20.968  0.00  0.00     0.087 H 
BRANCH  71  73
ATOM     73  C   GLN d   1      35.026  39.808  20.064  0.00  0.00     0.241 C 
ATOM     74  O   GLN d   1      34.722  40.979  20.159  0.00  0.00    -0.271 OA
ATOM     75  N   ALA d   1      34.941  39.094  18.943  0.00  0.00    -0.346 N 
ATOM     76  H54 ALA d   1      35.070  38.105  19.017  0.00  0.00     0.163 HD
BRANCH  75  77
ATOM     77  CA  ALA d   1      34.679  39.629  17.639  0.00  0.00     0.086 C 
ATOM     78  H55 ALA d   1      34.765  40.725  17.658  0.00  0.00     0.086 H 
BRANCH  77  79
ATOM     79  C   ALA d   1      33.299  39.220  17.270  0.00  0.00     0.240 C 
ATOM     80  O   ALA d   1      32.826  38.209  17.768  0.00  0.00    -0.271 OA
ATOM     81  N   GLY d   1      32.702  39.960  16.348  0.00  0.00    -0.351 N 
ATOM     82  H59 GLY d   1      33.232  40.674  15.890  0.00  0.00     0.163 HD
BRANCH  81  83
ATOM     83  CA  GLY d   1      31.285  39.776  15.966  0.00  0.00     0.069 C 
ATOM     84  H60 GLY d   1      30.641  40.071  16.808  0.00  0.00     0.078 H 
ATOM     85  H61 GLY d   1      31.110  38.718  15.724  0.00  0.00     0.078 H 
BRANCH  83  86
ATOM     86  C   GLY d   1      30.954  40.613  14.778  0.00  0.00     0.236 C 
ATOM     87  O   GLY d   1      31.760  41.458  14.346  0.00  0.00    -0.272 OA
ATOM     88  N   ALA d   1      29.738  40.410  14.280  0.00  0.00    -0.347 N 
ATOM     89  H62 ALA d   1      29.074  39.899  14.826  0.00  0.00     0.163 HD
BRANCH  88  90
ATOM     90  CA  ALA d   1      29.340  40.895  12.989  0.00  0.00     0.086 C 
ATOM     91  H63 ALA d   1      30.171  40.868  12.269  0.00  0.00     0.086 H 
BRANCH  90  92
ATOM     92  C   ALA d   1      28.908  42.315  13.271  0.00  0.00     0.240 C 
ATOM     93  O   ALA d   1      28.505  42.605  14.376  0.00  0.00    -0.271 OA
ATOM     94  N   VAL d   1      29.054  43.225  12.318  0.00  0.00    -0.344 N 
ATOM     95  H67 VAL d   1      29.433  42.971  11.428  0.00  0.00     0.163 HD
BRANCH  94  96
ATOM     96  CA  VAL d   1      28.651  44.611  12.587  0.00  0.00     0.099 C 
ATOM     97  H68 VAL d   1      29.182  44.968  13.482  0.00  0.00     0.090 H 
BRANCH  96  98
ATOM     98  C   VAL d   1      27.171  44.617  12.835  0.00  0.00     0.197 C 
ATOM     99  O   VAL d   1      26.658  45.316  13.701  0.00  0.00    -0.646 OA
ATOM    100  OXT VAL d   1      26.471  43.903  12.150  0.00  0.00    -0.646 OA
ENDBRANCH  96  98
BRANCH  96 101
ATOM    101  CB  VAL d   1      28.950  45.578  11.411  0.00  0.00    -0.032 C 
ATOM    102  H69 VAL d   1      28.429  45.212  10.514  0.00  0.00     0.042 H 
BRANCH 101 103
ATOM    103  CG1 VAL d   1      28.441  46.984  11.740  0.00  0.00    -0.071 C 
ATOM    104  H70 VAL d   1      28.659  47.659  10.899  0.00  0.00     0.028 H 
ATOM    105  H71 VAL d   1      28.944  47.353  12.646  0.00  0.00     0.028 H 
ATOM    106  H72 VAL d   1      27.355  46.950  11.911  0.00  0.00     0.028 H 
ENDBRANCH 101 103
BRANCH 101 107
ATOM    107  CG2 VAL d   1      30.427  45.629  11.125  0.00  0.00    -0.071 C 
ATOM    108  H73 VAL d   1      30.790  44.618  10.889  0.00  0.00     0.028 H 
ATOM    109  H74 VAL d   1      30.959  46.012  12.008  0.00  0.00     0.028 H 
ATOM    110  H75 VAL d   1      30.612  46.294  10.268  0.00  0.00     0.028 H 
ENDBRANCH 101 107
ENDBRANCH  96 101
ENDBRANCH  94  96
ENDBRANCH  90  92
BRANCH  90 111
ATOM    111  CB  ALA d   1      28.133  40.011  12.460  0.00  0.00    -0.049 C 
ATOM    112  H64 ALA d   1      27.819  40.374  11.470  0.00  0.00     0.030 H 
ATOM    113  H65 ALA d   1      27.289  40.085  13.162  0.00  0.00     0.030 H 
ATOM    114  H66 ALA d   1      28.454  38.962  12.381  0.00  0.00     0.030 H 
ENDBRANCH  90 111
ENDBRANCH  88  90
ENDBRANCH  83  86
ENDBRANCH  81  83
ENDBRANCH  77  79
BRANCH  77 115
ATOM    115  CB  ALA d   1      35.622  39.067  16.630  0.00  0.00    -0.049 C 
ATOM    116  H56 ALA d   1      35.398  39.494  15.641  0.00  0.00     0.030 H 
ATOM    117  H57 ALA d   1      35.509  37.974  16.591  0.00  0.00     0.030 H 
ATOM    118  H58 ALA d   1      36.655  39.319  16.913  0.00  0.00     0.030 H 
ENDBRANCH  77 115
ENDBRANCH  75  77
ENDBRANCH  71  73
BRANCH  71 119
ATOM    119  CB  GLN d   1      34.298  38.499  22.018  0.00  0.00    -0.030 C 
ATOM    120  H48 GLN d   1      33.690  37.934  21.296  0.00  0.00     0.037 H 
ATOM    121  H49 GLN d   1      33.713  39.345  22.407  0.00  0.00     0.037 H 
BRANCH 119 122
ATOM    122  CG  GLN d   1      34.631  37.571  23.189  0.00  0.00     0.011 C 
ATOM    123  H50 GLN d   1      35.395  38.048  23.820  0.00  0.00     0.047 H 
ATOM    124  H51 GLN d   1      35.021  36.621  22.796  0.00  0.00     0.047 H 
BRANCH 122 125
ATOM    125  CD  GLN d   1      33.388  37.291  24.033  0.00  0.00     0.215 C 
ATOM    126  OE1 GLN d   1      33.173  37.937  25.039  0.00  0.00    -0.274 OA
ATOM    127  NE2 GLN d   1      32.585  36.320  23.628  0.00  0.00    -0.370 N 
ATOM    128  H52 GLN d   1      31.760  36.103  24.150  0.00  0.00     0.159 HD
ATOM    129  H53 GLN d   1      32.803  35.804  22.800  0.00  0.00     0.159 HD
ENDBRANCH 122 125
ENDBRANCH 119 122
ENDBRANCH  71 119
ENDBRANCH  69  71
ENDBRANCH   1  67
BRANCH   1 130
ATOM    130  CB  LYS d   1      39.101  41.490  22.931  0.00  0.00    -0.038 C 
ATOM    131  H35 LYS d   1      39.702  40.903  22.221  0.00  0.00     0.036 H 
ATOM    132  H36 LYS d   1      39.759  41.914  23.704  0.00  0.00     0.036 H 
BRANCH 130 133
ATOM    133  CG  LYS d   1      38.453  42.651  22.164  0.00  0.00    -0.061 C 
ATOM    134  H37 LYS d   1      37.811  43.217  22.855  0.00  0.00     0.033 H 
ATOM    135  H38 LYS d   1      37.840  42.238  21.349  0.00  0.00     0.033 H 
BRANCH 133 136
ATOM    136  CD  LYS d   1      39.492  43.606  21.564  0.00  0.00    -0.043 C 
ATOM    137  H39 LYS d   1      39.142  43.920  20.570  0.00  0.00     0.035 H 
ATOM    138  H40 LYS d   1      40.444  43.065  21.463  0.00  0.00     0.035 H 
BRANCH 136 139
ATOM    139  CE  LYS d   1      39.736  44.864  22.412  0.00  0.00     0.080 C 
ATOM    140  H41 LYS d   1      40.808  45.107  22.364  0.00  0.00     0.075 H 
ATOM    141  H42 LYS d   1      39.458  44.636  23.451  0.00  0.00     0.075 H 
BRANCH 139 142
ATOM    142  NZ  LYS d   1      38.950  46.094  21.970  0.00  0.00    -0.079 N 
ATOM    143  H43 LYS d   1      39.169  46.868  22.577  0.00  0.00     0.274 HD
ATOM    144  H44 LYS d   1      37.963  45.897  22.019  0.00  0.00     0.274 HD
ATOM    145  H45 LYS d   1      39.199  46.329  21.022  0.00  0.00     0.274 HD
ENDBRANCH 139 142
ENDBRANCH 136 139
ENDBRANCH 133 136
ENDBRANCH 130 133
ENDBRANCH   1 130
TORSDOF 43
