REMARK  11 active torsions:
REMARK  status: ('A' for Active; 'I' for Inactive)
REMARK    1  A    between atoms: NBL_6  and  CAS_7 
REMARK    2  A    between atoms: CAS_7  and  CAO_8 
REMARK    3  A    between atoms: CAO_8  and  CAP_9 
REMARK    4  A    between atoms: CAP_9  and  OBB_10 
REMARK    5  A    between atoms: OBB_10  and  CBH_11 
REMARK    6  A    between atoms: CBG_13  and  OAZ_14 
REMARK    7  A    between atoms: OAZ_14  and  CAA_15 
REMARK    8  A    between atoms: C6_22  and  NAY_23 
REMARK    9  A    between atoms: NAY_23  and  CBE_24 
REMARK   10  A    between atoms: CBD_29  and  NAX_30 
REMARK       I    between atoms: NAX_30  and  CBC_31 
REMARK   11  A    between atoms: CBC_31  and  CBF_33 
ROOT
ATOM      1  CBH 447 d   1      12.238  -0.283   3.994  0.00  0.00     0.104 A 
ATOM      2  CAM 447 d   1      12.731   0.792   4.743  0.00  0.00    -0.019 A 
ATOM      3  CBG 447 d   1      10.878  -0.302   3.626  0.00  0.00     0.102 A 
ATOM      4  CAN 447 d   1      10.024   0.731   4.011  0.00  0.00    -0.032 A 
ATOM      5  C5  447 d   1      10.513   1.809   4.756  0.00  0.00     0.042 A 
ATOM      6  C4  447 d   1      11.871   1.832   5.118  0.00  0.00     0.075 A 
ATOM      7  N3  447 d   1      12.359   2.857   5.835  0.00  0.00    -0.241 NA
ATOM      8  C2  447 d   1      11.526   3.911   6.229  0.00  0.00     0.089 A 
ATOM      9  N1  447 d   1      10.170   3.894   5.863  0.00  0.00    -0.224 NA
ATOM     10  C6  447 d   1       9.676   2.868   5.147  0.00  0.00     0.142 A 
ATOM     11  H16 447 d   1      13.775   0.820   5.032  0.00  0.00     0.091 H 
ATOM     12  H20 447 d   1       8.977   0.698   3.732  0.00  0.00     0.089 H 
ATOM     13  H21 447 d   1      11.924   4.734   6.812  0.00  0.00     0.146 H 
ENDROOT
BRANCH  10  14
ATOM     14  NAY 447 d   1       8.369   2.799   4.781  0.00  0.00    -0.340 N 
ATOM     15  H22 447 d   1       8.056   2.044   4.154  0.00  0.00     0.167 HD
BRANCH  14  16
ATOM     16  CBE 447 d   1       7.469   3.715   5.232  0.00  0.00     0.033 A 
ATOM     17  CAK 447 d   1       6.535   4.252   4.344  0.00  0.00    -0.055 A 
ATOM     18  CAI 447 d   1       5.591   5.188   4.776  0.00  0.00    -0.055 A 
ATOM     19  H23 447 d   1       6.542   3.939   3.306  0.00  0.00     0.087 H 
ATOM     20  CBD 447 d   1       5.549   5.590   6.119  0.00  0.00     0.035 A 
ATOM     21  H24 447 d   1       4.886   5.607   4.067  0.00  0.00     0.087 H 
ATOM     22  CAH 447 d   1       6.483   5.057   7.006  0.00  0.00    -0.055 A 
ATOM     23  CAJ 447 d   1       7.425   4.124   6.569  0.00  0.00    -0.055 A 
ATOM     24  H26 447 d   1       6.478   5.370   8.044  0.00  0.00     0.087 H 
ATOM     25  H25 447 d   1       8.134   3.710   7.277  0.00  0.00     0.087 H 
BRANCH  20  26
ATOM     26  NAX 447 d   1       4.672   6.513   6.584  0.00  0.00    -0.323 N 
ATOM     27  CBC 447 d   1       3.499   6.767   5.955  0.00  0.00     0.256 C 
ATOM     28  OAB 447 d   1       3.105   6.195   4.934  0.00  0.00    -0.267 OA
ATOM     29  H27 447 d   1       4.897   7.021   7.415  0.00  0.00     0.169 HD
BRANCH  27  30
ATOM     30  CBF 447 d   1       2.722   7.763   6.553  0.00  0.00     0.032 A 
ATOM     31  CAF 447 d   1       1.428   8.011   6.090  0.00  0.00    -0.068 A 
ATOM     32  CAD 447 d   1       0.654   9.008   6.678  0.00  0.00    -0.082 A 
ATOM     33  H28 447 d   1       1.025   7.426   5.271  0.00  0.00     0.085 H 
ATOM     34  CAC 447 d   1       1.169   9.765   7.729  0.00  0.00    -0.083 A 
ATOM     35  H29 447 d   1      -0.351   9.196   6.318  0.00  0.00     0.083 H 
ATOM     36  CAE 447 d   1       2.456   9.516   8.197  0.00  0.00    -0.082 A 
ATOM     37  H30 447 d   1       0.568  10.546   8.181  0.00  0.00     0.083 H 
ATOM     38  CAG 447 d   1       3.233   8.524   7.604  0.00  0.00    -0.068 A 
ATOM     39  H31 447 d   1       2.854  10.094   9.023  0.00  0.00     0.083 H 
ATOM     40  H32 447 d   1       4.240   8.342   7.961  0.00  0.00     0.085 H 
ENDBRANCH  27  30
ENDBRANCH  20  26
ENDBRANCH  14  16
ENDBRANCH  10  14
BRANCH   3  41
ATOM     41  OAZ 447 d   1      10.389  -1.370   2.909  0.00  0.00    -0.353 OA
BRANCH  41  42
ATOM     42  CAA 447 d   1      10.984  -1.614   1.632  0.00  0.00     0.010 C 
ATOM     43  H17 447 d   1      10.507  -2.489   1.166  0.00  0.00     0.066 H 
ATOM     44  H18 447 d   1      12.059  -1.808   1.760  0.00  0.00     0.066 H 
ATOM     45  H19 447 d   1      10.844  -0.733   0.988  0.00  0.00     0.066 H 
ENDBRANCH  41  42
ENDBRANCH   3  41
BRANCH   1  46
ATOM     46  OBB 447 d   1      13.006  -1.345   3.583  0.00  0.00    -0.348 OA
BRANCH  46  47
ATOM     47  CAP 447 d   1      14.445  -1.265   3.696  0.00  0.00     0.028 C 
ATOM     48  H14 447 d   1      14.796  -0.315   3.265  0.00  0.00     0.075 H 
ATOM     49  H15 447 d   1      14.734  -1.316   4.756  0.00  0.00     0.075 H 
BRANCH  47  50
ATOM     50  CAO 447 d   1      15.079  -2.442   2.932  0.00  0.00    -0.022 C 
ATOM     51  H12 447 d   1      14.380  -2.804   2.164  0.00  0.00     0.038 H 
ATOM     52  H13 447 d   1      16.012  -2.112   2.452  0.00  0.00     0.038 H 
BRANCH  50  53
ATOM     53  CAS 447 d   1      15.382  -3.572   3.927  0.00  0.00     0.086 C 
ATOM     54  H10 447 d   1      16.184  -3.218   4.591  0.00  0.00     0.076 H 
ATOM     55  H11 447 d   1      14.469  -3.744   4.516  0.00  0.00     0.076 H 
BRANCH  53  56
ATOM     56  NBL 447 d   1      15.808  -4.883   3.380  0.00  0.00    -0.067 N 
ATOM     57  CAT 447 d   1      16.948  -4.825   2.436  0.00  0.00     0.103 C 
ATOM     58  CAQ 447 d   1      17.382  -6.253   2.043  0.00  0.00     0.042 C 
ATOM     59  H1  447 d   1      16.645  -4.275   1.533  0.00  0.00     0.079 H 
ATOM     60  H2  447 d   1      17.792  -4.307   2.915  0.00  0.00     0.079 H 
ATOM     61  OBA 447 d   1      16.596  -7.247   2.791  0.00  0.00    -0.388 OA
ATOM     62  H3  447 d   1      18.449  -6.385   2.274  0.00  0.00     0.076 H 
ATOM     63  H4  447 d   1      17.220  -6.398   0.965  0.00  0.00     0.076 H 
ATOM     64  CAR 447 d   1      15.147  -7.123   2.583  0.00  0.00     0.042 C 
ATOM     65  CAU 447 d   1      14.697  -5.662   2.790  0.00  0.00     0.103 C 
ATOM     66  H5  447 d   1      14.621  -7.769   3.301  0.00  0.00     0.076 H 
ATOM     67  H6  447 d   1      14.900  -7.437   1.558  0.00  0.00     0.076 H 
ATOM     68  H7  447 d   1      13.831  -5.638   3.468  0.00  0.00     0.079 H 
ATOM     69  H8  447 d   1      14.416  -5.224   1.821  0.00  0.00     0.079 H 
ATOM     70  H9  447 d   1      16.133  -5.411   4.175  0.00  0.00     0.280 HD
ENDBRANCH  53  56
ENDBRANCH  50  53
ENDBRANCH  47  50
ENDBRANCH  46  47
ENDBRANCH   1  46
TORSDOF 11
