REMARK  0 active torsions:
REMARK  status: ('A' for Active; 'I' for Inactive)
ROOT
ATOM      1  C1  LZ1 d   1      26.647   4.430  64.263  0.00  0.00     0.088 A 
ATOM      2  C2  LZ1 d   1      27.329   5.650  64.375  0.00  0.00     0.011 A 
ATOM      3  C3  LZ1 d   1      26.864   6.738  63.640  0.00  0.00    -0.069 A 
ATOM      4  C4  LZ1 d   1      25.762   6.612  62.813  0.00  0.00    -0.082 A 
ATOM      5  C5  LZ1 d   1      25.103   5.401  62.706  0.00  0.00    -0.081 A 
ATOM      6  C6  LZ1 d   1      25.545   4.309  63.426  0.00  0.00    -0.053 A 
ATOM      7  N   LZ1 d   1      27.308   3.547  65.078  0.00  0.00    -0.175 NA
ATOM      8  C9  LZ1 d   1      28.384   5.413  65.290  0.00  0.00     0.008 A 
ATOM      9  N2  LZ1 d   1      28.364   4.137  65.698  0.00  0.00    -0.288 N 
ATOM     10  H1  LZ1 d   1      27.371   7.693  63.717  0.00  0.00     0.085 H 
ATOM     11  H2  LZ1 d   1      25.413   7.467  62.246  0.00  0.00     0.083 H 
ATOM     12  H3  LZ1 d   1      24.240   5.309  62.057  0.00  0.00     0.083 H 
ATOM     13  H4  LZ1 d   1      25.032   3.358  63.338  0.00  0.00     0.087 H 
ATOM     14  H5  LZ1 d   1      29.107   6.160  65.615  0.00  0.00     0.115 H 
ATOM     15  H6  LZ1 d   1      29.021   3.690  66.354  0.00  0.00     0.188 HD
ENDROOT
TORSDOF 0
