REMARK  10 active torsions:
REMARK  status: ('A' for Active; 'I' for Inactive)
REMARK    1  A    between atoms: C24_8  and  C23_9 
REMARK    2  A    between atoms: C23_9  and  O22_10 
REMARK    3  A    between atoms: O22_10  and  C20_11 
REMARK    4  A    between atoms: C12_20  and  S11_21 
REMARK    5  A    between atoms: S11_21  and  N_24 
REMARK    6  A    between atoms: N_24  and  CA_25 
REMARK    7  A    between atoms: CA_25  and  C_26 
REMARK    8  A    between atoms: CA_25  and  CB_29 
REMARK    9  A    between atoms: CB_29  and  CG_30 
REMARK   10  A    between atoms: CG_30  and  CD_31 
ROOT
ATOM      1  N31 LKM d   1      -1.590 -11.216 -21.187  0.00  0.00    -0.191 NA
ATOM      2  C30 LKM d   1      -1.495 -12.355 -21.276  0.00  0.00     0.099 C 
ATOM      3  C27 LKM d   1      -1.416 -13.622 -21.469  0.00  0.00     0.047 A 
ATOM      4  C28 LKM d   1      -1.215 -14.550 -20.455  0.00  0.00    -0.062 A 
ATOM      5  C29 LKM d   1      -1.150 -15.909 -20.767  0.00  0.00    -0.070 A 
ATOM      6  C26 LKM d   1      -1.555 -14.070 -22.770  0.00  0.00    -0.025 A 
ATOM      7  C25 LKM d   1      -1.489 -15.420 -23.072  0.00  0.00     0.126 A 
ATOM      8  C24 LKM d   1      -1.290 -16.325 -22.078  0.00  0.00     0.005 A 
ATOM      9  F2  LKM d   1      -1.617 -15.871 -24.324  0.00  0.00    -0.205 F 
ATOM     10  H1  LKM d   1      -1.109 -14.221 -19.428  0.00  0.00     0.085 H 
ATOM     11  H2  LKM d   1      -0.990 -16.638 -19.981  0.00  0.00     0.084 H 
ATOM     12  H3  LKM d   1      -1.718 -13.353 -23.566  0.00  0.00     0.090 H 
ENDROOT
BRANCH   8  13
ATOM     13  C23 LKM d   1      -1.213 -17.763 -22.501  0.00  0.00     0.053 C 
ATOM     14  H4  LKM d   1      -0.450 -17.885 -23.283  0.00  0.00     0.082 H 
ATOM     15  H5  LKM d   1      -2.188 -18.096 -22.885  0.00  0.00     0.082 H 
BRANCH  13  16
ATOM     16  O22 LKM d   1      -0.863 -18.511 -21.367  0.00  0.00    -0.347 OA
BRANCH  16  17
ATOM     17  C20 LKM d   1       0.310 -19.181 -21.153  0.00  0.00     0.070 A 
ATOM     18  C19 LKM d   1       1.315 -19.464 -22.071  0.00  0.00    -0.050 A 
ATOM     19  C18 LKM d   1       2.447 -20.169 -21.645  0.00  0.00    -0.070 A 
ATOM     20  H6  LKM d   1       1.223 -19.143 -23.102  0.00  0.00     0.087 H 
ATOM     21  C16 LKM d   1       2.546 -20.590 -20.325  0.00  0.00    -0.024 A 
ATOM     22  H7  LKM d   1       3.246 -20.386 -22.345  0.00  0.00     0.085 H 
ATOM     23  C15 LKM d   1       1.519 -20.302 -19.460  0.00  0.00    -0.023 A 
ATOM     24  C17 LKM d   1       3.626 -21.303 -19.834  0.00  0.00    -0.050 A 
ATOM     25  C21 LKM d   1       0.430 -19.610 -19.872  0.00  0.00    -0.040 A 
ATOM     26  C14 LKM d   1       1.531 -20.673 -18.143  0.00  0.00    -0.071 A 
ATOM     27  H8  LKM d   1      -0.362 -19.395 -19.163  0.00  0.00     0.089 H 
ATOM     28  C13 LKM d   1       2.595 -21.377 -17.669  0.00  0.00    -0.059 A 
ATOM     29  H10 LKM d   1       0.708 -20.411 -17.489  0.00  0.00     0.084 H 
ATOM     30  C12 LKM d   1       3.639 -21.682 -18.506  0.00  0.00     0.080 A 
ATOM     31  H11 LKM d   1       2.618 -21.696 -16.633  0.00  0.00     0.085 H 
ATOM     32  H9  LKM d   1       4.453 -21.561 -20.485  0.00  0.00     0.087 H 
BRANCH  30  33
ATOM     33  S11 LKM d   1       4.791 -22.528 -17.870  0.00  0.00     0.259 S 
ATOM     34  O33 LKM d   1       5.987 -22.396 -18.683  0.00  0.00    -0.201 OA
ATOM     35  O32 LKM d   1       5.019 -22.195 -16.480  0.00  0.00    -0.201 OA
BRANCH  33  36
ATOM     36  N   LKM d   1       4.267 -23.947 -17.843  0.00  0.00    -0.300 N 
ATOM     37  H12 LKM d   1       4.074 -24.379 -16.962  0.00  0.00     0.173 HD
BRANCH  36  38
ATOM     38  CA  LKM d   1       4.037 -24.701 -19.073  0.00  0.00     0.104 C 
ATOM     39  H13 LKM d   1       3.687 -24.008 -19.852  0.00  0.00     0.090 H 
BRANCH  38  40
ATOM     40  C   LKM d   1       5.289 -25.368 -19.569  0.00  0.00     0.197 C 
ATOM     41  O   LKM d   1       6.063 -25.858 -18.748  0.00  0.00    -0.646 OA
ATOM     42  OXT LKM d   1       5.482 -25.402 -20.790  0.00  0.00    -0.646 OA
ENDBRANCH  38  40
BRANCH  38  43
ATOM     43  CB  LKM d   1       2.937 -25.734 -18.793  0.00  0.00    -0.027 C 
ATOM     44  H14 LKM d   1       2.067 -25.227 -18.351  0.00  0.00     0.037 H 
ATOM     45  H15 LKM d   1       3.318 -26.488 -18.089  0.00  0.00     0.037 H 
BRANCH  43  46
ATOM     46  CG  LKM d   1       2.517 -26.418 -20.078  0.00  0.00     0.018 C 
ATOM     47  H16 LKM d   1       3.363 -27.029 -20.427  0.00  0.00     0.049 H 
ATOM     48  H17 LKM d   1       2.299 -25.636 -20.820  0.00  0.00     0.049 H 
BRANCH  46  49
ATOM     49  CD  LKM d   1       1.307 -27.316 -19.984  0.00  0.00     0.172 C 
ATOM     50  OE1 LKM d   1       0.526 -27.233 -19.036  0.00  0.00    -0.648 OA
ATOM     51  OE2 LKM d   1       1.158 -28.128 -20.902  0.00  0.00    -0.648 OA
ENDBRANCH  46  49
ENDBRANCH  43  46
ENDBRANCH  38  43
ENDBRANCH  36  38
ENDBRANCH  33  36
ENDBRANCH  30  33
ENDBRANCH  16  17
ENDBRANCH  13  16
ENDBRANCH   8  13
TORSDOF 10
