REMARK  10 active torsions:
REMARK  status: ('A' for Active; 'I' for Inactive)
REMARK    1  A    between atoms: C24_8  and  C23_9 
REMARK    2  A    between atoms: C23_9  and  O22_10 
REMARK    3  A    between atoms: O22_10  and  C19_12 
REMARK    4  A    between atoms: C12_20  and  S11_21 
REMARK    5  A    between atoms: S11_21  and  N_24 
REMARK    6  A    between atoms: N_24  and  CA_25 
REMARK    7  A    between atoms: CA_25  and  C_26 
REMARK    8  A    between atoms: CA_25  and  CB_29 
REMARK    9  A    between atoms: CB_29  and  CG_30 
REMARK   10  A    between atoms: CG_30  and  CD_31 
ROOT
ATOM      1  N31 IK4 d   1     -11.397  -1.693  21.535  0.00  0.00    -0.191 NA
ATOM      2  C30 IK4 d   1     -12.522  -1.544  21.594  0.00  0.00     0.099 C 
ATOM      3  C27 IK4 d   1     -13.777  -1.430  21.746  0.00  0.00     0.044 A 
ATOM      4  C28 IK4 d   1     -14.278  -1.299  23.050  0.00  0.00    -0.062 A 
ATOM      5  C29 IK4 d   1     -15.653  -1.155  23.259  0.00  0.00    -0.073 A 
ATOM      6  C26 IK4 d   1     -14.620  -1.438  20.642  0.00  0.00    -0.062 A 
ATOM      7  C25 IK4 d   1     -15.999  -1.307  20.866  0.00  0.00    -0.073 A 
ATOM      8  C24 IK4 d   1     -16.520  -1.155  22.165  0.00  0.00    -0.034 A 
ATOM      9  H1  IK4 d   1     -13.599  -1.309  23.895  0.00  0.00     0.085 H 
ATOM     10  H2  IK4 d   1     -16.043  -1.044  24.264  0.00  0.00     0.084 H 
ATOM     11  H3  IK4 d   1     -14.225  -1.542  19.638  0.00  0.00     0.085 H 
ATOM     12  H4  IK4 d   1     -16.678  -1.323  20.021  0.00  0.00     0.084 H 
ENDROOT
BRANCH   8  13
ATOM     13  C23 IK4 d   1     -18.004  -0.988  22.406  0.00  0.00     0.050 C 
ATOM     14  H5  IK4 d   1     -18.205   0.052  22.704  0.00  0.00     0.082 H 
ATOM     15  H6  IK4 d   1     -18.316  -1.667  23.213  0.00  0.00     0.082 H 
BRANCH  13  16
ATOM     16  O22 IK4 d   1     -18.758  -1.292  21.215  0.00  0.00    -0.347 OA
BRANCH  16  17
ATOM     17  C19 IK4 d   1     -19.012  -0.429  20.154  0.00  0.00     0.070 A 
ATOM     18  C20 IK4 d   1     -18.329  -0.629  18.915  0.00  0.00    -0.050 A 
ATOM     19  C21 IK4 d   1     -18.578   0.214  17.818  0.00  0.00    -0.070 A 
ATOM     20  H7  IK4 d   1     -17.613  -1.437  18.820  0.00  0.00     0.087 H 
ATOM     21  C15 IK4 d   1     -19.546   1.246  17.968  0.00  0.00    -0.026 A 
ATOM     22  H9  IK4 d   1     -18.047   0.081  16.883  0.00  0.00     0.085 H 
ATOM     23  C16 IK4 d   1     -20.250   1.436  19.210  0.00  0.00    -0.022 A 
ATOM     24  C14 IK4 d   1     -19.797   2.082  16.872  0.00  0.00    -0.071 A 
ATOM     25  C18 IK4 d   1     -19.981   0.586  20.305  0.00  0.00    -0.040 A 
ATOM     26  C17 IK4 d   1     -21.190   2.459  19.364  0.00  0.00    -0.050 A 
ATOM     27  H8  IK4 d   1     -20.509   0.711  21.244  0.00  0.00     0.089 H 
ATOM     28  C12 IK4 d   1     -21.444   3.289  18.267  0.00  0.00     0.080 A 
ATOM     29  H10 IK4 d   1     -21.707   2.605  20.306  0.00  0.00     0.087 H 
ATOM     30  C13 IK4 d   1     -20.742   3.101  17.038  0.00  0.00    -0.059 A 
ATOM     31  H12 IK4 d   1     -20.947   3.768  16.208  0.00  0.00     0.085 H 
ATOM     32  H11 IK4 d   1     -19.278   1.945  15.930  0.00  0.00     0.084 H 
BRANCH  28  33
ATOM     33  S11 IK4 d   1     -22.534   4.469  18.327  0.00  0.00     0.259 S 
ATOM     34  O33 IK4 d   1     -22.369   5.340  17.182  0.00  0.00    -0.201 OA
ATOM     35  O32 IK4 d   1     -22.413   5.321  19.476  0.00  0.00    -0.201 OA
BRANCH  33  36
ATOM     36  N   IK4 d   1     -24.044   3.821  18.306  0.00  0.00    -0.300 N 
ATOM     37  H13 IK4 d   1     -24.449   3.470  17.462  0.00  0.00     0.173 HD
BRANCH  36  38
ATOM     38  CA  IK4 d   1     -24.780   3.780  19.594  0.00  0.00     0.104 C 
ATOM     39  H14 IK4 d   1     -24.037   3.557  20.374  0.00  0.00     0.090 H 
BRANCH  38  40
ATOM     40  C   IK4 d   1     -25.426   5.104  20.010  0.00  0.00     0.197 C 
ATOM     41  O   IK4 d   1     -25.580   5.382  21.204  0.00  0.00    -0.646 OA
ATOM     42  OXT IK4 d   1     -25.825   5.955  19.192  0.00  0.00    -0.646 OA
ENDBRANCH  38  40
BRANCH  38  43
ATOM     43  CB  IK4 d   1     -25.753   2.596  19.558  0.00  0.00    -0.027 C 
ATOM     44  H15 IK4 d   1     -25.188   1.685  19.803  0.00  0.00     0.037 H 
ATOM     45  H16 IK4 d   1     -26.153   2.516  18.536  0.00  0.00     0.037 H 
BRANCH  43  46
ATOM     46  CG  IK4 d   1     -26.931   2.690  20.517  0.00  0.00     0.018 C 
ATOM     47  H17 IK4 d   1     -27.614   3.483  20.177  0.00  0.00     0.049 H 
ATOM     48  H18 IK4 d   1     -26.561   2.932  21.524  0.00  0.00     0.049 H 
BRANCH  46  49
ATOM     49  CD  IK4 d   1     -27.677   1.373  20.561  0.00  0.00     0.172 C 
ATOM     50  OE1 IK4 d   1     -28.488   1.234  21.515  0.00  0.00    -0.648 OA
ATOM     51  OE2 IK4 d   1     -27.531   0.495  19.652  0.00  0.00    -0.648 OA
ENDBRANCH  46  49
ENDBRANCH  43  46
ENDBRANCH  38  43
ENDBRANCH  36  38
ENDBRANCH  33  36
ENDBRANCH  28  33
ENDBRANCH  16  17
ENDBRANCH  13  16
ENDBRANCH   8  13
TORSDOF 10
