REMARK  4 active torsions:
REMARK  status: ('A' for Active; 'I' for Inactive)
REMARK       I    between atoms: N1_1  and  C2_2 
REMARK    1  A    between atoms: C8_21  and  N1_1 
REMARK    2  A    between atoms: C2_2  and  C3_3 
REMARK    3  A    between atoms: C22_14  and  S27_17 
REMARK    4  A    between atoms: S27_17  and  N30_20 
ROOT
ATOM      1  N1  LZ3 d   1      29.365   6.344  64.889  0.00  0.00    -0.322 N 
ATOM      2  C2  LZ3 d   1      28.176   6.426  64.301  0.00  0.00     0.275 C 
ATOM      3  O11 LZ3 d   1      27.709   7.498  63.886  0.00  0.00    -0.266 OA
ATOM      4  H1  LZ3 d   1      29.593   5.521  65.409  0.00  0.00     0.169 HD
ENDROOT
BRANCH   1   5
ATOM      5  C8  LZ3 d   1      30.309   7.376  64.802  0.00  0.00     0.035 A 
ATOM      6  C20 LZ3 d   1      30.433   8.104  63.619  0.00  0.00    -0.056 A 
ATOM      7  C21 LZ3 d   1      31.359   9.117  63.523  0.00  0.00    -0.058 A 
ATOM      8  H7  LZ3 d   1      29.798   7.871  62.772  0.00  0.00     0.087 H 
ATOM      9  C22 LZ3 d   1      32.155   9.429  64.611  0.00  0.00     0.079 A 
ATOM     10  H8  LZ3 d   1      31.465   9.670  62.597  0.00  0.00     0.086 H 
ATOM     11  C23 LZ3 d   1      32.030   8.720  65.793  0.00  0.00    -0.058 A 
ATOM     12  C24 LZ3 d   1      31.103   7.697  65.885  0.00  0.00    -0.056 A 
ATOM     13  H9  LZ3 d   1      32.656   8.965  66.643  0.00  0.00     0.086 H 
ATOM     14  H10 LZ3 d   1      31.000   7.145  66.812  0.00  0.00     0.087 H 
BRANCH   9  15
ATOM     15  S27 LZ3 d   1      33.363  10.696  64.465  0.00  0.00     0.256 S 
ATOM     16  O28 LZ3 d   1      34.326  10.229  63.523  0.00  0.00    -0.201 OA
ATOM     17  O29 LZ3 d   1      33.805  11.033  65.797  0.00  0.00    -0.201 OA
BRANCH  15  18
ATOM     18  N30 LZ3 d   1      32.666  12.004  63.845  0.00  0.00    -0.324 N 
ATOM     19  H11 LZ3 d   1      33.205  12.832  63.689  0.00  0.00     0.169 HD
ATOM     20  H12 LZ3 d   1      31.693  11.991  63.615  0.00  0.00     0.169 HD
ENDBRANCH  15  18
ENDBRANCH   9  15
ENDBRANCH   1   5
BRANCH   2  21
ATOM     21  C3  LZ3 d   1      27.470   5.158  64.107  0.00  0.00     0.130 A 
ATOM     22  C9  LZ3 d   1      26.369   4.886  63.302  0.00  0.00     0.028 A 
ATOM     23  C4  LZ3 d   1      25.555   5.648  62.467  0.00  0.00    -0.068 A 
ATOM     24  C16 LZ3 d   1      26.145   3.513  63.415  0.00  0.00     0.089 A 
ATOM     25  C5  LZ3 d   1      24.501   5.054  61.795  0.00  0.00    -0.082 A 
ATOM     26  H2  LZ3 d   1      25.747   6.708  62.343  0.00  0.00     0.085 H 
ATOM     27  C6  LZ3 d   1      24.270   3.694  61.927  0.00  0.00    -0.081 A 
ATOM     28  H3  LZ3 d   1      23.855   5.654  61.164  0.00  0.00     0.083 H 
ATOM     29  C7  LZ3 d   1      25.095   2.924  62.725  0.00  0.00    -0.053 A 
ATOM     30  H4  LZ3 d   1      23.440   3.233  61.403  0.00  0.00     0.083 H 
ATOM     31  H5  LZ3 d   1      24.921   1.857  62.812  0.00  0.00     0.087 H 
ATOM     32  N17 LZ3 d   1      27.108   3.046  64.268  0.00  0.00    -0.174 NA
ATOM     33  N12 LZ3 d   1      27.926   4.041  64.689  0.00  0.00    -0.271 N 
ATOM     34  H6  LZ3 d   1      28.732   3.956  65.325  0.00  0.00     0.189 HD
ENDBRANCH   2  21
TORSDOF 4
