REMARK  2 active torsions:
REMARK  status: ('A' for Active; 'I' for Inactive)
REMARK       I    between atoms: C2_2  and  N3_3 
REMARK    1  A    between atoms: C2_2  and  C10_10 
REMARK    2  A    between atoms: N3_3  and  C4_4 
ROOT
ATOM      1  O1  LZ5 d   1      27.971   7.438  64.276  0.00  0.00    -0.266 OA
ATOM      2  C2  LZ5 d   1      28.424   6.468  64.811  0.00  0.00     0.274 C 
ATOM      3  N3  LZ5 d   1      29.583   6.487  65.496  0.00  0.00    -0.322 N 
ATOM      4  H1  LZ5 d   1      29.805   5.669  66.027  0.00  0.00     0.169 HD
ENDROOT
BRANCH   3   5
ATOM      5  C4  LZ5 d   1      30.508   7.537  65.540  0.00  0.00     0.035 A 
ATOM      6  C5  LZ5 d   1      30.772   8.296  64.399  0.00  0.00    -0.057 A 
ATOM      7  C6  LZ5 d   1      31.683   9.333  64.449  0.00  0.00    -0.081 A 
ATOM      8  H2  LZ5 d   1      30.260   8.071  63.470  0.00  0.00     0.086 H 
ATOM      9  C7  LZ5 d   1      32.342   9.616  65.630  0.00  0.00    -0.083 A 
ATOM     10  H3  LZ5 d   1      31.881   9.924  63.562  0.00  0.00     0.083 H 
ATOM     11  C8  LZ5 d   1      32.088   8.869  66.763  0.00  0.00    -0.081 A 
ATOM     12  H4  LZ5 d   1      33.060  10.427  65.667  0.00  0.00     0.083 H 
ATOM     13  C9  LZ5 d   1      31.183   7.831  66.721  0.00  0.00    -0.057 A 
ATOM     14  H5  LZ5 d   1      32.602   9.100  67.689  0.00  0.00     0.083 H 
ATOM     15  H6  LZ5 d   1      30.996   7.241  67.611  0.00  0.00     0.086 H 
ENDBRANCH   3   5
BRANCH   2  16
ATOM     16  C10 LZ5 d   1      27.753   5.167  64.705  0.00  0.00     0.119 A 
ATOM     17  C11 LZ5 d   1      26.606   4.870  63.980  0.00  0.00    -0.032 A 
ATOM     18  C12 LZ5 d   1      26.396   3.552  64.178  0.00  0.00     0.024 A 
ATOM     19  H7  LZ5 d   1      26.006   5.553  63.381  0.00  0.00     0.089 H 
ATOM     20  N13 LZ5 d   1      27.388   3.113  64.972  0.00  0.00    -0.187 NA
ATOM     21  H8  LZ5 d   1      25.579   2.957  63.772  0.00  0.00     0.117 H 
ATOM     22  N15 LZ5 d   1      28.246   4.111  65.297  0.00  0.00    -0.273 N 
ATOM     23  H9  LZ5 d   1      29.094   4.051  65.879  0.00  0.00     0.189 HD
ENDBRANCH   2  16
TORSDOF 2
