REMARK  0 active torsions:
REMARK  status: ('A' for Active; 'I' for Inactive)
ROOT
ATOM      1  N1  LZM d   1      24.304   4.329  62.849  0.00  0.00    -0.191 NA
ATOM      2  C2  LZM d   1      25.245   4.353  63.493  0.00  0.00     0.105 C 
ATOM      3  C3  LZM d   1      26.416   4.381  64.297  0.00  0.00     0.111 A 
ATOM      4  C4  LZM d   1      26.987   3.314  64.937  0.00  0.00     0.046 A 
ATOM      5  N5  LZM d   1      28.074   3.669  65.615  0.00  0.00    -0.177 NA
ATOM      6  N6  LZM d   1      28.191   5.003  65.401  0.00  0.00    -0.226 N 
ATOM      7  C7  LZM d   1      29.143   5.821  65.859  0.00  0.00     0.007 A 
ATOM      8  C8  LZM d   1      29.098   7.153  65.525  0.00  0.00    -0.049 A 
ATOM      9  C9  LZM d   1      28.076   7.610  64.719  0.00  0.00     0.006 A 
ATOM     10  N10 LZM d   1      27.124   6.801  64.240  0.00  0.00    -0.240 NA
ATOM     11  C11 LZM d   1      27.195   5.502  64.592  0.00  0.00     0.172 A 
ATOM     12  H1  LZM d   1      26.598   2.298  64.896  0.00  0.00     0.120 H 
ATOM     13  H2  LZM d   1      29.944   5.437  66.489  0.00  0.00     0.115 H 
ATOM     14  H3  LZM d   1      29.860   7.839  65.892  0.00  0.00     0.087 H 
ATOM     15  H4  LZM d   1      28.043   8.668  64.463  0.00  0.00     0.114 H 
ENDROOT
TORSDOF 0
