REMARK  4 active torsions:
REMARK  status: ('A' for Active; 'I' for Inactive)
REMARK    1  A    between atoms: C5_5  and  N6_6 
REMARK       I    between atoms: N6_6  and  C7_7 
REMARK    2  A    between atoms: C7_7  and  C9_9 
REMARK    3  A    between atoms: C13_13  and  N14_14 
REMARK       I    between atoms: N14_14  and  C15_15 
REMARK    4  A    between atoms: C15_15  and  C17_17 
ROOT
ATOM      1  C9  LZ8 d   1      28.192   5.168  64.994  0.00  0.00     0.146 A 
ATOM      2  N10 LZ8 d   1      28.515   4.106  65.723  0.00  0.00    -0.271 N 
ATOM      3  N11 LZ8 d   1      27.606   3.149  65.401  0.00  0.00    -0.184 NA
ATOM      4  C12 LZ8 d   1      26.724   3.579  64.504  0.00  0.00     0.050 A 
ATOM      5  C13 LZ8 d   1      27.063   4.888  64.207  0.00  0.00     0.088 A 
ATOM      6  H4  LZ8 d   1      29.293   4.025  66.393  0.00  0.00     0.189 HD
ATOM      7  H5  LZ8 d   1      25.895   3.011  64.084  0.00  0.00     0.121 H 
ENDROOT
BRANCH   1   8
ATOM      8  C7  LZ8 d   1      28.989   6.412  65.092  0.00  0.00     0.276 C 
ATOM      9  N6  LZ8 d   1      30.113   6.345  65.815  0.00  0.00    -0.322 N 
ATOM     10  H3  LZ8 d   1      30.334   5.478  66.261  0.00  0.00     0.169 HD
ATOM     11  O8  LZ8 d   1      28.632   7.448  64.532  0.00  0.00    -0.266 OA
BRANCH   9  12
ATOM     12  C5  LZ8 d   1      31.003   7.423  65.986  0.00  0.00     0.035 A 
ATOM     13  C4  LZ8 d   1      31.390   8.202  64.889  0.00  0.00    -0.054 A 
ATOM     14  C3  LZ8 d   1      32.258   9.266  65.064  0.00  0.00    -0.044 A 
ATOM     15  H2  LZ8 d   1      31.009   7.971  63.901  0.00  0.00     0.087 H 
ATOM     16  C2  LZ8 d   1      32.722   9.552  66.334  0.00  0.00     0.116 A 
ATOM     17  H1  LZ8 d   1      32.569   9.866  64.217  0.00  0.00     0.088 H 
ATOM     18  F1  LZ8 d   1      33.577  10.578  66.507  0.00  0.00    -0.206 F 
ATOM     19  C26 LZ8 d   1      32.344   8.807  67.432  0.00  0.00    -0.044 A 
ATOM     20  C25 LZ8 d   1      31.486   7.739  67.258  0.00  0.00    -0.054 A 
ATOM     21  H13 LZ8 d   1      32.716   9.057  68.419  0.00  0.00     0.088 H 
ATOM     22  H12 LZ8 d   1      31.186   7.143  68.112  0.00  0.00     0.087 H 
ENDBRANCH   9  12
ENDBRANCH   1   8
BRANCH   5  23
ATOM     23  N14 LZ8 d   1      26.468   5.783  63.336  0.00  0.00    -0.320 N 
ATOM     24  C15 LZ8 d   1      25.343   5.583  62.612  0.00  0.00     0.256 C 
ATOM     25  O16 LZ8 d   1      24.690   4.540  62.663  0.00  0.00    -0.267 OA
ATOM     26  H6  LZ8 d   1      26.916   6.671  63.231  0.00  0.00     0.169 HD
BRANCH  24  27
ATOM     27  C17 LZ8 d   1      24.921   6.724  61.742  0.00  0.00     0.032 A 
ATOM     28  C18 LZ8 d   1      23.584   7.094  61.665  0.00  0.00    -0.068 A 
ATOM     29  C20 LZ8 d   1      23.199   8.159  60.871  0.00  0.00    -0.082 A 
ATOM     30  H7  LZ8 d   1      22.839   6.545  62.230  0.00  0.00     0.085 H 
ATOM     31  C21 LZ8 d   1      24.143   8.861  60.147  0.00  0.00    -0.083 A 
ATOM     32  H8  LZ8 d   1      22.154   8.443  60.817  0.00  0.00     0.083 H 
ATOM     33  C22 LZ8 d   1      25.475   8.504  60.219  0.00  0.00    -0.082 A 
ATOM     34  H9  LZ8 d   1      23.838   9.693  59.522  0.00  0.00     0.083 H 
ATOM     35  C23 LZ8 d   1      25.865   7.441  61.013  0.00  0.00    -0.068 A 
ATOM     36  H10 LZ8 d   1      26.215   9.057  59.653  0.00  0.00     0.083 H 
ATOM     37  H11 LZ8 d   1      26.912   7.165  61.068  0.00  0.00     0.085 H 
ENDBRANCH  24  27
ENDBRANCH   5  23
TORSDOF 4
