REMARK  4 active torsions:
REMARK  status: ('A' for Active; 'I' for Inactive)
REMARK    1  A    between atoms: C5_5  and  N6_6 
REMARK       I    between atoms: N6_6  and  C7_7 
REMARK    2  A    between atoms: C7_7  and  C9_9 
REMARK    3  A    between atoms: C13_13  and  N14_14 
REMARK       I    between atoms: N14_14  and  C15_15 
REMARK    4  A    between atoms: C15_15  and  C17_17 
ROOT
ATOM      1  C9  LZ9 d   1      27.936   4.963  64.709  0.00  0.00     0.146 A 
ATOM      2  N10 LZ9 d   1      28.245   3.876  65.368  0.00  0.00    -0.271 N 
ATOM      3  N11 LZ9 d   1      27.367   2.937  64.934  0.00  0.00    -0.184 NA
ATOM      4  C12 LZ9 d   1      26.529   3.412  64.037  0.00  0.00     0.050 A 
ATOM      5  C13 LZ9 d   1      26.861   4.717  63.850  0.00  0.00     0.088 A 
ATOM      6  H4  LZ9 d   1      28.993   3.758  66.066  0.00  0.00     0.189 HD
ATOM      7  H5  LZ9 d   1      25.727   2.867  63.542  0.00  0.00     0.121 H 
ENDROOT
BRANCH   1   8
ATOM      8  C7  LZ9 d   1      28.657   6.239  64.854  0.00  0.00     0.276 C 
ATOM      9  N6  LZ9 d   1      29.915   6.184  65.346  0.00  0.00    -0.322 N 
ATOM     10  H3  LZ9 d   1      30.259   5.298  65.659  0.00  0.00     0.169 HD
ATOM     11  O8  LZ9 d   1      28.146   7.284  64.476  0.00  0.00    -0.266 OA
BRANCH   9  12
ATOM     12  C5  LZ9 d   1      30.780   7.310  65.446  0.00  0.00     0.035 A 
ATOM     13  C4  LZ9 d   1      31.235   7.741  66.701  0.00  0.00    -0.054 A 
ATOM     14  C3  LZ9 d   1      32.054   8.844  66.802  0.00  0.00    -0.044 A 
ATOM     15  H2  LZ9 d   1      30.941   7.204  67.595  0.00  0.00     0.087 H 
ATOM     16  C2  LZ9 d   1      32.426   9.513  65.650  0.00  0.00     0.116 A 
ATOM     17  H1  LZ9 d   1      32.402   9.183  67.771  0.00  0.00     0.088 H 
ATOM     18  F1  LZ9 d   1      33.234  10.583  65.754  0.00  0.00    -0.206 F 
ATOM     19  C26 LZ9 d   1      31.990   9.116  64.397  0.00  0.00    -0.044 A 
ATOM     20  C25 LZ9 d   1      31.159   8.016  64.293  0.00  0.00    -0.054 A 
ATOM     21  H11 LZ9 d   1      32.296   9.660  63.511  0.00  0.00     0.088 H 
ATOM     22  H10 LZ9 d   1      30.800   7.698  63.321  0.00  0.00     0.087 H 
ENDBRANCH   9  12
ENDBRANCH   1   8
BRANCH   5  23
ATOM     23  N14 LZ9 d   1      26.323   5.665  62.998  0.00  0.00    -0.319 N 
ATOM     24  C15 LZ9 d   1      25.359   5.444  62.091  0.00  0.00     0.262 C 
ATOM     25  O16 LZ9 d   1      24.816   4.335  61.968  0.00  0.00    -0.267 OA
ATOM     26  H6  LZ9 d   1      26.684   6.595  63.064  0.00  0.00     0.169 HD
BRANCH  24  27
ATOM     27  C17 LZ9 d   1      24.934   6.642  61.276  0.00  0.00     0.109 A 
ATOM     28  C18 LZ9 d   1      23.662   7.214  61.428  0.00  0.00     0.135 A 
ATOM     29  F19 LZ9 d   1      22.803   6.641  62.294  0.00  0.00    -0.205 F 
ATOM     30  C20 LZ9 d   1      23.273   8.350  60.709  0.00  0.00    -0.044 A 
ATOM     31  C21 LZ9 d   1      24.167   8.945  59.820  0.00  0.00    -0.077 A 
ATOM     32  H7  LZ9 d   1      22.281   8.765  60.843  0.00  0.00     0.088 H 
ATOM     33  C22 LZ9 d   1      25.439   8.403  59.646  0.00  0.00    -0.044 A 
ATOM     34  H8  LZ9 d   1      23.873   9.828  59.265  0.00  0.00     0.083 H 
ATOM     35  C23 LZ9 d   1      25.814   7.276  60.375  0.00  0.00     0.135 A 
ATOM     36  H9  LZ9 d   1      26.133   8.856  58.947  0.00  0.00     0.088 H 
ATOM     37  F24 LZ9 d   1      27.049   6.775  60.219  0.00  0.00    -0.205 F 
ENDBRANCH  24  27
ENDBRANCH   5  23
TORSDOF 4
