REMARK  4 active torsions:
REMARK  status: ('A' for Active; 'I' for Inactive)
REMARK    1  A    between atoms: C5_3  and  N6_4 
REMARK       I    between atoms: N6_4  and  C7_5 
REMARK    2  A    between atoms: C7_5  and  C9_7 
REMARK    3  A    between atoms: C13_11  and  N14_12 
REMARK       I    between atoms: N14_12  and  C15_13 
REMARK    4  A    between atoms: C15_13  and  C17_15 
ROOT
ATOM      1  C9  LZA d   1      27.903   5.315  64.752  0.00  0.00     0.146 A 
ATOM      2  N10 LZA d   1      28.271   4.227  65.454  0.00  0.00    -0.271 N 
ATOM      3  N11 LZA d   1      27.423   3.245  65.073  0.00  0.00    -0.184 NA
ATOM      4  C12 LZA d   1      26.532   3.694  64.161  0.00  0.00     0.050 A 
ATOM      5  C13 LZA d   1      26.813   5.011  63.935  0.00  0.00     0.088 A 
ATOM      6  H7  LZA d   1      29.038   4.157  66.138  0.00  0.00     0.189 HD
ATOM      7  H8  LZA d   1      25.738   3.114  63.694  0.00  0.00     0.121 H 
ENDROOT
BRANCH   1   8
ATOM      8  C7  LZA d   1      28.588   6.634  64.853  0.00  0.00     0.272 C 
ATOM      9  N6  LZA d   1      29.766   6.674  65.497  0.00  0.00    -0.351 N 
ATOM     10  H6  LZA d   1      30.136   5.837  65.899  0.00  0.00     0.163 HD
ATOM     11  O8  LZA d   1      28.086   7.638  64.364  0.00  0.00    -0.266 OA
BRANCH   9  12
ATOM     12  C5  LZA d   1      30.515   7.924  65.619  0.00  0.00     0.015 C 
ATOM     13  C25 LZA d   1      31.101   8.086  67.023  0.00  0.00    -0.024 C 
ATOM     14  C26 LZA d   1      31.856   9.409  67.127  0.00  0.00     0.083 C 
ATOM     15  H3  LZA d   1      30.286   8.073  67.761  0.00  0.00     0.038 H 
ATOM     16  H4  LZA d   1      31.793   7.255  67.227  0.00  0.00     0.038 H 
ATOM     17  N24 LZA d   1      32.958   9.451  66.122  0.00  0.00    -0.075 N 
ATOM     18  H1  LZA d   1      32.281   9.507  68.137  0.00  0.00     0.075 H 
ATOM     19  H2  LZA d   1      31.161  10.240  66.939  0.00  0.00     0.075 H 
ATOM     20  C3  LZA d   1      32.438   9.322  64.731  0.00  0.00     0.083 C 
ATOM     21  H15 LZA d   1      33.596   8.692  66.304  0.00  0.00     0.277 HD
ATOM     22  H16 LZA d   1      33.446  10.329  66.209  0.00  0.00     0.277 HD
ATOM     23  C4  LZA d   1      31.626   8.024  64.565  0.00  0.00    -0.024 C 
ATOM     24  H17 LZA d   1      31.791  10.183  64.507  0.00  0.00     0.075 H 
ATOM     25  H18 LZA d   1      33.285   9.309  64.030  0.00  0.00     0.075 H 
ATOM     26  H13 LZA d   1      31.172   8.011  63.563  0.00  0.00     0.038 H 
ATOM     27  H14 LZA d   1      32.301   7.162  64.673  0.00  0.00     0.038 H 
ATOM     28  H5  LZA d   1      29.812   8.752  65.448  0.00  0.00     0.072 H 
ENDBRANCH   9  12
ENDBRANCH   1   8
BRANCH   5  29
ATOM     29  N14 LZA d   1      26.212   5.915  63.075  0.00  0.00    -0.319 N 
ATOM     30  C15 LZA d   1      25.266   5.624  62.168  0.00  0.00     0.262 C 
ATOM     31  O16 LZA d   1      24.764   4.481  62.041  0.00  0.00    -0.267 OA
ATOM     32  H9  LZA d   1      26.509   6.868  63.135  0.00  0.00     0.169 HD
BRANCH  30  33
ATOM     33  C17 LZA d   1      24.860   6.766  61.285  0.00  0.00     0.109 A 
ATOM     34  C18 LZA d   1      25.784   7.377  60.432  0.00  0.00     0.135 A 
ATOM     35  F19 LZA d   1      27.047   6.911  60.425  0.00  0.00    -0.205 F 
ATOM     36  C20 LZA d   1      25.433   8.448  59.618  0.00  0.00    -0.044 A 
ATOM     37  C21 LZA d   1      24.132   8.919  59.635  0.00  0.00    -0.077 A 
ATOM     38  H10 LZA d   1      26.173   8.911  58.975  0.00  0.00     0.088 H 
ATOM     39  C22 LZA d   1      23.191   8.325  60.471  0.00  0.00    -0.044 A 
ATOM     40  H11 LZA d   1      23.846   9.749  58.999  0.00  0.00     0.083 H 
ATOM     41  C23 LZA d   1      23.569   7.263  61.293  0.00  0.00     0.135 A 
ATOM     42  H12 LZA d   1      22.169   8.686  60.483  0.00  0.00     0.088 H 
ATOM     43  F24 LZA d   1      22.658   6.678  62.095  0.00  0.00    -0.205 F 
ENDBRANCH  30  33
ENDBRANCH   5  29
TORSDOF 4
