REMARK  4 active torsions:
REMARK  status: ('A' for Active; 'I' for Inactive)
REMARK    1  A    between atoms: C1_1  and  C2_2 
REMARK    2  A    between atoms: C2_2  and  C3_3 
REMARK    3  A    between atoms: C2_2  and  N4_4 
REMARK    4  A    between atoms: N4_4  and  C5_5 
ROOT
ATOM      1  C5  LZB d   1      28.700   6.859  64.342  0.00  0.00     0.130 A 
ATOM      2  C6  LZB d   1      28.233   7.980  63.661  0.00  0.00     0.000 A 
ATOM      3  C7  LZB d   1      27.130   7.816  62.828  0.00  0.00     0.132 A 
ATOM      4 CL8  LZB d   1      26.496   9.170  61.961  0.00  0.00    -0.062 Cl
ATOM      5  N9  LZB d   1      26.494   6.661  62.622  0.00  0.00    -0.215 NA
ATOM      6  C10 LZB d   1      26.935   5.587  63.294  0.00  0.00     0.176 A 
ATOM      7  C11 LZB d   1      26.498   4.282  63.323  0.00  0.00     0.111 A 
ATOM      8  C12 LZB d   1      25.396   3.775  62.582  0.00  0.00     0.105 C 
ATOM      9  N13 LZB d   1      24.515   3.368  61.980  0.00  0.00    -0.191 NA
ATOM     10  C14 LZB d   1      27.363   3.599  64.165  0.00  0.00     0.046 A 
ATOM     11  N15 LZB d   1      28.316   4.439  64.677  0.00  0.00    -0.175 NA
ATOM     12  N16 LZB d   1      28.015   5.663  64.149  0.00  0.00    -0.198 N 
ATOM     13  H9  LZB d   1      28.713   8.950  63.776  0.00  0.00     0.094 H 
ATOM     14  H10 LZB d   1      27.294   2.536  64.389  0.00  0.00     0.120 H 
ENDROOT
BRANCH   1  15
ATOM     15  N4  LZB d   1      29.822   6.922  65.187  0.00  0.00    -0.371 N 
ATOM     16  H8  LZB d   1      30.072   6.099  65.753  0.00  0.00     0.161 HD
BRANCH  15  17
ATOM     17  C2  LZB d   1      30.641   8.128  65.280  0.00  0.00     0.004 C 
ATOM     18  H4  LZB d   1      29.972   8.998  65.362  0.00  0.00     0.071 H 
BRANCH  17  19
ATOM     19  C1  LZB d   1      31.508   8.080  66.528  0.00  0.00    -0.058 C 
ATOM     20  H1  LZB d   1      32.119   8.993  66.585  0.00  0.00     0.030 H 
ATOM     21  H2  LZB d   1      32.167   7.200  66.483  0.00  0.00     0.030 H 
ATOM     22  H3  LZB d   1      30.866   8.012  67.418  0.00  0.00     0.030 H 
ENDBRANCH  17  19
BRANCH  17  23
ATOM     23  C3  LZB d   1      31.475   8.289  64.012  0.00  0.00    -0.058 C 
ATOM     24  H5  LZB d   1      30.809   8.319  63.137  0.00  0.00     0.030 H 
ATOM     25  H6  LZB d   1      32.167   7.439  63.918  0.00  0.00     0.030 H 
ATOM     26  H7  LZB d   1      32.050   9.225  64.068  0.00  0.00     0.030 H 
ENDBRANCH  17  23
ENDBRANCH  15  17
ENDBRANCH   1  15
TORSDOF 4
