REMARK  7 active torsions:
REMARK  status: ('A' for Active; 'I' for Inactive)
REMARK    1  A    between atoms: C1_1  and  C2_2 
REMARK    2  A    between atoms: C2_2  and  C3_3 
REMARK    3  A    between atoms: C2_2  and  N4_4 
REMARK    4  A    between atoms: N4_4  and  C5_5 
REMARK    5  A    between atoms: C7_7  and  N8_8 
REMARK    6  A    between atoms: N8_8  and  C9_9 
REMARK    7  A    between atoms: C12_12  and  N13_13 
ROOT
ATOM      1  C5  LZC d   1      28.956   7.059  65.207  0.00  0.00     0.131 A 
ATOM      2  C6  LZC d   1      28.519   8.204  64.556  0.00  0.00     0.005 A 
ATOM      3  C7  LZC d   1      27.409   8.109  63.726  0.00  0.00     0.129 A 
ATOM      4  N16 LZC d   1      26.724   6.959  63.552  0.00  0.00    -0.210 NA
ATOM      5  C17 LZC d   1      27.159   5.864  64.177  0.00  0.00     0.177 A 
ATOM      6  C18 LZC d   1      26.731   4.564  64.172  0.00  0.00     0.111 A 
ATOM      7  C19 LZC d   1      25.612   4.078  63.454  0.00  0.00     0.105 C 
ATOM      8  N20 LZC d   1      24.704   3.687  62.863  0.00  0.00    -0.191 NA
ATOM      9  C21 LZC d   1      27.581   3.863  65.032  0.00  0.00     0.046 A 
ATOM     10  N22 LZC d   1      28.505   4.676  65.563  0.00  0.00    -0.175 NA
ATOM     11  N23 LZC d   1      28.241   5.904  65.012  0.00  0.00    -0.198 N 
ATOM     12  H9  LZC d   1      29.034   9.154  64.692  0.00  0.00     0.095 H 
ATOM     13  H24 LZC d   1      27.503   2.797  65.243  0.00  0.00     0.120 H 
ENDROOT
BRANCH   3  14
ATOM     14  N8  LZC d   1      26.910   9.187  63.036  0.00  0.00    -0.370 N 
ATOM     15  H10 LZC d   1      27.244  10.128  63.288  0.00  0.00     0.161 HD
BRANCH  14  16
ATOM     16  C9  LZC d   1      25.933   9.063  61.968  0.00  0.00     0.011 C 
ATOM     17  C10 LZC d   1      25.409  10.449  61.590  0.00  0.00    -0.044 C 
ATOM     18  C11 LZC d   1      24.452  10.392  60.419  0.00  0.00    -0.037 C 
ATOM     19  H12 LZC d   1      26.262  11.090  61.321  0.00  0.00     0.036 H 
ATOM     20  H13 LZC d   1      24.885  10.879  62.456  0.00  0.00     0.036 H 
ATOM     21  C12 LZC d   1      25.166   9.809  59.220  0.00  0.00     0.100 C 
ATOM     22  H14 LZC d   1      24.102  11.407  60.181  0.00  0.00     0.036 H 
ATOM     23  H15 LZC d   1      23.591   9.758  60.678  0.00  0.00     0.036 H 
ATOM     24  C14 LZC d   1      25.662   8.389  59.512  0.00  0.00    -0.037 C 
ATOM     25  H16 LZC d   1      26.039  10.439  58.995  0.00  0.00     0.083 H 
ATOM     26  C15 LZC d   1      26.555   8.346  60.754  0.00  0.00    -0.044 C 
ATOM     27  H20 LZC d   1      26.237   8.027  58.647  0.00  0.00     0.036 H 
ATOM     28  H21 LZC d   1      24.793   7.734  59.675  0.00  0.00     0.036 H 
ATOM     29  H22 LZC d   1      26.733   7.294  61.022  0.00  0.00     0.036 H 
ATOM     30  H23 LZC d   1      27.513   8.830  60.514  0.00  0.00     0.036 H 
ATOM     31  H11 LZC d   1      25.089   8.459  62.331  0.00  0.00     0.072 H 
BRANCH  21  32
ATOM     32  N13 LZC d   1      24.251   9.818  58.028  0.00  0.00    -0.075 N 
ATOM     33  H17 LZC d   1      24.732   9.428  57.232  0.00  0.00     0.274 HD
ATOM     34  H18 LZC d   1      23.975  10.766  57.823  0.00  0.00     0.274 HD
ATOM     35  H19 LZC d   1      23.432   9.266  58.229  0.00  0.00     0.274 HD
ENDBRANCH  21  32
ENDBRANCH  14  16
ENDBRANCH   3  14
BRANCH   1  36
ATOM     36  N4  LZC d   1      30.056   7.005  66.051  0.00  0.00    -0.371 N 
ATOM     37  H8  LZC d   1      30.202   6.160  66.621  0.00  0.00     0.161 HD
BRANCH  36  38
ATOM     38  C2  LZC d   1      31.010   8.097  66.160  0.00  0.00     0.004 C 
ATOM     39  H4  LZC d   1      30.462   9.049  66.103  0.00  0.00     0.071 H 
BRANCH  38  40
ATOM     40  C1  LZC d   1      31.724   8.041  67.511  0.00  0.00    -0.058 C 
ATOM     41  H1  LZC d   1      32.442   8.871  67.581  0.00  0.00     0.030 H 
ATOM     42  H2  LZC d   1      32.259   7.085  67.603  0.00  0.00     0.030 H 
ATOM     43  H3  LZC d   1      30.984   8.127  68.321  0.00  0.00     0.030 H 
ENDBRANCH  38  40
BRANCH  38  44
ATOM     44  C3  LZC d   1      31.989   8.038  64.987  0.00  0.00    -0.058 C 
ATOM     45  H5  LZC d   1      31.430   8.081  64.040  0.00  0.00     0.030 H 
ATOM     46  H6  LZC d   1      32.560   7.099  65.033  0.00  0.00     0.030 H 
ATOM     47  H7  LZC d   1      32.681   8.891  65.043  0.00  0.00     0.030 H 
ENDBRANCH  38  44
ENDBRANCH  36  38
ENDBRANCH   1  36
TORSDOF 7
