REMARK  4 active torsions:
REMARK  status: ('A' for Active; 'I' for Inactive)
REMARK    1  A    between atoms: C5_4  and  N6_5 
REMARK       I    between atoms: N6_5  and  C7_6 
REMARK    2  A    between atoms: C7_6  and  C9_8 
REMARK    3  A    between atoms: C13_12  and  N14_13 
REMARK       I    between atoms: N14_13  and  C15_14 
REMARK    4  A    between atoms: C15_14  and  C17_16 
ROOT
ATOM      1  C9  LZD d   1      28.011   5.323  64.560  0.00  0.00     0.146 A 
ATOM      2  N10 LZD d   1      28.467   4.259  65.277  0.00  0.00    -0.271 N 
ATOM      3  N11 LZD d   1      27.634   3.232  64.962  0.00  0.00    -0.184 NA
ATOM      4  C12 LZD d   1      26.671   3.618  64.094  0.00  0.00     0.050 A 
ATOM      5  C13 LZD d   1      26.899   4.962  63.810  0.00  0.00     0.088 A 
ATOM      6  H9  LZD d   1      29.271   4.237  65.920  0.00  0.00     0.189 HD
ATOM      7  H10 LZD d   1      25.871   2.997  63.694  0.00  0.00     0.121 H 
ENDROOT
BRANCH   1   8
ATOM      8  C7  LZD d   1      28.643   6.657  64.598  0.00  0.00     0.272 C 
ATOM      9  N6  LZD d   1      29.880   6.733  65.139  0.00  0.00    -0.349 N 
ATOM     10  H8  LZD d   1      30.317   5.906  65.493  0.00  0.00     0.163 HD
ATOM     11  O8  LZD d   1      28.066   7.635  64.130  0.00  0.00    -0.266 OA
BRANCH   9  12
ATOM     12  C5  LZD d   1      30.588   8.014  65.213  0.00  0.00     0.035 C 
ATOM     13  C4  LZD d   1      31.588   8.039  66.369  0.00  0.00    -0.043 C 
ATOM     14  C3  LZD d   1      32.327   9.372  66.403  0.00  0.00    -0.041 C 
ATOM     15  H5  LZD d   1      31.049   7.899  67.318  0.00  0.00     0.036 H 
ATOM     16  H6  LZD d   1      32.315   7.224  66.237  0.00  0.00     0.036 H 
ATOM     17  C2  LZD d   1      33.000   9.661  65.065  0.00  0.00     0.082 C 
ATOM     18  H3  LZD d   1      31.609  10.175  66.625  0.00  0.00     0.035 H 
ATOM     19  H4  LZD d   1      33.094   9.338  67.191  0.00  0.00     0.035 H 
ATOM     20  N26 LZD d   1      31.997   9.648  63.962  0.00  0.00    -0.073 N 
ATOM     21  H1  LZD d   1      33.762   8.893  64.870  0.00  0.00     0.075 H 
ATOM     22  H2  LZD d   1      33.479  10.650  65.107  0.00  0.00     0.075 H 
ATOM     23  C25 LZD d   1      31.295   8.335  63.884  0.00  0.00     0.100 C 
ATOM     24  H17 LZD d   1      32.468   9.821  63.088  0.00  0.00     0.277 HD
ATOM     25  H18 LZD d   1      31.318  10.374  64.127  0.00  0.00     0.277 HD
ATOM     26  H15 LZD d   1      30.548   8.373  63.078  0.00  0.00     0.078 H 
ATOM     27  H16 LZD d   1      32.029   7.546  63.666  0.00  0.00     0.078 H 
ATOM     28  H7  LZD d   1      29.840   8.799  65.397  0.00  0.00     0.075 H 
ENDBRANCH   9  12
ENDBRANCH   1   8
BRANCH   5  29
ATOM     29  N14 LZD d   1      26.230   5.835  62.963  0.00  0.00    -0.319 N 
ATOM     30  C15 LZD d   1      25.284   5.499  62.066  0.00  0.00     0.262 C 
ATOM     31  O16 LZD d   1      24.809   4.363  61.981  0.00  0.00    -0.267 OA
ATOM     32  H11 LZD d   1      26.473   6.803  63.025  0.00  0.00     0.169 HD
BRANCH  30  33
ATOM     33  C17 LZD d   1      24.831   6.597  61.158  0.00  0.00     0.109 A 
ATOM     34  C18 LZD d   1      25.721   7.234  60.286  0.00  0.00     0.135 A 
ATOM     35  F19 LZD d   1      27.013   6.846  60.285  0.00  0.00    -0.205 F 
ATOM     36  C20 LZD d   1      25.299   8.258  59.436  0.00  0.00    -0.044 A 
ATOM     37  C21 LZD d   1      23.969   8.647  59.443  0.00  0.00    -0.077 A 
ATOM     38  H12 LZD d   1      26.007   8.745  58.775  0.00  0.00     0.088 H 
ATOM     39  C22 LZD d   1      23.071   8.022  60.298  0.00  0.00    -0.044 A 
ATOM     40  H13 LZD d   1      23.631   9.437  58.783  0.00  0.00     0.083 H 
ATOM     41  C23 LZD d   1      23.514   7.003  61.141  0.00  0.00     0.135 A 
ATOM     42  H14 LZD d   1      22.030   8.325  60.310  0.00  0.00     0.088 H 
ATOM     43  F24 LZD d   1      22.650   6.398  61.977  0.00  0.00    -0.205 F 
ENDBRANCH  30  33
ENDBRANCH   5  29
TORSDOF 4
