REMARK  4 active torsions:
REMARK  status: ('A' for Active; 'I' for Inactive)
REMARK    1  A    between atoms: C5_3  and  N6_4 
REMARK       I    between atoms: N6_4  and  C7_5 
REMARK    2  A    between atoms: C7_5  and  C9_7 
REMARK    3  A    between atoms: C13_11  and  N14_12 
REMARK       I    between atoms: N14_12  and  C15_13 
REMARK    4  A    between atoms: C15_13  and  C17_15 
ROOT
ATOM      1  C9  LZE d   1      27.875   5.318  64.682  0.00  0.00     0.146 A 
ATOM      2  N10 LZE d   1      28.305   4.237  65.403  0.00  0.00    -0.271 N 
ATOM      3  N11 LZE d   1      27.514   3.211  64.997  0.00  0.00    -0.184 NA
ATOM      4  C12 LZE d   1      26.602   3.628  64.073  0.00  0.00     0.050 A 
ATOM      5  C13 LZE d   1      26.823   4.971  63.855  0.00  0.00     0.088 A 
ATOM      6  H7  LZE d   1      29.062   4.208  66.100  0.00  0.00     0.189 HD
ATOM      7  H8  LZE d   1      25.840   3.014  63.596  0.00  0.00     0.121 H 
ENDROOT
BRANCH   1   8
ATOM      8  C7  LZE d   1      28.462   6.660  64.777  0.00  0.00     0.272 C 
ATOM      9  N6  LZE d   1      29.637   6.757  65.453  0.00  0.00    -0.351 N 
ATOM     10  H6  LZE d   1      29.990   5.947  65.921  0.00  0.00     0.163 HD
ATOM     11  O8  LZE d   1      27.891   7.633  64.255  0.00  0.00    -0.266 OA
BRANCH   9  12
ATOM     12  C5  LZE d   1      30.404   7.998  65.523  0.00  0.00     0.015 C 
ATOM     13  C25 LZE d   1      31.444   8.072  64.403  0.00  0.00    -0.024 C 
ATOM     14  C26 LZE d   1      32.219   9.390  64.490  0.00  0.00     0.083 C 
ATOM     15  H3  LZE d   1      32.145   7.230  64.502  0.00  0.00     0.038 H 
ATOM     16  H4  LZE d   1      30.935   8.013  63.430  0.00  0.00     0.038 H 
ATOM     17  N24 LZE d   1      32.852   9.543  65.830  0.00  0.00    -0.075 N 
ATOM     18  H1  LZE d   1      31.526  10.228  64.320  0.00  0.00     0.075 H 
ATOM     19  H2  LZE d   1      33.002   9.400  63.718  0.00  0.00     0.075 H 
ATOM     20  C3  LZE d   1      31.859   9.473  66.942  0.00  0.00     0.083 C 
ATOM     21  H15 LZE d   1      33.317  10.436  65.868  0.00  0.00     0.277 HD
ATOM     22  H16 LZE d   1      33.529   8.806  65.954  0.00  0.00     0.277 HD
ATOM     23  C4  LZE d   1      31.086   8.157  66.888  0.00  0.00    -0.024 C 
ATOM     24  H17 LZE d   1      32.388   9.543  67.904  0.00  0.00     0.075 H 
ATOM     25  H18 LZE d   1      31.153  10.311  66.850  0.00  0.00     0.075 H 
ATOM     26  H13 LZE d   1      31.782   7.320  67.046  0.00  0.00     0.038 H 
ATOM     27  H14 LZE d   1      30.321   8.152  67.679  0.00  0.00     0.038 H 
ATOM     28  H5  LZE d   1      29.703   8.835  65.393  0.00  0.00     0.072 H 
ENDBRANCH   9  12
ENDBRANCH   1   8
BRANCH   5  29
ATOM     29  N14 LZE d   1      26.196   5.871  62.995  0.00  0.00    -0.319 N 
ATOM     30  C15 LZE d   1      25.344   5.534  62.007  0.00  0.00     0.259 C 
ATOM     31  O16 LZE d   1      24.948   4.381  61.836  0.00  0.00    -0.267 OA
ATOM     32  H9  LZE d   1      26.394   6.843  63.121  0.00  0.00     0.169 HD
BRANCH  30  33
ATOM     33  C17 LZE d   1      24.848   6.666  61.166  0.00  0.00     0.075 A 
ATOM     34  C18 LZE d   1      23.539   7.076  61.250  0.00  0.00     0.051 A 
ATOM     35  C20 LZE d   1      23.068   8.154  60.498  0.00  0.00    -0.061 A 
ATOM     36 CL7  LZE d   1      22.461   6.237  62.299  0.00  0.00    -0.083 Cl
ATOM     37  C21 LZE d   1      23.930   8.827  59.651  0.00  0.00    -0.080 A 
ATOM     38  H10 LZE d   1      22.032   8.462  60.578  0.00  0.00     0.086 H 
ATOM     39  C22 LZE d   1      25.256   8.441  59.575  0.00  0.00    -0.061 A 
ATOM     40  H11 LZE d   1      23.568   9.653  59.050  0.00  0.00     0.083 H 
ATOM     41  C23 LZE d   1      25.703   7.365  60.331  0.00  0.00     0.051 A 
ATOM     42  H12 LZE d   1      25.943   8.976  58.929  0.00  0.00     0.086 H 
ATOM     43 CL1  LZE d   1      27.347   6.866  60.191  0.00  0.00    -0.083 Cl
ENDBRANCH  30  33
ENDBRANCH   5  29
TORSDOF 4
