REMARK  9 active torsions:
REMARK  status: ('A' for Active; 'I' for Inactive)
REMARK    1  A    between atoms: O3_1  and  C3_2 
REMARK    2  A    between atoms: C4_3  and  O4_4 
REMARK    3  A    between atoms: C5_5  and  C6_6 
REMARK    4  A    between atoms: C6_6  and  O6_7 
REMARK    5  A    between atoms: C1_9  and  O1_10 
REMARK    6  A    between atoms: C2_11  and  N2_12 
REMARK       I    between atoms: N2_12  and  CAM_13 
REMARK       I    between atoms: CAM_13  and  NAN_15 
REMARK    7  A    between atoms: NAN_15  and  CAH_16 
REMARK    8  A    between atoms: NAN_15  and  NAO_17 
REMARK    9  A    between atoms: NAO_17  and  OAP_18 
ROOT
ATOM      1  C3  YX1 d   1      63.181  71.708  14.611  0.00  0.00     0.087 C 
ATOM      2  C4  YX1 d   1      63.206  70.163  14.562  0.00  0.00     0.089 C 
ATOM      3  C5  YX1 d   1      61.888  69.576  15.126  0.00  0.00     0.089 C 
ATOM      4  O5  YX1 d   1      61.835  69.959  16.535  0.00  0.00    -0.349 OA
ATOM      5  C1  YX1 d   1      61.738  71.424  16.748  0.00  0.00     0.151 C 
ATOM      6  C2  YX1 d   1      62.917  72.190  16.055  0.00  0.00     0.088 C 
ATOM      7  H2  YX1 d   1      62.393  72.088  13.945  0.00  0.00     0.090 H 
ATOM      8  H3  YX1 d   1      64.033  69.811  15.195  0.00  0.00     0.091 H 
ATOM      9  H5  YX1 d   1      61.054  70.039  14.578  0.00  0.00     0.090 H 
ATOM     10  H9  YX1 d   1      60.787  71.792  16.336  0.00  0.00     0.132 H 
ATOM     11  H11 YX1 d   1      63.821  71.946  16.633  0.00  0.00     0.084 H 
ENDROOT
BRANCH   6  12
ATOM     12  N2  YX1 d   1      62.765  73.666  16.121  0.00  0.00    -0.329 N 
ATOM     13  CAM YX1 d   1      61.701  74.356  15.696  0.00  0.00     0.348 C 
ATOM     14  OAG YX1 d   1      60.724  73.783  15.206  0.00  0.00    -0.245 OA
ATOM     15  NAN YX1 d   1      61.773  75.704  15.867  0.00  0.00    -0.127 N 
ATOM     16  H12 YX1 d   1      63.521  74.187  16.516  0.00  0.00     0.165 HD
BRANCH  15  17
ATOM     17  CAH YX1 d   1      60.657  76.547  15.451  0.00  0.00     0.018 C 
ATOM     18  H13 YX1 d   1      60.893  77.600  15.665  0.00  0.00     0.060 H 
ATOM     19  H14 YX1 d   1      59.751  76.255  16.002  0.00  0.00     0.060 H 
ATOM     20  H15 YX1 d   1      60.486  76.422  14.372  0.00  0.00     0.060 H 
ENDBRANCH  15  17
BRANCH  15  21
ATOM     21  NAO YX1 d   1      62.880  76.269  16.436  0.00  0.00     0.031 N 
ATOM     22  H16 YX1 d   1      63.664  75.643  16.341  0.00  0.00     0.374 HD
ATOM     23  H17 YX1 d   1      62.705  76.443  17.413  0.00  0.00     0.374 HD
BRANCH  21  24
ATOM     24  OAP YX1 d   1      63.167  77.487  15.784  0.00  0.00    -0.179 OA
ATOM     25  H18 YX1 d   1      63.936  77.882  16.177  0.00  0.00     0.259 HD
ENDBRANCH  21  24
ENDBRANCH  15  21
ENDBRANCH   6  12
BRANCH   1  26
ATOM     26  O3  YX1 d   1      64.478  72.200  14.178  0.00  0.00    -0.391 OA
ATOM     27  H1  YX1 d   1      64.647  71.905  13.291  0.00  0.00     0.210 HD
ENDBRANCH   1  26
BRANCH   5  28
ATOM     28  O1  YX1 d   1      61.768  71.641  18.164  0.00  0.00    -0.369 OA
ATOM     29  H10 YX1 d   1      61.708  72.572  18.342  0.00  0.00     0.212 HD
ENDBRANCH   5  28
BRANCH   2  30
ATOM     30  O4  YX1 d   1      63.452  69.715  13.211  0.00  0.00    -0.390 OA
ATOM     31  H4  YX1 d   1      63.466  68.765  13.191  0.00  0.00     0.210 HD
ENDBRANCH   2  30
BRANCH   3  32
ATOM     32  C6  YX1 d   1      61.690  68.034  15.072  0.00  0.00     0.043 C 
ATOM     33  H6  YX1 d   1      61.733  67.685  14.030  0.00  0.00     0.078 H 
ATOM     34  H7  YX1 d   1      60.718  67.763  15.510  0.00  0.00     0.078 H 
BRANCH  32  35
ATOM     35  O6  YX1 d   1      62.754  67.442  15.833  0.00  0.00    -0.398 OA
ATOM     36  H8  YX1 d   1      63.589  67.686  15.451  0.00  0.00     0.209 HD
ENDBRANCH  32  35
ENDBRANCH   3  32
TORSDOF 9
