REMARK  10 active torsions:
REMARK  status: ('A' for Active; 'I' for Inactive)
REMARK    1  A    between atoms: C1_1  and  C2_2 
REMARK    2  A    between atoms: C2_2  and  C3_3 
REMARK    3  A    between atoms: C2_2  and  N4_4 
REMARK    4  A    between atoms: C5_5  and  C6_6 
REMARK    5  A    between atoms: C9_9  and  C10_10 
REMARK    6  A    between atoms: C14_14  and  N15_15 
REMARK    7  A    between atoms: N15_15  and  C16_16 
REMARK    8  A    between atoms: C19_19  and  N22_22 
REMARK       I    between atoms: N25_25  and  C28_28 
REMARK    9  A    between atoms: C28_28  and  C30_30 
REMARK   10  A    between atoms: C30_30  and  O31_31 
ROOT
ATOM      1  C16 IM9 d   1       3.089  28.237   7.017  0.00  0.00     0.049 A 
ATOM      2  C17 IM9 d   1       2.638  27.406   8.043  0.00  0.00    -0.055 A 
ATOM      3  C18 IM9 d   1       3.201  26.137   8.178  0.00  0.00    -0.060 A 
ATOM      4  C19 IM9 d   1       4.202  25.681   7.326  0.00  0.00     0.010 A 
ATOM      5  C20 IM9 d   1       4.666  26.517   6.317  0.00  0.00    -0.060 A 
ATOM      6  C21 IM9 d   1       4.107  27.782   6.186  0.00  0.00    -0.055 A 
ATOM      7  H15 IM9 d   1       1.863  27.741   8.723  0.00  0.00     0.087 H 
ATOM      8  H16 IM9 d   1       2.848  25.487   8.970  0.00  0.00     0.086 H 
ATOM      9  H17 IM9 d   1       5.450  26.188   5.644  0.00  0.00     0.086 H 
ATOM     10  H18 IM9 d   1       4.478  28.439   5.407  0.00  0.00     0.087 H 
ENDROOT
BRANCH   1  11
ATOM     11  N15 IM9 d   1       2.618  29.523   6.760  0.00  0.00    -0.188 N 
ATOM     12  H14 IM9 d   1       3.155  30.044   6.052  0.00  0.00     0.184 HD
BRANCH  11  13
ATOM     13  C14 IM9 d   1       1.544  30.219   7.301  0.00  0.00     0.727 A 
ATOM     14  N13 IM9 d   1       1.545  31.519   7.022  0.00  0.00    -0.075 NA
ATOM     15  C12 IM9 d   1       0.596  32.338   7.478  0.00  0.00     0.023 A 
ATOM     16  C11 IM9 d   1      -0.444  31.843   8.247  0.00  0.00    -0.035 A 
ATOM     17  H13 IM9 d   1       0.639  33.396   7.246  0.00  0.00     0.115 H 
ATOM     18  C10 IM9 d   1      -0.449  30.451   8.496  0.00  0.00     0.105 A 
ATOM     19  H12 IM9 d   1      -1.218  32.492   8.640  0.00  0.00     0.089 H 
ATOM     20  N32 IM9 d   1       0.546  29.662   8.022  0.00  0.00    -0.061 NA
BRANCH  18  21
ATOM     21  C9  IM9 d   1      -1.540  29.864   9.296  0.00  0.00     0.083 A 
ATOM     22  N4  IM9 d   1      -1.466  28.707  10.058  0.00  0.00    -0.328 N 
ATOM     23  C5  IM9 d   1      -2.686  28.547  10.605  0.00  0.00     0.102 A 
ATOM     24  N7  IM9 d   1      -3.477  29.531  10.221  0.00  0.00    -0.245 NA
ATOM     25  C8  IM9 d   1      -2.809  30.354   9.403  0.00  0.00     0.032 A 
ATOM     26  H11 IM9 d   1      -3.203  31.245   8.916  0.00  0.00     0.118 H 
BRANCH  22  27
ATOM     27  C2  IM9 d   1      -0.285  27.858  10.259  0.00  0.00     0.011 C 
ATOM     28  H4  IM9 d   1       0.536  28.265   9.650  0.00  0.00     0.072 H 
BRANCH  27  29
ATOM     29  C1  IM9 d   1       0.143  27.885  11.730  0.00  0.00    -0.057 C 
ATOM     30  H1  IM9 d   1       1.028  27.246  11.866  0.00  0.00     0.030 H 
ATOM     31  H2  IM9 d   1      -0.679  27.512  12.358  0.00  0.00     0.030 H 
ATOM     32  H3  IM9 d   1       0.388  28.917  12.022  0.00  0.00     0.030 H 
ENDBRANCH  27  29
BRANCH  27  33
ATOM     33  C3  IM9 d   1      -0.541  26.420   9.813  0.00  0.00    -0.057 C 
ATOM     34  H5  IM9 d   1      -0.847  26.413   8.757  0.00  0.00     0.030 H 
ATOM     35  H6  IM9 d   1      -1.340  25.982  10.429  0.00  0.00     0.030 H 
ATOM     36  H7  IM9 d   1       0.380  25.830   9.932  0.00  0.00     0.030 H 
ENDBRANCH  27  33
ENDBRANCH  22  27
BRANCH  23  37
ATOM     37  C6  IM9 d   1      -3.060  27.410  11.527  0.00  0.00    -0.021 C 
ATOM     38  H8  IM9 d   1      -4.112  27.515  11.830  0.00  0.00     0.037 H 
ATOM     39  H9  IM9 d   1      -2.417  27.435  12.419  0.00  0.00     0.037 H 
ATOM     40  H10 IM9 d   1      -2.923  26.453  11.003  0.00  0.00     0.037 H 
ENDBRANCH  23  37
ENDBRANCH  18  21
ENDBRANCH  11  13
ENDBRANCH   1  11
BRANCH   4  41
ATOM     41  N22 IM9 d   1       4.789  24.405   7.498  0.00  0.00    -0.280 NA
ATOM     42  C23 IM9 d   1       4.095  23.601   8.512  0.00  0.00    -0.002 C 
ATOM     43  C24 IM9 d   1       4.913  22.338   8.768  0.00  0.00     0.009 C 
ATOM     44  H19 IM9 d   1       3.094  23.328   8.148  0.00  0.00     0.058 H 
ATOM     45  H20 IM9 d   1       4.002  24.178   9.444  0.00  0.00     0.058 H 
ATOM     46  N25 IM9 d   1       5.163  21.664   7.475  0.00  0.00    -0.348 N 
ATOM     47  H21 IM9 d   1       4.355  21.664   9.435  0.00  0.00     0.066 H 
ATOM     48  H22 IM9 d   1       5.871  22.606   9.237  0.00  0.00     0.066 H 
ATOM     49  C26 IM9 d   1       5.782  22.454   6.399  0.00  0.00     0.009 C 
ATOM     50  C28 IM9 d   1       4.846  20.364   7.270  0.00  0.00     0.243 C 
ATOM     51  C27 IM9 d   1       4.890  23.699   6.213  0.00  0.00    -0.002 C 
ATOM     52  H23 IM9 d   1       5.819  21.869   5.468  0.00  0.00     0.066 H 
ATOM     53  H24 IM9 d   1       6.801  22.754   6.684  0.00  0.00     0.066 H 
ATOM     54  H25 IM9 d   1       5.337  24.364   5.460  0.00  0.00     0.058 H 
ATOM     55  H26 IM9 d   1       3.888  23.390   5.881  0.00  0.00     0.058 H 
ATOM     56  O29 IM9 d   1       5.104  19.840   6.192  0.00  0.00    -0.271 OA
BRANCH  50  57
ATOM     57  C30 IM9 d   1       4.192  19.555   8.364  0.00  0.00     0.090 C 
ATOM     58  H27 IM9 d   1       3.210  19.994   8.594  0.00  0.00     0.088 H 
ATOM     59  H28 IM9 d   1       4.827  19.589   9.261  0.00  0.00     0.088 H 
BRANCH  57  60
ATOM     60  O31 IM9 d   1       4.010  18.183   7.973  0.00  0.00    -0.392 OA
ATOM     61  H29 IM9 d   1       3.458  18.145   7.201  0.00  0.00     0.210 HD
ENDBRANCH  57  60
ENDBRANCH  50  57
ENDBRANCH   4  41
TORSDOF 10
