REMARK  7 active torsions:
REMARK  status: ('A' for Active; 'I' for Inactive)
REMARK    1  A    between atoms: C1_1  and  O1_7 
REMARK    2  A    between atoms: C2_2  and  O2_8 
REMARK    3  A    between atoms: C3_3  and  O3_9 
REMARK    4  A    between atoms: C4_4  and  O4_10 
REMARK    5  A    between atoms: C5_5  and  C6_6 
REMARK    6  A    between atoms: C6_6  and  O6_12 
REMARK    7  A    between atoms: O6_12  and  P_13 
ROOT
ATOM      1  C1  A6P d   1      34.306   8.846 -11.508  0.00  0.00     0.156 C 
ATOM      2  C2  A6P d   1      34.598   7.767 -10.435  0.00  0.00     0.110 C 
ATOM      3  C3  A6P d   1      34.245   8.237  -9.025  0.00  0.00     0.092 C 
ATOM      4  C4  A6P d   1      34.687   9.676  -8.730  0.00  0.00     0.090 C 
ATOM      5  C5  A6P d   1      34.304  10.631  -9.857  0.00  0.00     0.090 C 
ATOM      6  O5  A6P d   1      34.798  10.133 -11.104  0.00  0.00    -0.349 OA
ATOM      7  H1  A6P d   1      34.819   8.549 -12.435  0.00  0.00     0.133 H 
ATOM      8  H2  A6P d   1      35.678   7.563 -10.468  0.00  0.00     0.094 H 
ATOM      9  H3  A6P d   1      34.787   7.586  -8.324  0.00  0.00     0.091 H 
ATOM     10  H4  A6P d   1      35.780   9.693  -8.605  0.00  0.00     0.091 H 
ATOM     11  H5  A6P d   1      33.207  10.704  -9.903  0.00  0.00     0.090 H 
ENDROOT
BRANCH   5  12
ATOM     12  C6  A6P d   1      34.887  12.020  -9.623  0.00  0.00     0.059 C 
ATOM     13  H6  A6P d   1      35.985  11.959  -9.583  0.00  0.00     0.079 H 
ATOM     14  H7  A6P d   1      34.507  12.426  -8.674  0.00  0.00     0.079 H 
BRANCH  12  15
ATOM     15  O6  A6P d   1      34.489  12.874 -10.709  0.00  0.00    -0.280 OA
BRANCH  15  16
ATOM     16  P   A6P d   1      34.806  14.464 -10.706  0.00  0.00     0.422 P 
ATOM     17  O1P A6P d   1      34.144  15.003  -9.456  0.00  0.00    -0.617 OA
ATOM     18  O2P A6P d   1      36.276  14.559 -10.647  0.00  0.00    -0.617 OA
ATOM     19  O3P A6P d   1      34.194  15.010 -11.974  0.00  0.00    -0.617 OA
ENDBRANCH  15  16
ENDBRANCH  12  15
ENDBRANCH   5  12
BRANCH   4  20
ATOM     20  O4  A6P d   1      34.063  10.120  -7.523  0.00  0.00    -0.390 OA
ATOM     21  H11 A6P d   1      34.361  10.998  -7.318  0.00  0.00     0.210 HD
ENDBRANCH   4  20
BRANCH   3  22
ATOM     22  O3  A6P d   1      32.820   8.064  -8.771  0.00  0.00    -0.390 OA
ATOM     23  H10 A6P d   1      32.572   7.167  -8.961  0.00  0.00     0.210 HD
ENDBRANCH   3  22
BRANCH   1  24
ATOM     24  O1  A6P d   1      32.915   8.963 -11.779  0.00  0.00    -0.369 OA
ATOM     25  H8  A6P d   1      32.781   9.596 -12.475  0.00  0.00     0.212 HD
ENDBRANCH   1  24
BRANCH   2  26
ATOM     26  O2  A6P d   1      33.902   6.522 -10.671  0.00  0.00    -0.388 OA
ATOM     27  H9  A6P d   1      32.966   6.664 -10.595  0.00  0.00     0.210 HD
ENDBRANCH   2  26
TORSDOF 7
