REMARK  11 active torsions:
REMARK  status: ('A' for Active; 'I' for Inactive)
REMARK    1  A    between atoms: C2_2  and  O11_11 
REMARK    2  A    between atoms: C4_4  and  N10_10 
REMARK    3  A    between atoms: N9_9  and  C24_24 
REMARK    4  A    between atoms: N10_10  and  C12_12 
REMARK    5  A    between atoms: O11_11  and  C20_20 
REMARK    6  A    between atoms: C12_12  and  C13_13 
REMARK    7  A    between atoms: C13_13  and  N14_14 
REMARK    8  A    between atoms: C20_20  and  C21_21 
REMARK    9  A    between atoms: C21_21  and  C22_22 
REMARK   10  A    between atoms: C22_22  and  C23_23 
REMARK   11  A    between atoms: C24_24  and  C25_25 
ROOT
ATOM      1  N1  I24 d   1       8.864  50.270  72.435  0.00  0.00    -0.186 NA
ATOM      2  C2  I24 d   1       9.507  49.688  73.439  0.00  0.00     0.272 A 
ATOM      3  N3  I24 d   1       9.536  50.164  74.682  0.00  0.00    -0.187 NA
ATOM      4  C4  I24 d   1       8.878  51.295  74.991  0.00  0.00     0.161 A 
ATOM      5  C5  I24 d   1       8.211  51.406  72.679  0.00  0.00     0.168 A 
ATOM      6  C6  I24 d   1       8.192  51.957  73.971  0.00  0.00     0.149 A 
ATOM      7  N7  I24 d   1       7.449  53.114  73.929  0.00  0.00    -0.236 NA
ATOM      8  C8  I24 d   1       7.039  53.271  72.703  0.00  0.00     0.069 A 
ATOM      9  N9  I24 d   1       7.476  52.236  71.900  0.00  0.00    -0.320 N 
ATOM     10  H1  I24 d   1       6.433  54.107  72.357  0.00  0.00     0.143 H 
ENDROOT
BRANCH   4  11
ATOM     11  N10 I24 d   1       8.928  51.799  76.283  0.00  0.00    -0.371 N 
ATOM     12  H2  I24 d   1       8.221  52.475  76.605  0.00  0.00     0.161 HD
BRANCH  11  13
ATOM     13  C12 I24 d   1      10.002  51.358  77.191  0.00  0.00     0.017 C 
ATOM     14  H3  I24 d   1      10.947  51.825  76.877  0.00  0.00     0.066 H 
ATOM     15  H4  I24 d   1      10.095  50.264  77.127  0.00  0.00     0.066 H 
BRANCH  13  16
ATOM     16  C13 I24 d   1       9.718  51.746  78.644  0.00  0.00     0.098 C 
ATOM     17  H5  I24 d   1       9.909  52.823  78.762  0.00  0.00     0.078 H 
ATOM     18  H6  I24 d   1      10.398  51.179  79.297  0.00  0.00     0.078 H 
BRANCH  16  19
ATOM     19  N14 I24 d   1       8.327  51.467  79.060  0.00  0.00    -0.066 N 
ATOM     20  C15 I24 d   1       8.011  50.040  78.801  0.00  0.00     0.103 C 
ATOM     21  C16 I24 d   1       6.618  49.738  79.343  0.00  0.00     0.042 C 
ATOM     22  H8  I24 d   1       8.750  49.400  79.305  0.00  0.00     0.079 H 
ATOM     23  H9  I24 d   1       8.036  49.846  77.719  0.00  0.00     0.079 H 
ATOM     24  O17 I24 d   1       6.719  49.816  80.767  0.00  0.00    -0.388 OA
ATOM     25  H10 I24 d   1       6.300  48.730  79.038  0.00  0.00     0.076 H 
ATOM     26  H11 I24 d   1       5.895  50.479  78.971  0.00  0.00     0.076 H 
ATOM     27  C18 I24 d   1       6.992  51.180  81.169  0.00  0.00     0.042 C 
ATOM     28  C19 I24 d   1       8.283  51.715  80.521  0.00  0.00     0.103 C 
ATOM     29  H12 I24 d   1       7.101  51.215  82.263  0.00  0.00     0.076 H 
ATOM     30  H13 I24 d   1       6.149  51.818  80.864  0.00  0.00     0.076 H 
ATOM     31  H14 I24 d   1       8.344  52.799  80.697  0.00  0.00     0.079 H 
ATOM     32  H15 I24 d   1       9.145  51.218  80.990  0.00  0.00     0.079 H 
ATOM     33  H7  I24 d   1       7.678  52.064  78.572  0.00  0.00     0.280 HD
ENDBRANCH  16  19
ENDBRANCH  13  16
ENDBRANCH  11  13
ENDBRANCH   4  11
BRANCH   2  34
ATOM     34  O11 I24 d   1      10.166  48.522  73.233  0.00  0.00    -0.319 OA
BRANCH  34  35
ATOM     35  C20 I24 d   1       9.766  47.967  71.962  0.00  0.00     0.029 C 
ATOM     36  H16 I24 d   1      10.581  47.336  71.578  0.00  0.00     0.075 H 
ATOM     37  H17 I24 d   1       9.578  48.791  71.258  0.00  0.00     0.075 H 
BRANCH  35  38
ATOM     38  C21 I24 d   1       8.505  47.123  72.079  0.00  0.00    -0.045 C 
ATOM     39  H18 I24 d   1       7.614  47.769  72.087  0.00  0.00     0.036 H 
ATOM     40  H19 I24 d   1       8.532  46.525  73.002  0.00  0.00     0.036 H 
BRANCH  38  41
ATOM     41  C22 I24 d   1       8.483  46.199  70.845  0.00  0.00    -0.067 C 
ATOM     42  H20 I24 d   1       9.312  45.478  70.900  0.00  0.00     0.032 H 
ATOM     43  H21 I24 d   1       8.577  46.796  69.926  0.00  0.00     0.032 H 
BRANCH  41  44
ATOM     44  C23 I24 d   1       7.149  45.461  70.853  0.00  0.00    -0.076 C 
ATOM     45  H22 I24 d   1       7.096  44.789  69.984  0.00  0.00     0.027 H 
ATOM     46  H23 I24 d   1       6.327  46.190  70.804  0.00  0.00     0.027 H 
ATOM     47  H24 I24 d   1       7.062  44.871  71.778  0.00  0.00     0.027 H 
ENDBRANCH  41  44
ENDBRANCH  38  41
ENDBRANCH  35  38
ENDBRANCH  34  35
ENDBRANCH   2  34
BRANCH   9  48
ATOM     48  C24 I24 d   1       7.222  52.041  70.480  0.00  0.00     0.032 C 
ATOM     49  H25 I24 d   1       8.176  51.809  69.983  0.00  0.00     0.072 H 
ATOM     50  H26 I24 d   1       6.811  52.974  70.068  0.00  0.00     0.072 H 
BRANCH  48  51
ATOM     51  C25 I24 d   1       6.247  50.919  70.194  0.00  0.00     0.037 A 
ATOM     52  C26 I24 d   1       4.910  51.108  70.498  0.00  0.00     0.127 A 
ATOM     53  C27 I24 d   1       3.981  50.118  70.231  0.00  0.00    -0.045 A 
ATOM     54  F31 I24 d   1       4.571  52.280  71.073  0.00  0.00    -0.205 F 
ATOM     55  C28 I24 d   1       4.392  48.934  69.635  0.00  0.00    -0.077 A 
ATOM     56  H27 I24 d   1       2.938  50.266  70.486  0.00  0.00     0.088 H 
ATOM     57  C29 I24 d   1       5.738  48.736  69.307  0.00  0.00    -0.045 A 
ATOM     58  H28 I24 d   1       3.666  48.158  69.422  0.00  0.00     0.083 H 
ATOM     59  C30 I24 d   1       6.651  49.738  69.599  0.00  0.00     0.127 A 
ATOM     60  H29 I24 d   1       6.061  47.816  68.833  0.00  0.00     0.088 H 
ATOM     61  F32 I24 d   1       7.966  49.595  69.324  0.00  0.00    -0.205 F 
ENDBRANCH  48  51
ENDBRANCH   9  48
TORSDOF 11
