REMARK WARNING: 32 MAX_TORS EXCEEDED!!!
REMARK  57 active torsions:
REMARK  status: ('A' for Active; 'I' for Inactive)
REMARK    1  A    between atoms: N_1  and  CA_2 
REMARK    2  A    between atoms: CA_2  and  C_3 
REMARK    3  A    between atoms: CA_2  and  CB_5 
REMARK       I    between atoms: C_3  and  N_9 
REMARK    4  A    between atoms: CB_5  and  CG1_6 
REMARK    5  A    between atoms: CB_5  and  CG2_7 
REMARK    6  A    between atoms: CG1_6  and  CD1_8 
REMARK    7  A    between atoms: N_9  and  CA_10 
REMARK    8  A    between atoms: CA_10  and  C_11 
REMARK    9  A    between atoms: CA_10  and  CB_13 
REMARK       I    between atoms: C_11  and  N_18 
REMARK   10  A    between atoms: CB_13  and  CG_14 
REMARK   11  A    between atoms: CG_14  and  CD_15 
REMARK       I    between atoms: CD_15  and  NE2_17 
REMARK   12  A    between atoms: CA_19  and  C_20 
REMARK       I    between atoms: C_20  and  N_25 
REMARK   13  A    between atoms: CA_26  and  C_27 
REMARK       I    between atoms: C_27  and  N_32 
REMARK   14  A    between atoms: CA_33  and  C_34 
REMARK       I    between atoms: C_34  and  N_39 
REMARK   15  A    between atoms: N_39  and  CA_40 
REMARK   16  A    between atoms: CA_40  and  C_41 
REMARK   17  A    between atoms: CA_40  and  CB_43 
REMARK       I    between atoms: C_41  and  N_46 
REMARK   18  A    between atoms: CB_43  and  CG1_44 
REMARK   19  A    between atoms: CB_43  and  CG2_45 
REMARK   20  A    between atoms: N_46  and  CA_47 
REMARK   21  A    between atoms: CA_47  and  C_48 
REMARK   22  A    between atoms: CA_47  and  CB_50 
REMARK       I    between atoms: C_48  and  N_54 
REMARK   23  A    between atoms: CB_50  and  CG_51 
REMARK       I    between atoms: CG_51  and  ND2_53 
REMARK   24  A    between atoms: N_54  and  CA_55 
REMARK   25  A    between atoms: CA_55  and  C_56 
REMARK   26  A    between atoms: CA_55  and  CB_58 
REMARK       I    between atoms: C_56  and  N_65 
REMARK   27  A    between atoms: CB_58  and  CG_59 
REMARK   28  A    between atoms: CG_59  and  CD_60 
REMARK   29  A    between atoms: CD_60  and  NE_61 
REMARK       I    between atoms: NE_61  and  CZ_62 
REMARK       I    between atoms: CZ_62  and  NH1_63 
REMARK       I    between atoms: CZ_62  and  NH2_64 
REMARK   30  A    between atoms: N_65  and  CA_66 
REMARK   31  A    between atoms: CA_66  and  C_67 
REMARK   32  A    between atoms: CA_66  and  CB_69 
REMARK       I    between atoms: C_67  and  N_73 
REMARK   33  A    between atoms: CB_69  and  CG_70 
REMARK       I    between atoms: CG_70  and  ND2_72 
REMARK   34  A    between atoms: N_73  and  CA_74 
REMARK   35  A    between atoms: CA_74  and  C_75 
REMARK   36  A    between atoms: CA_74  and  CB_77 
REMARK       I    between atoms: C_75  and  N_81 
REMARK   37  A    between atoms: CB_77  and  CG_78 
REMARK   38  A    between atoms: CG_78  and  CD1_79 
REMARK   39  A    between atoms: CG_78  and  CD2_80 
REMARK   40  A    between atoms: N_81  and  CA_82 
REMARK   41  A    between atoms: CA_82  and  C_83 
REMARK   42  A    between atoms: CA_82  and  CB_85 
REMARK       I    between atoms: C_83  and  N_90 
REMARK   43  A    between atoms: CB_85  and  CG_86 
REMARK   44  A    between atoms: CG_86  and  CD_87 
REMARK   45  A    between atoms: CD_87  and  CE_88 
REMARK   46  A    between atoms: CE_88  and  NZ_89 
REMARK   47  A    between atoms: CA_91  and  C_92 
REMARK       I    between atoms: C_92  and  N_97 
REMARK   48  A    between atoms: N_97  and  CA_98 
REMARK   49  A    between atoms: CA_98  and  C_99 
REMARK   50  A    between atoms: CA_98  and  CB_101 
REMARK       I    between atoms: C_99  and  N_105 
REMARK   51  A    between atoms: CB_101  and  CG_102 
REMARK   52  A    between atoms: N_105  and  CA_106 
REMARK   53  A    between atoms: CA_106  and  C_107 
REMARK   54  A    between atoms: CA_106  and  CB_109 
REMARK   55  A    between atoms: CB_109  and  CG_110 
REMARK   56  A    between atoms: CG_110  and  CD_111 
REMARK   57  A    between atoms: CD_111  and  NE_112 
REMARK       I    between atoms: NE_112  and  CZ_113 
REMARK       I    between atoms: CZ_113  and  NH1_114 
ROOT
ATOM      1  CA  ARG d   1       0.303   5.038  -7.227  0.00  0.00     0.089 C 
ATOM      2  H59 ARG d   1       0.381   6.040  -6.780  0.00  0.00     0.087 H 
ENDROOT
BRANCH   1   3
ATOM      3  N   ARG d   1      -1.117   4.782  -7.414  0.00  0.00    -0.346 N 
ATOM      4  C   ASN d   1      -1.907   5.749  -7.892  0.00  0.00     0.241 C 
ATOM      5  O   ASN d   1      -1.454   6.803  -8.347  0.00  0.00    -0.271 OA
ATOM      6  H58 ARG d   1      -1.500   3.887  -7.186  0.00  0.00     0.163 HD
BRANCH   4   7
ATOM      7  CA  ASN d   1      -3.385   5.471  -7.838  0.00  0.00     0.097 C 
ATOM      8  H53 ASN d   1      -3.558   4.407  -8.060  0.00  0.00     0.088 H 
BRANCH   7   9
ATOM      9  N   ASN d   1      -3.877   5.778  -6.504  0.00  0.00    -0.346 N 
ATOM     10  C   VAL d   1      -4.244   4.841  -5.639  0.00  0.00     0.241 C 
ATOM     11  O   VAL d   1      -4.037   3.618  -5.798  0.00  0.00    -0.271 OA
ATOM     12  H52 ASN d   1      -3.942   6.737  -6.227  0.00  0.00     0.163 HD
BRANCH  10  13
ATOM     13  CA  VAL d   1      -4.969   5.353  -4.382  0.00  0.00     0.092 C 
ATOM     14  H44 VAL d   1      -5.167   6.429  -4.497  0.00  0.00     0.088 H 
BRANCH  13  15
ATOM     15  N   VAL d   1      -6.239   4.648  -4.271  0.00  0.00    -0.346 N 
ATOM     16  C   PRO d   1      -7.397   5.113  -4.742  0.00  0.00     0.241 C 
ATOM     17  O   PRO d   1      -7.532   6.192  -5.304  0.00  0.00    -0.271 OA
ATOM     18  H43 VAL d   1      -6.243   3.759  -3.813  0.00  0.00     0.163 HD
BRANCH  16  19
ATOM     19  CA  PRO d   1      -8.601   4.232  -4.533  0.00  0.00     0.091 C 
ATOM     20  N   PRO d   1      -9.754   5.101  -4.309  0.00  0.00    -0.337 N 
ATOM     21  C   PRO d   1      -9.776   5.837  -3.196  0.00  0.00     0.243 C 
ATOM     22  CD  PRO d   1     -10.768   4.989  -5.376  0.00  0.00    -0.001 C 
ATOM     23  O   PRO d   1      -8.914   5.757  -2.366  0.00  0.00    -0.271 OA
ATOM     24  CG  PRO d   1     -10.038   4.264  -6.441  0.00  0.00    -0.048 C 
ATOM     25  H41 PRO d   1     -11.092   5.982  -5.722  0.00  0.00     0.064 H 
ATOM     26  H42 PRO d   1     -11.643   4.417  -5.034  0.00  0.00     0.064 H 
ATOM     27  CB  PRO d   1      -8.965   3.483  -5.831  0.00  0.00    -0.036 C 
ATOM     28  H39 PRO d   1     -10.729   3.592  -6.971  0.00  0.00     0.035 H 
ATOM     29  H40 PRO d   1      -9.611   4.986  -7.153  0.00  0.00     0.035 H 
ATOM     30  H37 PRO d   1      -9.312   2.464  -5.603  0.00  0.00     0.036 H 
ATOM     31  H38 PRO d   1      -8.096   3.433  -6.503  0.00  0.00     0.036 H 
ATOM     32  H36 PRO d   1      -8.435   3.537  -3.697  0.00  0.00     0.087 H 
BRANCH  21  33
ATOM     33  CA  PRO d   1     -10.925   6.813  -3.011  0.00  0.00     0.092 C 
ATOM     34  N   PRO d   1     -11.205   7.186  -1.614  0.00  0.00    -0.337 N 
ATOM     35  C   PRO d   1     -11.591   6.272  -0.732  0.00  0.00     0.243 C 
ATOM     36  CD  PRO d   1     -11.085   8.639  -1.399  0.00  0.00    -0.001 C 
ATOM     37  O   PRO d   1     -11.815   5.119  -1.053  0.00  0.00    -0.271 OA
ATOM     38  CG  PRO d   1     -10.997   9.191  -2.780  0.00  0.00    -0.048 C 
ATOM     39  H34 PRO d   1     -10.179   8.877  -0.822  0.00  0.00     0.064 H 
ATOM     40  H35 PRO d   1     -11.968   9.033  -0.874  0.00  0.00     0.064 H 
ATOM     41  CB  PRO d   1     -10.523   8.141  -3.652  0.00  0.00    -0.036 C 
ATOM     42  H32 PRO d   1     -11.990   9.530  -3.110  0.00  0.00     0.035 H 
ATOM     43  H33 PRO d   1     -10.295  10.037  -2.799  0.00  0.00     0.035 H 
ATOM     44  H30 PRO d   1     -10.986   8.237  -4.645  0.00  0.00     0.036 H 
ATOM     45  H31 PRO d   1      -9.429   8.197  -3.751  0.00  0.00     0.036 H 
ATOM     46  H29 PRO d   1     -11.830   6.397  -3.479  0.00  0.00     0.087 H 
BRANCH  35  47
ATOM     47  CA  PRO d   1     -11.777   6.701   0.703  0.00  0.00     0.092 C 
ATOM     48  N   PRO d   1     -12.923   6.044   1.323  0.00  0.00    -0.337 N 
ATOM     49  C   GLN d   1     -14.133   6.221   0.776  0.00  0.00     0.243 C 
ATOM     50  CD  PRO d   1     -12.550   5.326   2.561  0.00  0.00    -0.001 C 
ATOM     51  O   GLN d   1     -14.321   6.894  -0.239  0.00  0.00    -0.271 OA
ATOM     52  CG  PRO d   1     -11.137   5.841   2.861  0.00  0.00    -0.048 C 
ATOM     53  H27 PRO d   1     -12.546   4.238   2.399  0.00  0.00     0.064 H 
ATOM     54  H28 PRO d   1     -13.241   5.572   3.381  0.00  0.00     0.064 H 
ATOM     55  CB  PRO d   1     -10.583   6.247   1.558  0.00  0.00    -0.036 C 
ATOM     56  H25 PRO d   1     -11.178   6.700   3.546  0.00  0.00     0.035 H 
ATOM     57  H26 PRO d   1     -10.524   5.045   3.308  0.00  0.00     0.035 H 
ATOM     58  H23 PRO d   1      -9.871   7.075   1.688  0.00  0.00     0.036 H 
ATOM     59  H24 PRO d   1     -10.073   5.398   1.080  0.00  0.00     0.036 H 
ATOM     60  H22 PRO d   1     -11.892   7.794   0.742  0.00  0.00     0.087 H 
BRANCH  49  61
ATOM     61  CA  GLN d   1     -15.299   5.530   1.438  0.00  0.00     0.090 C 
ATOM     62  H15 GLN d   1     -15.021   5.238   2.461  0.00  0.00     0.087 H 
BRANCH  61  63
ATOM     63  N   GLN d   1     -16.468   6.398   1.497  0.00  0.00    -0.346 N 
ATOM     64  C   ILE d   1     -17.427   6.179   2.383  0.00  0.00     0.249 C 
ATOM     65  O   ILE d   1     -17.388   5.276   3.191  0.00  0.00    -0.271 OA
ATOM     66  H14 GLN d   1     -16.547   7.167   0.862  0.00  0.00     0.163 HD
BRANCH  64  67
ATOM     67  CA  ILE d   1     -18.616   7.098   2.344  0.00  0.00     0.179 C 
ATOM     68  H4  ILE d   1     -18.560   7.714   1.434  0.00  0.00     0.099 H 
BRANCH  67  69
ATOM     69  N   ILE d   1     -19.879   6.307   2.295  0.00  0.00    -0.066 N 
ATOM     70  H1  ILE d   1     -19.871   5.712   1.481  0.00  0.00     0.275 HD
ATOM     71  H2  ILE d   1     -20.667   6.934   2.245  0.00  0.00     0.275 HD
ATOM     72  H3  ILE d   1     -19.953   5.740   3.125  0.00  0.00     0.275 HD
ENDBRANCH  67  69
BRANCH  67  73
ATOM     73  CB  ILE d   1     -18.567   8.022   3.558  0.00  0.00    -0.022 C 
ATOM     74  H5  ILE d   1     -18.721   7.421   4.466  0.00  0.00     0.043 H 
BRANCH  73  75
ATOM     75  CG1 ILE d   1     -19.705   9.046   3.454  0.00  0.00    -0.063 C 
ATOM     76  H6  ILE d   1     -20.648   8.536   3.700  0.00  0.00     0.033 H 
ATOM     77  H7  ILE d   1     -19.745   9.410   2.417  0.00  0.00     0.033 H 
BRANCH  75  78
ATOM     78  CD1 ILE d   1     -19.568  10.205   4.340  0.00  0.00    -0.076 C 
ATOM     79  H11 ILE d   1     -20.425  10.880   4.196  0.00  0.00     0.027 H 
ATOM     80  H12 ILE d   1     -18.636  10.740   4.103  0.00  0.00     0.027 H 
ATOM     81  H13 ILE d   1     -19.540   9.866   5.386  0.00  0.00     0.027 H 
ENDBRANCH  75  78
ENDBRANCH  73  75
BRANCH  73  82
ATOM     82  CG2 ILE d   1     -17.201   8.699   3.661  0.00  0.00    -0.070 C 
ATOM     83  H8  ILE d   1     -16.416   7.932   3.733  0.00  0.00     0.028 H 
ATOM     84  H9  ILE d   1     -17.174   9.336   4.557  0.00  0.00     0.028 H 
ATOM     85  H10 ILE d   1     -17.029   9.316   2.767  0.00  0.00     0.028 H 
ENDBRANCH  73  82
ENDBRANCH  67  73
ENDBRANCH  64  67
ENDBRANCH  61  63
BRANCH  61  86
ATOM     86  CB  GLN d   1     -15.600   4.298   0.619  0.00  0.00    -0.030 C 
ATOM     87  H16 GLN d   1     -15.670   4.583  -0.441  0.00  0.00     0.037 H 
ATOM     88  H17 GLN d   1     -16.561   3.877   0.950  0.00  0.00     0.037 H 
BRANCH  86  89
ATOM     89  CG  GLN d   1     -14.544   3.264   0.770  0.00  0.00     0.011 C 
ATOM     90  H18 GLN d   1     -14.591   2.860   1.792  0.00  0.00     0.047 H 
ATOM     91  H19 GLN d   1     -13.564   3.736   0.608  0.00  0.00     0.047 H 
BRANCH  89  92
ATOM     92  CD  GLN d   1     -14.699   2.120  -0.211  0.00  0.00     0.215 C 
ATOM     93  OE1 GLN d   1     -15.687   2.031  -0.960  0.00  0.00    -0.274 OA
ATOM     94  NE2 GLN d   1     -13.698   1.247  -0.233  0.00  0.00    -0.370 N 
ATOM     95  H20 GLN d   1     -13.730   0.465  -0.856  0.00  0.00     0.159 HD
ATOM     96  H21 GLN d   1     -12.912   1.372   0.373  0.00  0.00     0.159 HD
ENDBRANCH  89  92
ENDBRANCH  86  89
ENDBRANCH  61  86
ENDBRANCH  49  61
ENDBRANCH  35  47
ENDBRANCH  21  33
ENDBRANCH  16  19
ENDBRANCH  13  15
BRANCH  13  97
ATOM     97  CB  VAL d   1      -4.105   5.152  -3.124  0.00  0.00    -0.033 C 
ATOM     98  H45 VAL d   1      -3.877   4.079  -3.041  0.00  0.00     0.042 H 
BRANCH  97  99
ATOM     99  CG1 VAL d   1      -2.779   5.894  -3.233  0.00  0.00    -0.071 C 
ATOM    100  H46 VAL d   1      -2.190   5.728  -2.319  0.00  0.00     0.028 H 
ATOM    101  H47 VAL d   1      -2.970   6.970  -3.356  0.00  0.00     0.028 H 
ATOM    102  H48 VAL d   1      -2.220   5.519  -4.103  0.00  0.00     0.028 H 
ENDBRANCH  97  99
BRANCH  97 103
ATOM    103  CG2 VAL d   1      -4.905   5.571  -1.842  0.00  0.00    -0.071 C 
ATOM    104  H49 VAL d   1      -5.852   5.013  -1.802  0.00  0.00     0.028 H 
ATOM    105  H50 VAL d   1      -5.116   6.650  -1.878  0.00  0.00     0.028 H 
ATOM    106  H51 VAL d   1      -4.308   5.343  -0.947  0.00  0.00     0.028 H 
ENDBRANCH  97 103
ENDBRANCH  13  97
ENDBRANCH  10  13
ENDBRANCH   7   9
BRANCH   7 107
ATOM    107  CB  ASN d   1      -4.159   6.327  -8.850  0.00  0.00     0.036 C 
ATOM    108  H54 ASN d   1      -3.845   6.047  -9.866  0.00  0.00     0.051 H 
ATOM    109  H55 ASN d   1      -3.924   7.387  -8.673  0.00  0.00     0.051 H 
BRANCH 107 110
ATOM    110  CG  ASN d   1      -5.647   6.132  -8.729  0.00  0.00     0.217 C 
ATOM    111  OD1 ASN d   1      -6.104   4.988  -8.599  0.00  0.00    -0.274 OA
ATOM    112  ND2 ASN d   1      -6.403   7.266  -8.674  0.00  0.00    -0.370 N 
ATOM    113  H56 ASN d   1      -7.398   7.200  -8.594  0.00  0.00     0.159 HD
ATOM    114  H57 ASN d   1      -5.963   8.163  -8.714  0.00  0.00     0.159 HD
ENDBRANCH 107 110
ENDBRANCH   7 107
ENDBRANCH   4   7
ENDBRANCH   1   3
BRANCH   1 115
ATOM    115  C   ARG d   1       1.110   5.081  -8.533  0.00  0.00     0.241 C 
ATOM    116  O   ARG d   1       2.185   5.679  -8.563  0.00  0.00    -0.271 OA
ATOM    117  N   ASN d   1       0.571   4.556  -9.641  0.00  0.00    -0.346 N 
ATOM    118  H71 ASN d   1      -0.328   4.119  -9.605  0.00  0.00     0.163 HD
BRANCH 117 119
ATOM    119  CA  ASN d   1       1.301   4.626 -10.894  0.00  0.00     0.097 C 
ATOM    120  H72 ASN d   1       2.343   4.333 -10.699  0.00  0.00     0.088 H 
BRANCH 119 121
ATOM    121  C   ASN d   1       1.298   6.050 -11.434  0.00  0.00     0.241 C 
ATOM    122  O   ASN d   1       2.078   6.379 -12.317  0.00  0.00    -0.271 OA
ATOM    123  N   LEU d   1       0.457   6.907 -10.866  0.00  0.00    -0.346 N 
ATOM    124  H77 LEU d   1      -0.142   6.590 -10.131  0.00  0.00     0.163 HD
BRANCH 123 125
ATOM    125  CA  LEU d   1       0.388   8.306 -11.293  0.00  0.00     0.089 C 
ATOM    126  H78 LEU d   1       0.754   8.352 -12.329  0.00  0.00     0.087 H 
BRANCH 125 127
ATOM    127  C   LEU d   1       1.260   9.247 -10.444  0.00  0.00     0.241 C 
ATOM    128  O   LEU d   1       1.246  10.491 -10.624  0.00  0.00    -0.271 OA
ATOM    129  N   LYS d   1       2.053   8.668  -9.539  0.00  0.00    -0.346 N 
ATOM    130  H88 LYS d   1       2.118   7.671  -9.488  0.00  0.00     0.163 HD
BRANCH 129 131
ATOM    131  CA  LYS d   1       2.829   9.509  -8.619  0.00  0.00     0.089 C 
ATOM    132  H89 LYS d   1       2.145  10.245  -8.172  0.00  0.00     0.087 H 
BRANCH 131 133
ATOM    133  C   LYS d   1       3.897  10.247  -9.361  0.00  0.00     0.243 C 
ATOM    134  O   LYS d   1       4.537   9.695 -10.252  0.00  0.00    -0.271 OA
ATOM    135  N   PRO d   1       4.111  11.517  -8.996  0.00  0.00    -0.337 N 
ATOM    136  CA  PRO d   1       5.055  12.375  -9.729  0.00  0.00     0.091 C 
ATOM    137  CD  PRO d   1       3.359  12.249  -7.969  0.00  0.00    -0.001 C 
ATOM    138  CB  PRO d   1       4.666  13.779  -9.271  0.00  0.00    -0.036 C 
ATOM    139 1H10 PRO d   1       4.886  12.270 -10.811  0.00  0.00     0.087 H 
ATOM    140  CG  PRO d   1       4.049  13.558  -7.915  0.00  0.00    -0.048 C 
ATOM    141 2H10 PRO d   1       3.939  14.229  -9.963  0.00  0.00     0.036 H 
ATOM    142 3H10 PRO d   1       5.552  14.427  -9.197  0.00  0.00     0.036 H 
ATOM    143 4H10 PRO d   1       3.328  14.358  -7.692  0.00  0.00     0.035 H 
ATOM    144 5H10 PRO d   1       4.830  13.543  -7.141  0.00  0.00     0.035 H 
ATOM    145 6H10 PRO d   1       3.413  11.734  -6.998  0.00  0.00     0.064 H 
ATOM    146 7H10 PRO d   1       2.306  12.370  -8.262  0.00  0.00     0.064 H 
BRANCH 136 147
ATOM    147  C   PRO d   1       6.510  12.071  -9.456  0.00  0.00     0.241 C 
ATOM    148  O   PRO d   1       7.384  12.614 -10.144  0.00  0.00    -0.271 OA
ATOM    149  N   ASP d   1       6.804  11.234  -8.461  0.00  0.00    -0.346 N 
ATOM    150 8H10 ASP d   1       6.082  10.919  -7.845  0.00  0.00     0.163 HD
BRANCH 149 151
ATOM    151  CA  ASP d   1       8.175  10.776  -8.268  0.00  0.00     0.098 C 
ATOM    152 9H10 ASP d   1       8.842  11.579  -8.613  0.00  0.00     0.088 H 
BRANCH 151 153
ATOM    153  C   ASP d   1       8.475   9.545  -9.126  0.00  0.00     0.241 C 
ATOM    154  O   ASP d   1       9.613   9.063  -9.098  0.00  0.00    -0.271 OA
ATOM    155  N   ARG d   1       7.473   9.054  -9.888  0.00  0.00    -0.348 N 
ATOM    156 2H11 ARG d   1       6.552   9.413  -9.739  0.00  0.00     0.163 HD
BRANCH 155 157
ATOM    157  CA  ARG d   1       7.654   8.009 -10.939  0.00  0.00     0.062 C 
ATOM    158 3H11 ARG d   1       8.559   7.433 -10.695  0.00  0.00     0.083 H 
BRANCH 157 159
ATOM    159  C   ARG d   1       7.824   8.643 -12.322  0.00  0.00     0.109 C 
ATOM    160  O   ARG d   1       8.448   9.710 -12.444  0.00  0.00    -0.305 OA
ATOM    161 4H11 ARG d   1       7.398   8.158 -13.199  0.00  0.00     0.146 H 
ENDBRANCH 157 159
BRANCH 157 162
ATOM    162  CB  ARG d   1       6.461   7.047 -11.013  0.00  0.00    -0.039 C 
ATOM    163 5H11 ARG d   1       6.341   6.753 -12.066  0.00  0.00     0.036 H 
ATOM    164 6H11 ARG d   1       5.571   7.603 -10.684  0.00  0.00     0.036 H 
BRANCH 162 165
ATOM    165  CG  ARG d   1       6.526   5.780 -10.198  0.00  0.00    -0.048 C 
ATOM    166 7H11 ARG d   1       7.582   5.529 -10.021  0.00  0.00     0.035 H 
ATOM    167 8H11 ARG d   1       6.048   4.970 -10.768  0.00  0.00     0.035 H 
BRANCH 165 168
ATOM    168  CD  ARG d   1       5.839   5.905  -8.880  0.00  0.00     0.009 C 
ATOM    169 9H11 ARG d   1       5.017   6.628  -8.985  0.00  0.00     0.064 H 
ATOM    170 0H12 ARG d   1       6.566   6.281  -8.145  0.00  0.00     0.064 H 
BRANCH 168 171
ATOM    171  NE  ARG d   1       5.282   4.641  -8.375  0.00  0.00    -0.227 N 
ATOM    172  CZ  ARG d   1       5.034   4.366  -7.098  0.00  0.00     0.665 C 
ATOM    173  NH1 ARG d   1       5.331   5.275  -6.168  0.00  0.00    -0.235 N 
ATOM    174  NH2 ARG d   1       4.531   3.158  -6.720  0.00  0.00    -0.235 N 
ATOM    175 2H12 ARG d   1       5.144   5.076  -5.175  0.00  0.00     0.174 HD
ATOM    176 3H12 ARG d   1       5.747   6.176  -6.443  0.00  0.00     0.174 HD
ATOM    177 4H12 ARG d   1       4.299   2.451  -7.432  0.00  0.00     0.174 HD
ATOM    178 5H12 ARG d   1       4.382   2.951  -5.722  0.00  0.00     0.174 HD
ATOM    179 1H12 ARG d   1       5.066   3.909  -9.067  0.00  0.00     0.177 HD
ENDBRANCH 168 171
ENDBRANCH 165 168
ENDBRANCH 162 165
ENDBRANCH 157 162
ENDBRANCH 155 157
ENDBRANCH 151 153
BRANCH 151 180
ATOM    180  CB  ASP d   1       8.471  10.552  -6.784  0.00  0.00     0.043 C 
ATOM    181 0H11 ASP d   1       8.355  11.510  -6.256  0.00  0.00     0.052 H 
ATOM    182 1H11 ASP d   1       9.509  10.202  -6.684  0.00  0.00     0.052 H 
BRANCH 180 183
ATOM    183  CG  ASP d   1       7.568   9.547  -6.145  0.00  0.00     0.175 C 
ATOM    184  OD1 ASP d   1       7.840   9.237  -4.978  0.00  0.00    -0.648 OA
ATOM    185  OD2 ASP d   1       6.589   9.053  -6.778  0.00  0.00    -0.648 OA
ENDBRANCH 180 183
ENDBRANCH 151 180
ENDBRANCH 149 151
ENDBRANCH 136 147
ENDBRANCH 131 133
BRANCH 131 186
ATOM    186  CB  LYS d   1       3.453   8.685  -7.483  0.00  0.00    -0.038 C 
ATOM    187  H90 LYS d   1       4.230   9.292  -6.996  0.00  0.00     0.036 H 
ATOM    188  H91 LYS d   1       3.910   7.782  -7.915  0.00  0.00     0.036 H 
BRANCH 186 189
ATOM    189  CG  LYS d   1       2.445   8.260  -6.433  0.00  0.00    -0.061 C 
ATOM    190  H92 LYS d   1       1.615   7.750  -6.944  0.00  0.00     0.033 H 
ATOM    191  H93 LYS d   1       2.069   9.166  -5.935  0.00  0.00     0.033 H 
BRANCH 189 192
ATOM    192  CD  LYS d   1       2.985   7.328  -5.369  0.00  0.00    -0.043 C 
ATOM    193  H94 LYS d   1       3.539   6.512  -5.856  0.00  0.00     0.035 H 
ATOM    194  H95 LYS d   1       2.142   6.910  -4.800  0.00  0.00     0.035 H 
BRANCH 192 195
ATOM    195  CE  LYS d   1       3.886   8.030  -4.442  0.00  0.00     0.080 C 
ATOM    196  H96 LYS d   1       3.327   8.824  -3.925  0.00  0.00     0.075 H 
ATOM    197  H97 LYS d   1       4.715   8.476  -5.011  0.00  0.00     0.075 H 
BRANCH 195 198
ATOM    198  NZ  LYS d   1       4.418   7.120  -3.471  0.00  0.00    -0.079 N 
ATOM    199  H98 LYS d   1       5.032   7.617  -2.845  0.00  0.00     0.274 HD
ATOM    200  H99 LYS d   1       4.934   6.392  -3.940  0.00  0.00     0.274 HD
ATOM    201 0H10 LYS d   1       3.662   6.710  -2.945  0.00  0.00     0.274 HD
ENDBRANCH 195 198
ENDBRANCH 192 195
ENDBRANCH 189 192
ENDBRANCH 186 189
ENDBRANCH 131 186
ENDBRANCH 129 131
ENDBRANCH 125 127
BRANCH 125 202
ATOM    202  CB  LEU d   1      -1.049   8.809 -11.270  0.00  0.00    -0.035 C 
ATOM    203  H79 LEU d   1      -1.042   9.866 -11.573  0.00  0.00     0.037 H 
ATOM    204  H80 LEU d   1      -1.420   8.726 -10.238  0.00  0.00     0.037 H 
BRANCH 202 205
ATOM    205  CG  LEU d   1      -2.033   8.060 -12.188  0.00  0.00    -0.059 C 
ATOM    206  H81 LEU d   1      -2.135   7.031 -11.812  0.00  0.00     0.038 H 
BRANCH 205 207
ATOM    207  CD1 LEU d   1      -3.400   8.721 -12.107  0.00  0.00    -0.073 C 
ATOM    208  H82 LEU d   1      -4.105   8.188 -12.762  0.00  0.00     0.028 H 
ATOM    209  H83 LEU d   1      -3.320   9.769 -12.431  0.00  0.00     0.028 H 
ATOM    210  H84 LEU d   1      -3.764   8.684 -11.070  0.00  0.00     0.028 H 
ENDBRANCH 205 207
BRANCH 205 211
ATOM    211  CD2 LEU d   1      -1.499   7.973 -13.617  0.00  0.00    -0.073 C 
ATOM    212  H85 LEU d   1      -0.512   7.488 -13.611  0.00  0.00     0.028 H 
ATOM    213  H86 LEU d   1      -1.407   8.986 -14.036  0.00  0.00     0.028 H 
ATOM    214  H87 LEU d   1      -2.194   7.383 -14.233  0.00  0.00     0.028 H 
ENDBRANCH 205 211
ENDBRANCH 202 205
ENDBRANCH 125 202
ENDBRANCH 123 125
ENDBRANCH 119 121
BRANCH 119 215
ATOM    215  CB  ASN d   1       0.730   3.674 -11.917  0.00  0.00     0.036 C 
ATOM    216  H73 ASN d   1       1.181   3.900 -12.894  0.00  0.00     0.051 H 
ATOM    217  H74 ASN d   1      -0.357   3.831 -11.970  0.00  0.00     0.051 H 
BRANCH 215 218
ATOM    218  CG  ASN d   1       0.984   2.251 -11.601  0.00  0.00     0.217 C 
ATOM    219  OD1 ASN d   1       2.070   1.854 -11.134  0.00  0.00    -0.274 OA
ATOM    220  ND2 ASN d   1       0.025   1.433 -11.949  0.00  0.00    -0.370 N 
ATOM    221  H75 ASN d   1       0.115   0.453 -11.772  0.00  0.00     0.159 HD
ATOM    222  H76 ASN d   1      -0.798   1.788 -12.392  0.00  0.00     0.159 HD
ENDBRANCH 215 218
ENDBRANCH 119 215
ENDBRANCH 117 119
ENDBRANCH   1 115
BRANCH   1 223
ATOM    223  CB  ARG d   1       0.923   4.054  -6.227  0.00  0.00    -0.036 C 
ATOM    224  H60 ARG d   1       2.018   4.154  -6.261  0.00  0.00     0.036 H 
ATOM    225  H61 ARG d   1       0.640   3.030  -6.513  0.00  0.00     0.036 H 
BRANCH 223 226
ATOM    226  CG  ARG d   1       0.452   4.316  -4.820  0.00  0.00    -0.048 C 
ATOM    227  H62 ARG d   1      -0.618   4.068  -4.758  0.00  0.00     0.035 H 
ATOM    228  H63 ARG d   1       0.595   5.384  -4.598  0.00  0.00     0.035 H 
BRANCH 226 229
ATOM    229  CD  ARG d   1       1.210   3.487  -3.754  0.00  0.00     0.009 C 
ATOM    230  H64 ARG d   1       2.289   3.510  -3.968  0.00  0.00     0.064 H 
ATOM    231  H65 ARG d   1       0.854   2.446  -3.775  0.00  0.00     0.064 H 
BRANCH 229 232
ATOM    232  NE  ARG d   1       0.959   4.066  -2.426  0.00  0.00    -0.227 N 
ATOM    233  CZ  ARG d   1      -0.119   3.818  -1.690  0.00  0.00     0.665 C 
ATOM    234  NH1 ARG d   1      -0.275   4.460  -0.588  0.00  0.00    -0.235 N 
ATOM    235  NH2 ARG d   1      -1.069   2.961  -2.060  0.00  0.00    -0.235 N 
ATOM    236  H67 ARG d   1      -1.103   4.283  -0.002  0.00  0.00     0.174 HD
ATOM    237  H68 ARG d   1       0.428   5.151  -0.291  0.00  0.00     0.174 HD
ATOM    238  H69 ARG d   1      -0.972   2.432  -2.938  0.00  0.00     0.174 HD
ATOM    239  H70 ARG d   1      -1.901   2.827  -1.468  0.00  0.00     0.174 HD
ATOM    240  H66 ARG d   1       1.667   4.707  -2.040  0.00  0.00     0.177 HD
ENDBRANCH 229 232
ENDBRANCH 226 229
ENDBRANCH 223 226
ENDBRANCH   1 223
TORSDOF 57
