REMARK  9 active torsions:
REMARK  status: ('A' for Active; 'I' for Inactive)
REMARK    1  A    between atoms: C1_1  and  O2_2 
REMARK    2  A    between atoms: O2_2  and  C3_3 
REMARK    3  A    between atoms: C6_6  and  N7_7 
REMARK    4  A    between atoms: N7_7  and  C8_8 
REMARK    5  A    between atoms: C23_23  and  O24_24 
REMARK    6  A    between atoms: O24_24  and  C25_25 
REMARK    7  A    between atoms: C25_25  and  C26_26 
REMARK    8  A    between atoms: C26_26  and  C27_27 
REMARK    9  A    between atoms: C27_27  and  N28_28 
ROOT
ATOM      1  C3  7X1 d   1      11.650   9.565  11.160  0.00  0.00     0.102 A 
ATOM      2  C4  7X1 d   1      11.083   8.324  11.397  0.00  0.00    -0.032 A 
ATOM      3  C5  7X1 d   1      11.887   7.259  11.864  0.00  0.00     0.042 A 
ATOM      4  C6  7X1 d   1      11.379   5.964  12.157  0.00  0.00     0.142 A 
ATOM      5  N18 7X1 d   1      12.232   5.014  12.601  0.00  0.00    -0.224 NA
ATOM      6  C19 7X1 d   1      13.531   5.246  12.751  0.00  0.00     0.089 A 
ATOM      7  N20 7X1 d   1      14.054   6.431  12.477  0.00  0.00    -0.241 NA
ATOM      8  C21 7X1 d   1      13.287   7.460  12.033  0.00  0.00     0.075 A 
ATOM      9  C22 7X1 d   1      13.838   8.727  11.758  0.00  0.00    -0.019 A 
ATOM     10  C23 7X1 d   1      13.035   9.753  11.323  0.00  0.00     0.104 A 
ATOM     11  H4  7X1 d   1      10.024   8.169  11.225  0.00  0.00     0.089 H 
ATOM     12  H10 7X1 d   1      14.176   4.449  13.105  0.00  0.00     0.146 H 
ATOM     13  H11 7X1 d   1      14.901   8.893  11.890  0.00  0.00     0.091 H 
ENDROOT
BRANCH  10  14
ATOM     14  O24 7X1 d   1      13.496  10.999  11.030  0.00  0.00    -0.348 OA
BRANCH  14  15
ATOM     15  C25 7X1 d   1      14.855  11.249  11.356  0.00  0.00     0.028 C 
ATOM     16  H12 7X1 d   1      15.521  10.764  10.627  0.00  0.00     0.075 H 
ATOM     17  H13 7X1 d   1      15.083  10.877  12.366  0.00  0.00     0.075 H 
BRANCH  15  18
ATOM     18  C26 7X1 d   1      15.016  12.779  11.297  0.00  0.00    -0.022 C 
ATOM     19  H14 7X1 d   1      15.867  13.083  11.924  0.00  0.00     0.038 H 
ATOM     20  H15 7X1 d   1      14.098  13.259  11.667  0.00  0.00     0.038 H 
BRANCH  18  21
ATOM     21  C27 7X1 d   1      15.268  13.208   9.854  0.00  0.00     0.085 C 
ATOM     22  H16 7X1 d   1      14.437  12.845   9.232  0.00  0.00     0.076 H 
ATOM     23  H17 7X1 d   1      16.208  12.750   9.513  0.00  0.00     0.076 H 
BRANCH  21  24
ATOM     24  N28 7X1 d   1      15.373  14.676   9.688  0.00  0.00    -0.071 N 
ATOM     25  C29 7X1 d   1      16.736  15.162   9.991  0.00  0.00     0.084 C 
ATOM     26  C30 7X1 d   1      16.767  16.701   9.931  0.00  0.00    -0.042 C 
ATOM     27  H19 7X1 d   1      17.442  14.754   9.253  0.00  0.00     0.076 H 
ATOM     28  H20 7X1 d   1      17.026  14.830  10.999  0.00  0.00     0.076 H 
ATOM     29  C31 7X1 d   1      16.298  17.182   8.544  0.00  0.00    -0.062 C 
ATOM     30  H21 7X1 d   1      17.794  17.052  10.111  0.00  0.00     0.035 H 
ATOM     31  H22 7X1 d   1      16.099  17.110  10.704  0.00  0.00     0.035 H 
ATOM     32  C32 7X1 d   1      14.981  16.502   8.115  0.00  0.00    -0.042 C 
ATOM     33  H23 7X1 d   1      17.077  16.947   7.804  0.00  0.00     0.033 H 
ATOM     34  H24 7X1 d   1      16.142  18.270   8.579  0.00  0.00     0.033 H 
ATOM     35  C33 7X1 d   1      15.094  14.970   8.279  0.00  0.00     0.084 C 
ATOM     36  H25 7X1 d   1      14.775  16.740   7.061  0.00  0.00     0.035 H 
ATOM     37  H26 7X1 d   1      14.158  16.875   8.743  0.00  0.00     0.035 H 
ATOM     38  H27 7X1 d   1      14.149  14.493   7.980  0.00  0.00     0.076 H 
ATOM     39  H28 7X1 d   1      15.912  14.588   7.651  0.00  0.00     0.076 H 
ATOM     40  H18 7X1 d   1      14.706  15.138  10.287  0.00  0.00     0.279 HD
ENDBRANCH  21  24
ENDBRANCH  18  21
ENDBRANCH  15  18
ENDBRANCH  14  15
ENDBRANCH  10  14
BRANCH   1  41
ATOM     41  O2  7X1 d   1      10.962  10.664  10.724  0.00  0.00    -0.353 OA
BRANCH  41  42
ATOM     42  C1  7X1 d   1       9.540  10.430  10.625  0.00  0.00     0.010 C 
ATOM     43  H1  7X1 d   1       9.042  11.345  10.271  0.00  0.00     0.066 H 
ATOM     44  H2  7X1 d   1       9.144  10.156  11.614  0.00  0.00     0.066 H 
ATOM     45  H3  7X1 d   1       9.352   9.612   9.915  0.00  0.00     0.066 H 
ENDBRANCH  41  42
ENDBRANCH   1  41
BRANCH   4  46
ATOM     46  N7  7X1 d   1      10.020   5.703  11.964  0.00  0.00    -0.337 N 
ATOM     47  H5  7X1 d   1       9.449   6.420  11.494  0.00  0.00     0.168 HD
BRANCH  46  48
ATOM     48  C8  7X1 d   1       9.386   4.513  12.377  0.00  0.00     0.092 A 
ATOM     49  C9  7X1 d   1       9.271   4.240  13.720  0.00  0.00     0.133 A 
ATOM     50  O10 7X1 d   1       9.711   4.962  14.784  0.00  0.00    -0.321 OA
ATOM     51  C13 7X1 d   1       8.613   3.078  14.141  0.00  0.00     0.107 A 
ATOM     52  C11 7X1 d   1       9.506   4.100  15.915  0.00  0.00     0.115 C 
ATOM     53  O12 7X1 d   1       8.634   3.050  15.480  0.00  0.00    -0.323 OA
ATOM     54  H6  7X1 d   1       9.042   4.661  16.740  0.00  0.00     0.118 H 
ATOM     55  H7  7X1 d   1      10.466   3.681  16.251  0.00  0.00     0.118 H 
ATOM     56  C14 7X1 d   1       8.079   2.166  13.239  0.00  0.00    -0.046 A 
ATOM     57  C15 7X1 d   1       8.214   2.431  11.883  0.00  0.00    -0.057 A 
ATOM     58  H8  7X1 d   1       7.571   1.273  13.584  0.00  0.00     0.087 H 
ATOM     59  C16 7X1 d   1       8.846   3.608  11.470  0.00  0.00     0.063 A 
ATOM     60  H9  7X1 d   1       7.832   1.730  11.149  0.00  0.00     0.086 H 
ATOM     61 CL1  7X1 d   1       9.024   3.933   9.783  0.00  0.00    -0.082 Cl
ENDBRANCH  46  48
ENDBRANCH   4  46
TORSDOF 9
