REMARK  10 active torsions:
REMARK  status: ('A' for Active; 'I' for Inactive)
REMARK    1  A    between atoms: C1_1  and  O2_2 
REMARK    2  A    between atoms: O2_2  and  C3_3 
REMARK    3  A    between atoms: C5_5  and  N6_6 
REMARK    4  A    between atoms: N6_6  and  C7_7 
REMARK    5  A    between atoms: C11_11  and  N12_12 
REMARK    6  A    between atoms: N12_12  and  C13_13 
REMARK    7  A    between atoms: C25_25  and  O26_26 
REMARK    8  A    between atoms: O26_26  and  C27_27 
REMARK    9  A    between atoms: C28_28  and  O29_29 
REMARK   10  A    between atoms: O29_29  and  C30_30 
ROOT
ATOM      1  N6  7X2 d   1      13.967   7.103  11.600  0.00  0.00    -0.188 N 
ATOM      2  H5  7X2 d   1      14.962   7.132  11.865  0.00  0.00     0.184 HD
ENDROOT
BRANCH   1   3
ATOM      3  C5  7X2 d   1      13.457   8.259  11.025  0.00  0.00     0.054 A 
ATOM      4  C4  7X2 d   1      14.240   9.425  11.045  0.00  0.00    -0.022 A 
ATOM      5  C3  7X2 d   1      13.744  10.586  10.478  0.00  0.00     0.106 A 
ATOM      6  H4  7X2 d   1      15.224   9.416  11.500  0.00  0.00     0.091 H 
ATOM      7  C28 7X2 d   1      12.482  10.549   9.874  0.00  0.00     0.135 A 
ATOM      8  C25 7X2 d   1      11.721   9.366   9.837  0.00  0.00     0.106 A 
ATOM      9  C24 7X2 d   1      12.219   8.222  10.417  0.00  0.00    -0.022 A 
ATOM     10  H13 7X2 d   1      11.645   7.302  10.396  0.00  0.00     0.091 H 
BRANCH   5  11
ATOM     11  O2  7X2 d   1      14.416  11.771  10.430  0.00  0.00    -0.353 OA
BRANCH  11  12
ATOM     12  C1  7X2 d   1      15.695  11.776  11.060  0.00  0.00     0.010 C 
ATOM     13  H1  7X2 d   1      16.147  12.774  10.963  0.00  0.00     0.066 H 
ATOM     14  H2  7X2 d   1      16.344  11.031  10.577  0.00  0.00     0.066 H 
ATOM     15  H3  7X2 d   1      15.580  11.527  12.125  0.00  0.00     0.066 H 
ENDBRANCH  11  12
ENDBRANCH   5  11
BRANCH   7  16
ATOM     16  O29 7X2 d   1      12.033  11.706   9.310  0.00  0.00    -0.351 OA
BRANCH  16  17
ATOM     17  C30 7X2 d   1      10.832  12.075   9.984  0.00  0.00     0.011 C 
ATOM     18  H17 7X2 d   1      10.441  13.008   9.552  0.00  0.00     0.067 H 
ATOM     19  H18 7X2 d   1      11.043  12.226  11.053  0.00  0.00     0.067 H 
ATOM     20  H19 7X2 d   1      10.085  11.276   9.867  0.00  0.00     0.067 H 
ENDBRANCH  16  17
ENDBRANCH   7  16
BRANCH   8  21
ATOM     21  O26 7X2 d   1      10.480   9.314   9.251  0.00  0.00    -0.353 OA
BRANCH  21  22
ATOM     22  C27 7X2 d   1      10.499   8.513   8.078  0.00  0.00     0.010 C 
ATOM     23  H14 7X2 d   1       9.493   8.491   7.633  0.00  0.00     0.066 H 
ATOM     24  H15 7X2 d   1      10.807   7.490   8.338  0.00  0.00     0.066 H 
ATOM     25  H16 7X2 d   1      11.211   8.938   7.355  0.00  0.00     0.066 H 
ENDBRANCH  21  22
ENDBRANCH   8  21
ENDBRANCH   1   3
BRANCH   1  26
ATOM     26  C7  7X2 d   1      13.306   5.920  11.861  0.00  0.00     0.728 A 
ATOM     27  N8  7X2 d   1      14.065   4.904  12.279  0.00  0.00    -0.075 NA
ATOM     28  C9  7X2 d   1      13.558   3.725  12.596  0.00  0.00     0.025 A 
ATOM     29  C10 7X2 d   1      12.209   3.554  12.452  0.00  0.00    -0.021 A 
ATOM     30  H6  7X2 d   1      14.190   2.922  12.957  0.00  0.00     0.115 H 
ATOM     31  C11 7X2 d   1      11.400   4.626  12.003  0.00  0.00     0.148 A 
ATOM     32  H7  7X2 d   1      11.758   2.596  12.682  0.00  0.00     0.091 H 
ATOM     33  N23 7X2 d   1      11.986   5.799  11.729  0.00  0.00    -0.045 NA
BRANCH  31  34
ATOM     34  N12 7X2 d   1      10.015   4.478  11.849  0.00  0.00    -0.337 N 
ATOM     35  H8  7X2 d   1       9.476   5.252  11.435  0.00  0.00     0.167 HD
BRANCH  34  36
ATOM     36  C13 7X2 d   1       9.331   3.305  12.241  0.00  0.00     0.092 A 
ATOM     37  C14 7X2 d   1       9.241   2.939  13.595  0.00  0.00     0.133 A 
ATOM     38  O15 7X2 d   1       9.716   3.571  14.710  0.00  0.00    -0.321 OA
ATOM     39  C18 7X2 d   1       8.580   1.767  13.977  0.00  0.00     0.107 A 
ATOM     40  C16 7X2 d   1       9.672   2.569  15.746  0.00  0.00     0.115 C 
ATOM     41  O17 7X2 d   1       8.624   1.657  15.349  0.00  0.00    -0.323 OA
ATOM     42  H9  7X2 d   1       9.435   3.029  16.717  0.00  0.00     0.118 H 
ATOM     43  H10 7X2 d   1      10.636   2.043  15.814  0.00  0.00     0.118 H 
ATOM     44  C19 7X2 d   1       8.000   0.939  13.014  0.00  0.00    -0.046 A 
ATOM     45  C20 7X2 d   1       8.110   1.287  11.655  0.00  0.00    -0.057 A 
ATOM     46  H11 7X2 d   1       7.472   0.040  13.309  0.00  0.00     0.087 H 
ATOM     47  C21 7X2 d   1       8.748   2.468  11.282  0.00  0.00     0.063 A 
ATOM     48  H12 7X2 d   1       7.697   0.633  10.895  0.00  0.00     0.086 H 
ATOM     49 CL1  7X2 d   1       8.873   2.907   9.613  0.00  0.00    -0.082 Cl
ENDBRANCH  34  36
ENDBRANCH  31  34
ENDBRANCH   1  26
TORSDOF 10
