REMARK  6 active torsions:
REMARK  status: ('A' for Active; 'I' for Inactive)
REMARK    1  A    between atoms: N10_27  and  C11_1 
REMARK    2  A    between atoms: C15_5  and  N16_6 
REMARK    3  A    between atoms: N16_6  and  C17_7 
REMARK    4  A    between atoms: S2_19  and  N1_18 
REMARK    5  A    between atoms: C5_22  and  S2_19 
REMARK    6  A    between atoms: C9_26  and  N10_27 
ROOT
ATOM      1  C11 7X4 d   1      12.997   6.302  11.775  0.00  0.00     0.728 A 
ATOM      2  N12 7X4 d   1      13.770   5.289  12.141  0.00  0.00    -0.075 NA
ATOM      3  C13 7X4 d   1      13.294   4.069  12.465  0.00  0.00     0.025 A 
ATOM      4  C14 7X4 d   1      11.939   3.891  12.376  0.00  0.00    -0.021 A 
ATOM      5  C15 7X4 d   1      11.114   4.974  11.983  0.00  0.00     0.148 A 
ATOM      6  N27 7X4 d   1      11.662   6.165  11.700  0.00  0.00    -0.045 NA
ATOM      7  H1  7X4 d   1      13.953   3.268  12.781  0.00  0.00     0.115 H 
ATOM      8  H2  7X4 d   1      11.500   2.927  12.605  0.00  0.00     0.091 H 
ENDROOT
BRANCH   1   9
ATOM      9  N10 7X4 d   1      13.684   7.478  11.475  0.00  0.00    -0.188 N 
ATOM     10  H13 7X4 d   1      14.708   7.407  11.390  0.00  0.00     0.184 HD
BRANCH   9  11
ATOM     11  C9  7X4 d   1      13.124   8.740  11.279  0.00  0.00     0.050 A 
ATOM     12  C8  7X4 d   1      11.751   8.950  11.161  0.00  0.00    -0.057 A 
ATOM     13  C7  7X4 d   1      11.272  10.247  10.978  0.00  0.00    -0.079 A 
ATOM     14  H12 7X4 d   1      11.063   8.114  11.211  0.00  0.00     0.086 H 
ATOM     15  C6  7X4 d   1      12.158  11.312  10.929  0.00  0.00    -0.060 A 
ATOM     16  H11 7X4 d   1      10.207  10.422  10.874  0.00  0.00     0.083 H 
ATOM     17  C5  7X4 d   1      13.524  11.096  11.040  0.00  0.00     0.081 A 
ATOM     18  H10 7X4 d   1      11.781  12.320  10.803  0.00  0.00     0.085 H 
ATOM     19  C28 7X4 d   1      14.012   9.825  11.227  0.00  0.00    -0.034 A 
ATOM     20  H14 7X4 d   1      15.078   9.662  11.334  0.00  0.00     0.089 H 
BRANCH  17  21
ATOM     21  S2  7X4 d   1      14.683  12.416  10.987  0.00  0.00     0.256 S 
ATOM     22  O3  7X4 d   1      15.606  12.157  12.049  0.00  0.00    -0.201 OA
ATOM     23  O4  7X4 d   1      13.932  13.646  10.973  0.00  0.00    -0.201 OA
BRANCH  21  24
ATOM     24  N1  7X4 d   1      15.519  12.248   9.574  0.00  0.00    -0.324 N 
ATOM     25  H8  7X4 d   1      16.093  11.443   9.425  0.00  0.00     0.169 HD
ATOM     26  H9  7X4 d   1      15.452  12.952   8.867  0.00  0.00     0.169 HD
ENDBRANCH  21  24
ENDBRANCH  17  21
ENDBRANCH   9  11
ENDBRANCH   1   9
BRANCH   5  27
ATOM     27  N16 7X4 d   1       9.727   4.812  11.907  0.00  0.00    -0.337 N 
ATOM     28  H3  7X4 d   1       9.157   5.600  11.568  0.00  0.00     0.167 HD
BRANCH  27  29
ATOM     29  C17 7X4 d   1       9.077   3.620  12.274  0.00  0.00     0.092 A 
ATOM     30  C18 7X4 d   1       9.051   3.202  13.612  0.00  0.00     0.133 A 
ATOM     31  O19 7X4 d   1       9.594   3.820  14.713  0.00  0.00    -0.321 OA
ATOM     32  C22 7X4 d   1       8.403   2.017  13.974  0.00  0.00     0.107 A 
ATOM     33  C20 7X4 d   1       9.591   2.789  15.733  0.00  0.00     0.115 C 
ATOM     34  O21 7X4 d   1       8.522   1.873  15.320  0.00  0.00    -0.323 OA
ATOM     35  H4  7X4 d   1       9.374   3.220  16.722  0.00  0.00     0.118 H 
ATOM     36  H5  7X4 d   1      10.560   2.269  15.764  0.00  0.00     0.118 H 
ATOM     37  C23 7X4 d   1       7.765   1.203  13.027  0.00  0.00    -0.046 A 
ATOM     38  C24 7X4 d   1       7.844   1.647  11.693  0.00  0.00    -0.057 A 
ATOM     39  H6  7X4 d   1       7.246   0.293  13.303  0.00  0.00     0.087 H 
ATOM     40  C25 7X4 d   1       8.475   2.840  11.301  0.00  0.00     0.063 A 
ATOM     41  H7  7X4 d   1       7.391   1.032  10.923  0.00  0.00     0.086 H 
ATOM     42 CL2  7X4 d   1       8.548   3.374   9.620  0.00  0.00    -0.082 Cl
ENDBRANCH  27  29
ENDBRANCH   5  27
TORSDOF 6
