REMARK  6 active torsions:
REMARK  status: ('A' for Active; 'I' for Inactive)
REMARK    1  A    between atoms: N1_1  and  C7_2 
REMARK    2  A    between atoms: C6_27  and  N1_1 
REMARK    3  A    between atoms: C10_6  and  N3_7 
REMARK    4  A    between atoms: N3_7  and  C11_8 
REMARK    5  A    between atoms: S1_20  and  C1_19 
REMARK    6  A    between atoms: C2_23  and  S1_20 
ROOT
ATOM      1  C7  7X5 d   1      13.119   6.301  11.833  0.00  0.00     0.728 A 
ATOM      2  N2  7X5 d   1      13.987   5.359  12.237  0.00  0.00    -0.075 NA
ATOM      3  C8  7X5 d   1      13.483   4.158  12.542  0.00  0.00     0.025 A 
ATOM      4  C9  7X5 d   1      12.148   3.886  12.454  0.00  0.00    -0.021 A 
ATOM      5  C10 7X5 d   1      11.322   4.919  12.026  0.00  0.00     0.148 A 
ATOM      6  N4  7X5 d   1      11.791   6.128  11.717  0.00  0.00    -0.045 NA
ATOM      7  H2  7X5 d   1      14.157   3.375  12.870  0.00  0.00     0.115 H 
ATOM      8  H3  7X5 d   1      11.751   2.910  12.706  0.00  0.00     0.091 H 
ENDROOT
BRANCH   1   9
ATOM      9  N1  7X5 d   1      13.770   7.511  11.522  0.00  0.00    -0.188 N 
ATOM     10  H1  7X5 d   1      14.788   7.576  11.665  0.00  0.00     0.184 HD
BRANCH   9  11
ATOM     11  C6  7X5 d   1      13.079   8.644  11.020  0.00  0.00     0.050 A 
ATOM     12  C5  7X5 d   1      13.786   9.822  10.914  0.00  0.00    -0.057 A 
ATOM     13  C4  7X5 d   1      13.187  10.967  10.436  0.00  0.00    -0.079 A 
ATOM     14  H14 7X5 d   1      14.828   9.848  11.211  0.00  0.00     0.086 H 
ATOM     15  C3  7X5 d   1      11.864  10.959  10.054  0.00  0.00    -0.062 A 
ATOM     16  H13 7X5 d   1      13.762  11.883  10.360  0.00  0.00     0.083 H 
ATOM     17  C2  7X5 d   1      11.145   9.789  10.152  0.00  0.00     0.061 A 
ATOM     18  H12 7X5 d   1      11.395  11.862   9.681  0.00  0.00     0.085 H 
ATOM     19  C18 7X5 d   1      11.745   8.636  10.632  0.00  0.00    -0.036 A 
ATOM     20  H15 7X5 d   1      11.169   7.721  10.705  0.00  0.00     0.089 H 
BRANCH  17  21
ATOM     21  S1  7X5 d   1       9.432   9.817   9.641  0.00  0.00     0.172 S 
ATOM     22  O1  7X5 d   1       9.117  11.151   9.176  0.00  0.00    -0.223 OA
ATOM     23  O2  7X5 d   1       8.574   9.134  10.589  0.00  0.00    -0.223 OA
BRANCH  21  24
ATOM     24  C1  7X5 d   1       9.479   8.826   8.173  0.00  0.00     0.020 C 
ATOM     25  H9  7X5 d   1      10.123   9.311   7.424  0.00  0.00     0.049 H 
ATOM     26  H10 7X5 d   1       8.461   8.721   7.769  0.00  0.00     0.049 H 
ATOM     27  H11 7X5 d   1       9.882   7.832   8.415  0.00  0.00     0.049 H 
ENDBRANCH  21  24
ENDBRANCH  17  21
ENDBRANCH   9  11
ENDBRANCH   1   9
BRANCH   5  28
ATOM     28  N3  7X5 d   1       9.922   4.717  11.911  0.00  0.00    -0.337 N 
ATOM     29  H4  7X5 d   1       9.350   5.487  11.536  0.00  0.00     0.167 HD
BRANCH  28  30
ATOM     30  C11 7X5 d   1       9.272   3.532  12.278  0.00  0.00     0.092 A 
ATOM     31  C12 7X5 d   1       9.193   3.118  13.594  0.00  0.00     0.133 A 
ATOM     32  O3  7X5 d   1       9.750   3.785  14.663  0.00  0.00    -0.321 OA
ATOM     33  C14 7X5 d   1       8.542   1.986  13.967  0.00  0.00     0.107 A 
ATOM     34  C13 7X5 d   1       9.558   2.795  15.696  0.00  0.00     0.115 C 
ATOM     35  O4  7X5 d   1       8.597   1.773  15.327  0.00  0.00    -0.323 OA
ATOM     36  H5  7X5 d   1       9.201   3.301  16.605  0.00  0.00     0.118 H 
ATOM     37  H6  7X5 d   1      10.524   2.311  15.902  0.00  0.00     0.118 H 
ATOM     38  C15 7X5 d   1       7.934   1.167  13.046  0.00  0.00    -0.046 A 
ATOM     39  C16 7X5 d   1       8.008   1.555  11.722  0.00  0.00    -0.057 A 
ATOM     40  H7  7X5 d   1       7.421   0.260  13.344  0.00  0.00     0.087 H 
ATOM     41  C17 7X5 d   1       8.655   2.721  11.342  0.00  0.00     0.063 A 
ATOM     42  H8  7X5 d   1       7.549   0.933  10.962  0.00  0.00     0.086 H 
ATOM     43 CL1  7X5 d   1       8.718   3.182   9.676  0.00  0.00    -0.082 Cl
ENDBRANCH  28  30
ENDBRANCH   5  28
TORSDOF 6
