REMARK  7 active torsions:
REMARK  status: ('A' for Active; 'I' for Inactive)
REMARK    1  A    between atoms: N2_1  and  C7_2 
REMARK    2  A    between atoms: C6_28  and  N2_1 
REMARK    3  A    between atoms: C10_6  and  N4_7 
REMARK    4  A    between atoms: N4_7  and  C11_8 
REMARK    5  A    between atoms: S1_20  and  C1_19 
REMARK    6  A    between atoms: N1_23  and  S1_20 
REMARK    7  A    between atoms: C2_24  and  N1_23 
ROOT
ATOM      1  C7  7X6 d   1      13.009   6.249  11.895  0.00  0.00     0.728 A 
ATOM      2  N3  7X6 d   1      13.896   5.280  12.185  0.00  0.00    -0.075 NA
ATOM      3  C8  7X6 d   1      13.382   4.062  12.454  0.00  0.00     0.025 A 
ATOM      4  C9  7X6 d   1      12.016   3.861  12.404  0.00  0.00    -0.021 A 
ATOM      5  C10 7X6 d   1      11.192   4.924  12.071  0.00  0.00     0.148 A 
ATOM      6  N5  7X6 d   1      11.683   6.127  11.828  0.00  0.00    -0.045 NA
ATOM      7  H2  7X6 d   1      14.041   3.240  12.710  0.00  0.00     0.115 H 
ATOM      8  H3  7X6 d   1      11.595   2.886  12.622  0.00  0.00     0.091 H 
ENDROOT
BRANCH   1   9
ATOM      9  N2  7X6 d   1      13.644   7.454  11.617  0.00  0.00    -0.188 N 
ATOM     10  H1  7X6 d   1      14.666   7.482  11.738  0.00  0.00     0.184 HD
BRANCH   9  11
ATOM     11  C6  7X6 d   1      13.019   8.639  11.186  0.00  0.00     0.051 A 
ATOM     12  C5  7X6 d   1      13.879   9.727  11.037  0.00  0.00    -0.057 A 
ATOM     13  C4  7X6 d   1      13.379  10.938  10.619  0.00  0.00    -0.079 A 
ATOM     14  H15 7X6 d   1      14.936   9.618  11.250  0.00  0.00     0.086 H 
ATOM     15  C3  7X6 d   1      12.032  11.076  10.362  0.00  0.00    -0.057 A 
ATOM     16  H14 7X6 d   1      14.044  11.784  10.492  0.00  0.00     0.083 H 
ATOM     17  C2  7X6 d   1      11.183   9.994  10.502  0.00  0.00     0.044 A 
ATOM     18  H13 7X6 d   1      11.637  12.036  10.049  0.00  0.00     0.086 H 
ATOM     19  C18 7X6 d   1      11.665   8.759  10.931  0.00  0.00    -0.030 A 
ATOM     20  H16 7X6 d   1      10.997   7.915  11.061  0.00  0.00     0.090 H 
BRANCH  17  21
ATOM     21  N1  7X6 d   1       9.805  10.268  10.203  0.00  0.00    -0.285 N 
ATOM     22  H12 7X6 d   1       9.470  11.207  10.285  0.00  0.00     0.178 HD
BRANCH  21  23
ATOM     23  S1  7X6 d   1       8.714   9.038   9.710  0.00  0.00     0.227 S 
ATOM     24  O1  7X6 d   1       8.609   7.862  10.564  0.00  0.00    -0.206 OA
ATOM     25  O2  7X6 d   1       7.506   9.772   9.345  0.00  0.00    -0.206 OA
BRANCH  23  26
ATOM     26  C1  7X6 d   1       9.428   8.437   8.198  0.00  0.00     0.033 C 
ATOM     27  H9  7X6 d   1      10.346   7.874   8.424  0.00  0.00     0.051 H 
ATOM     28  H10 7X6 d   1       9.671   9.287   7.544  0.00  0.00     0.051 H 
ATOM     29  H11 7X6 d   1       8.709   7.777   7.690  0.00  0.00     0.051 H 
ENDBRANCH  23  26
ENDBRANCH  21  23
ENDBRANCH  17  21
ENDBRANCH   9  11
ENDBRANCH   1   9
BRANCH   5  30
ATOM     30  N4  7X6 d   1       9.794   4.793  12.002  0.00  0.00    -0.337 N 
ATOM     31  H4  7X6 d   1       9.232   5.610  11.725  0.00  0.00     0.167 HD
BRANCH  30  32
ATOM     32  C11 7X6 d   1       9.130   3.577  12.300  0.00  0.00     0.092 A 
ATOM     33  C12 7X6 d   1       9.056   3.101  13.597  0.00  0.00     0.133 A 
ATOM     34  O3  7X6 d   1       9.626   3.726  14.694  0.00  0.00    -0.321 OA
ATOM     35  C14 7X6 d   1       8.397   1.948  13.937  0.00  0.00     0.107 A 
ATOM     36  C13 7X6 d   1       9.408   2.706  15.711  0.00  0.00     0.115 C 
ATOM     37  O4  7X6 d   1       8.461   1.700  15.285  0.00  0.00    -0.323 OA
ATOM     38  H5  7X6 d   1       9.024   3.190  16.621  0.00  0.00     0.118 H 
ATOM     39  H6  7X6 d   1      10.368   2.217  15.933  0.00  0.00     0.118 H 
ATOM     40  C15 7X6 d   1       7.779   1.156  13.003  0.00  0.00    -0.046 A 
ATOM     41  C16 7X6 d   1       7.852   1.609  11.682  0.00  0.00    -0.057 A 
ATOM     42  H7  7X6 d   1       7.267   0.239  13.271  0.00  0.00     0.087 H 
ATOM     43  C17 7X6 d   1       8.503   2.803  11.330  0.00  0.00     0.063 A 
ATOM     44  H8  7X6 d   1       7.389   1.017  10.901  0.00  0.00     0.086 H 
ATOM     45 CL1  7X6 d   1       8.559   3.352   9.657  0.00  0.00    -0.082 Cl
ENDBRANCH  30  32
ENDBRANCH   5  30
TORSDOF 7
