REMARK  5 active torsions:
REMARK  status: ('A' for Active; 'I' for Inactive)
REMARK    1  A    between atoms: C7_10  and  N1_11 
REMARK    2  A    between atoms: N1_11  and  C8_12 
REMARK    3  A    between atoms: C11_16  and  N3_17 
REMARK    4  A    between atoms: N3_17  and  C12_18 
REMARK    5  A    between atoms: C16_22  and  N4_24 
ROOT
ATOM      1  N3  7X7 d   1      13.766   7.489  11.521  0.00  0.00    -0.188 N 
ATOM      2  H8  7X7 d   1      14.794   7.457  11.458  0.00  0.00     0.184 HD
ENDROOT
BRANCH   1   3
ATOM      3  C11 7X7 d   1      13.106   6.277  11.850  0.00  0.00     0.728 A 
ATOM      4  N2  7X7 d   1      13.928   5.310  12.262  0.00  0.00    -0.075 NA
ATOM      5  C10 7X7 d   1      13.396   4.133  12.590  0.00  0.00     0.025 A 
ATOM      6  C9  7X7 d   1      12.064   3.891  12.491  0.00  0.00    -0.021 A 
ATOM      7  H7  7X7 d   1      14.048   3.344  12.947  0.00  0.00     0.115 H 
ATOM      8  C8  7X7 d   1      11.278   4.953  12.047  0.00  0.00     0.148 A 
ATOM      9  H6  7X7 d   1      11.636   2.927  12.743  0.00  0.00     0.091 H 
ATOM     10  N5  7X7 d   1      11.773   6.155  11.735  0.00  0.00    -0.045 NA
BRANCH   8  11
ATOM     11  N1  7X7 d   1       9.888   4.777  11.923  0.00  0.00    -0.337 N 
ATOM     12  H5  7X7 d   1       9.319   5.572  11.600  0.00  0.00     0.167 HD
BRANCH  11  13
ATOM     13  C7  7X7 d   1       9.241   3.570  12.219  0.00  0.00     0.092 A 
ATOM     14  C1  7X7 d   1       8.684   2.747  11.253  0.00  0.00     0.063 A 
ATOM     15 CL1  7X7 d   1       8.782   3.242   9.594  0.00  0.00    -0.082 Cl
ATOM     16  C2  7X7 d   1       8.045   1.554  11.594  0.00  0.00    -0.057 A 
ATOM     17  C3  7X7 d   1       7.956   1.152  12.927  0.00  0.00    -0.046 A 
ATOM     18  H1  7X7 d   1       7.614   0.934  10.816  0.00  0.00     0.086 H 
ATOM     19  C4  7X7 d   1       8.542   1.974  13.868  0.00  0.00     0.107 A 
ATOM     20  H2  7X7 d   1       7.450   0.236  13.210  0.00  0.00     0.087 H 
ATOM     21  O1  7X7 d   1       8.597   1.785  15.223  0.00  0.00    -0.323 OA
ATOM     22  C6  7X7 d   1       9.157   3.144  13.523  0.00  0.00     0.133 A 
ATOM     23  C5  7X7 d   1       9.399   2.898  15.652  0.00  0.00     0.115 A 
ATOM     24  O2  7X7 d   1       9.693   3.815  14.590  0.00  0.00    -0.321 OA
ATOM     25  H3  7X7 d   1      10.347   2.513  16.056  0.00  0.00     0.118 H 
ATOM     26  H4  7X7 d   1       8.856   3.438  16.442  0.00  0.00     0.118 H 
ENDBRANCH  11  13
ENDBRANCH   8  11
ENDBRANCH   1   3
BRANCH   1  27
ATOM     27  C12 7X7 d   1      13.155   8.725  11.273  0.00  0.00     0.051 A 
ATOM     28  C13 7X7 d   1      11.793   8.901  11.309  0.00  0.00    -0.057 A 
ATOM     29  C14 7X7 d   1      11.244  10.151  11.074  0.00  0.00    -0.079 A 
ATOM     30  H9  7X7 d   1      11.145   8.058  11.522  0.00  0.00     0.086 H 
ATOM     31  C15 7X7 d   1      12.062  11.218  10.796  0.00  0.00    -0.062 A 
ATOM     32  H10 7X7 d   1      10.169  10.287  11.110  0.00  0.00     0.083 H 
ATOM     33  C16 7X7 d   1      13.429  11.054  10.750  0.00  0.00     0.012 A 
ATOM     34  H11 7X7 d   1      11.630  12.195  10.612  0.00  0.00     0.086 H 
ATOM     35  C17 7X7 d   1      13.958   9.809  10.998  0.00  0.00    -0.036 A 
ATOM     36  H12 7X7 d   1      15.034   9.678  10.976  0.00  0.00     0.089 H 
BRANCH  33  37
ATOM     37  N4  7X7 d   1      14.240  12.177  10.466  0.00  0.00    -0.279 NA
ATOM     38  C18 7X7 d   1      15.636  11.928  10.213  0.00  0.00     0.003 C 
ATOM     39  C19 7X7 d   1      16.355  13.280  10.127  0.00  0.00     0.031 C 
ATOM     40  H13 7X7 d   1      15.751  11.384   9.264  0.00  0.00     0.059 H 
ATOM     41  H14 7X7 d   1      16.062  11.331  11.033  0.00  0.00     0.059 H 
ATOM     42  O3  7X7 d   1      15.743  14.122   9.144  0.00  0.00    -0.389 OA
ATOM     43  H15 7X7 d   1      17.407  13.112   9.853  0.00  0.00     0.076 H 
ATOM     44  H16 7X7 d   1      16.307  13.777  11.107  0.00  0.00     0.076 H 
ATOM     45  C20 7X7 d   1      14.395  14.389   9.544  0.00  0.00     0.031 C 
ATOM     46  C21 7X7 d   1      13.626  13.068   9.476  0.00  0.00     0.003 C 
ATOM     47  H17 7X7 d   1      13.940  15.124   8.864  0.00  0.00     0.076 H 
ATOM     48  H18 7X7 d   1      14.379  14.781  10.572  0.00  0.00     0.076 H 
ATOM     49  H19 7X7 d   1      12.566  13.233   9.719  0.00  0.00     0.059 H 
ATOM     50  H20 7X7 d   1      13.708  12.632   8.470  0.00  0.00     0.059 H 
ENDBRANCH  33  37
ENDBRANCH   1  27
TORSDOF 5
