REMARK  5 active torsions:
REMARK  status: ('A' for Active; 'I' for Inactive)
REMARK    1  A    between atoms: N2_1  and  C7_2 
REMARK    2  A    between atoms: C6_26  and  N2_1 
REMARK    3  A    between atoms: C10_6  and  N4_7 
REMARK    4  A    between atoms: N4_7  and  C11_8 
REMARK       I    between atoms: C1_20  and  N1_19 
REMARK    5  A    between atoms: C2_22  and  C1_20 
ROOT
ATOM      1  C7  7X8 d   1      13.060   6.224  11.845  0.00  0.00     0.728 A 
ATOM      2  N3  7X8 d   1      13.938   5.274  12.193  0.00  0.00    -0.075 NA
ATOM      3  C8  7X8 d   1      13.441   4.061  12.482  0.00  0.00     0.025 A 
ATOM      4  C9  7X8 d   1      12.094   3.787  12.429  0.00  0.00    -0.021 A 
ATOM      5  C10 7X8 d   1      11.263   4.839  12.052  0.00  0.00     0.148 A 
ATOM      6  N5  7X8 d   1      11.738   6.049  11.764  0.00  0.00    -0.045 NA
ATOM      7  H2  7X8 d   1      14.125   3.270  12.767  0.00  0.00     0.115 H 
ATOM      8  H3  7X8 d   1      11.701   2.805  12.668  0.00  0.00     0.091 H 
ENDROOT
BRANCH   1   9
ATOM      9  N2  7X8 d   1      13.707   7.444  11.536  0.00  0.00    -0.188 N 
ATOM     10  H1  7X8 d   1      14.733   7.465  11.629  0.00  0.00     0.184 HD
BRANCH   9  11
ATOM     11  C6  7X8 d   1      13.077   8.637  11.111  0.00  0.00     0.050 A 
ATOM     12  C5  7X8 d   1      13.853   9.784  11.013  0.00  0.00    -0.057 A 
ATOM     13  C4  7X8 d   1      13.310  10.982  10.608  0.00  0.00    -0.080 A 
ATOM     14  H13 7X8 d   1      14.907   9.735  11.260  0.00  0.00     0.086 H 
ATOM     15  C3  7X8 d   1      11.968  11.043  10.302  0.00  0.00    -0.068 A 
ATOM     16  H12 7X8 d   1      13.931  11.867  10.531  0.00  0.00     0.083 H 
ATOM     17  C2  7X8 d   1      11.197   9.905  10.405  0.00  0.00     0.034 A 
ATOM     18  H11 7X8 d   1      11.522  11.978   9.983  0.00  0.00     0.085 H 
ATOM     19  C18 7X8 d   1      11.735   8.692  10.816  0.00  0.00    -0.041 A 
ATOM     20  H14 7X8 d   1      11.111   7.809  10.902  0.00  0.00     0.088 H 
BRANCH  17  21
ATOM     21  C1  7X8 d   1       9.762   9.973  10.094  0.00  0.00     0.249 C 
ATOM     22  N1  7X8 d   1       9.438  10.628   8.926  0.00  0.00    -0.366 N 
ATOM     23  H9  7X8 d   1      10.160  11.018   8.354  0.00  0.00     0.159 HD
ATOM     24  H10 7X8 d   1       8.481  10.714   8.650  0.00  0.00     0.159 HD
ATOM     25  O1  7X8 d   1       8.956   9.462  10.863  0.00  0.00    -0.268 OA
ENDBRANCH  17  21
ENDBRANCH   9  11
ENDBRANCH   1   9
BRANCH   5  26
ATOM     26  N4  7X8 d   1       9.877   4.663  11.963  0.00  0.00    -0.337 N 
ATOM     27  H4  7X8 d   1       9.305   5.449  11.622  0.00  0.00     0.167 HD
BRANCH  26  28
ATOM     28  C11 7X8 d   1       9.229   3.473  12.314  0.00  0.00     0.092 A 
ATOM     29  C12 7X8 d   1       9.162   3.061  13.633  0.00  0.00     0.133 A 
ATOM     30  O2  7X8 d   1       9.733   3.718  14.707  0.00  0.00    -0.321 OA
ATOM     31  C14 7X8 d   1       8.508   1.916  13.997  0.00  0.00     0.107 A 
ATOM     32  C13 7X8 d   1       9.608   2.680  15.689  0.00  0.00     0.115 C 
ATOM     33  O3  7X8 d   1       8.588   1.708  15.352  0.00  0.00    -0.323 OA
ATOM     34  H5  7X8 d   1       9.350   3.139  16.655  0.00  0.00     0.118 H 
ATOM     35  H6  7X8 d   1      10.574   2.160  15.776  0.00  0.00     0.118 H 
ATOM     36  C15 7X8 d   1       7.892   1.102  13.077  0.00  0.00    -0.046 A 
ATOM     37  C16 7X8 d   1       7.974   1.500  11.749  0.00  0.00    -0.057 A 
ATOM     38  H7  7X8 d   1       7.370   0.199  13.372  0.00  0.00     0.087 H 
ATOM     39  C17 7X8 d   1       8.617   2.665  11.367  0.00  0.00     0.063 A 
ATOM     40  H8  7X8 d   1       7.519   0.878  10.986  0.00  0.00     0.086 H 
ATOM     41 CL1  7X8 d   1       8.691   3.179   9.703  0.00  0.00    -0.082 Cl
ENDBRANCH  26  28
ENDBRANCH   5  26
TORSDOF 5
