REMARK  11 active torsions:
REMARK  status: ('A' for Active; 'I' for Inactive)
REMARK    1  A    between atoms: C7_11  and  C7M_12 
REMARK    2  A    between atoms: C8_13  and  C8M_14 
REMARK    3  A    between atoms: N10_17  and  C1'_19 
REMARK    4  A    between atoms: C1'_19  and  C2'_20 
REMARK    5  A    between atoms: C2'_20  and  O2'_21 
REMARK    6  A    between atoms: C2'_20  and  C3'_22 
REMARK    7  A    between atoms: C3'_22  and  O3'_23 
REMARK    8  A    between atoms: C3'_22  and  C4'_24 
REMARK    9  A    between atoms: C4'_24  and  O4'_25 
REMARK   10  A    between atoms: C4'_24  and  C5'_26 
REMARK   11  A    between atoms: C5'_26  and  O5'_27 
ROOT
ATOM      1  N1  RBF d   1      22.959  74.426  71.319  0.00  0.00    -0.173 NA
ATOM      2  C2  RBF d   1      22.531  75.516  71.986  0.00  0.00     0.350 A 
ATOM      3  O2  RBF d   1      23.411  76.287  72.487  0.00  0.00    -0.244 OA
ATOM      4  N3  RBF d   1      21.218  75.792  72.117  0.00  0.00    -0.272 N 
ATOM      5  C4  RBF d   1      20.233  75.032  71.649  0.00  0.00     0.282 A 
ATOM      6  O4  RBF d   1      19.016  75.342  71.807  0.00  0.00    -0.265 OA
ATOM      7  C4A RBF d   1      20.613  73.816  70.895  0.00  0.00     0.171 A 
ATOM      8  N5  RBF d   1      19.690  72.998  70.362  0.00  0.00    -0.237 NA
ATOM      9  C5A RBF d   1      20.107  71.895  69.692  0.00  0.00     0.085 A 
ATOM     10  C6  RBF d   1      19.150  71.047  69.165  0.00  0.00    -0.047 A 
ATOM     11  C7  RBF d   1      19.549  69.914  68.452  0.00  0.00    -0.054 A 
ATOM     12  C8  RBF d   1      20.993  69.603  68.290  0.00  0.00    -0.054 A 
ATOM     13  C9  RBF d   1      21.963  70.439  68.836  0.00  0.00    -0.048 A 
ATOM     14  C9A RBF d   1      21.548  71.577  69.535  0.00  0.00     0.065 A 
ATOM     15  N10 RBF d   1      22.518  72.447  70.086  0.00  0.00    -0.325 N 
ATOM     16  C10 RBF d   1      22.061  73.564  70.765  0.00  0.00     0.170 A 
ATOM     17  H1  RBF d   1      20.967  76.630  72.602  0.00  0.00     0.174 HD
ATOM     18  H2  RBF d   1      18.096  71.260  69.304  0.00  0.00     0.088 H 
ATOM     19  H9  RBF d   1      23.017  70.213  68.722  0.00  0.00     0.087 H 
ENDROOT
BRANCH  15  20
ATOM     20  C1' RBF d   1      23.975  72.210  69.972  0.00  0.00     0.028 C 
ATOM     21  H10 RBF d   1      24.135  71.172  69.644  0.00  0.00     0.069 H 
ATOM     22  H11 RBF d   1      24.431  72.356  70.962  0.00  0.00     0.069 H 
BRANCH  20  23
ATOM     23  C2' RBF d   1      24.665  73.147  68.976  0.00  0.00     0.078 C 
ATOM     24  H12 RBF d   1      24.264  74.163  69.106  0.00  0.00     0.089 H 
BRANCH  23  25
ATOM     25  O2' RBF d   1      24.368  72.677  67.654  0.00  0.00    -0.391 OA
ATOM     26  H13 RBF d   1      24.786  73.243  67.016  0.00  0.00     0.210 HD
ENDBRANCH  23  25
BRANCH  23  27
ATOM     27  C3' RBF d   1      26.190  73.192  69.166  0.00  0.00     0.088 C 
ATOM     28  H14 RBF d   1      26.629  73.650  68.267  0.00  0.00     0.091 H 
BRANCH  27  29
ATOM     29  O3' RBF d   1      26.694  71.854  69.304  0.00  0.00    -0.390 OA
ATOM     30  H15 RBF d   1      27.636  71.882  69.421  0.00  0.00     0.210 HD
ENDBRANCH  27  29
BRANCH  27  31
ATOM     31  C4' RBF d   1      26.644  74.004  70.385  0.00  0.00     0.083 C 
ATOM     32  H16 RBF d   1      27.744  73.993  70.405  0.00  0.00     0.090 H 
BRANCH  31  33
ATOM     33  O4' RBF d   1      26.173  73.391  71.588  0.00  0.00    -0.391 OA
ATOM     34  H17 RBF d   1      26.460  73.902  72.336  0.00  0.00     0.210 HD
ENDBRANCH  31  33
BRANCH  31  35
ATOM     35  C5' RBF d   1      26.194  75.470  70.304  0.00  0.00     0.043 C 
ATOM     36  H18 RBF d   1      26.627  76.046  71.135  0.00  0.00     0.078 H 
ATOM     37  H19 RBF d   1      25.097  75.532  70.348  0.00  0.00     0.078 H 
BRANCH  35  38
ATOM     38  O5' RBF d   1      26.667  75.980  69.052  0.00  0.00    -0.398 OA
ATOM     39  H20 RBF d   1      26.407  76.890  68.963  0.00  0.00     0.209 HD
ENDBRANCH  35  38
ENDBRANCH  31  35
ENDBRANCH  27  31
ENDBRANCH  23  27
ENDBRANCH  20  23
ENDBRANCH  15  20
BRANCH  12  40
ATOM     40  C8M RBF d   1      21.409  68.362  67.535  0.00  0.00    -0.051 C 
ATOM     41  H6  RBF d   1      22.507  68.295  67.516  0.00  0.00     0.033 H 
ATOM     42  H7  RBF d   1      21.027  68.414  66.505  0.00  0.00     0.033 H 
ATOM     43  H8  RBF d   1      20.996  67.473  68.034  0.00  0.00     0.033 H 
ENDBRANCH  12  40
BRANCH  11  44
ATOM     44  C7M RBF d   1      18.476  69.022  67.866  0.00  0.00    -0.051 C 
ATOM     45  H3  RBF d   1      17.485  69.436  68.103  0.00  0.00     0.033 H 
ATOM     46  H4  RBF d   1      18.564  68.013  68.294  0.00  0.00     0.033 H 
ATOM     47  H5  RBF d   1      18.599  68.969  66.774  0.00  0.00     0.033 H 
ENDBRANCH  11  44
TORSDOF 11
