REMARK  11 active torsions:
REMARK  status: ('A' for Active; 'I' for Inactive)
REMARK    1  A    between atoms: C7_11  and  C7M_12 
REMARK    2  A    between atoms: C8_13  and  C8M_14 
REMARK    3  A    between atoms: N10_17  and  C1'_19 
REMARK    4  A    between atoms: C1'_19  and  C2'_20 
REMARK    5  A    between atoms: C2'_20  and  O2'_21 
REMARK    6  A    between atoms: C2'_20  and  C3'_22 
REMARK    7  A    between atoms: C3'_22  and  O3'_23 
REMARK    8  A    between atoms: C3'_22  and  C4'_24 
REMARK    9  A    between atoms: C4'_24  and  O4'_25 
REMARK   10  A    between atoms: C4'_24  and  C5'_26 
REMARK   11  A    between atoms: C5'_26  and  O5'_27 
ROOT
ATOM      1  N1  RBF d   1     -25.944 -39.110   2.494  0.00  0.00    -0.173 NA
ATOM      2  C2  RBF d   1     -27.070 -38.901   3.214  0.00  0.00     0.350 A 
ATOM      3  O2  RBF d   1     -28.150 -39.151   2.669  0.00  0.00    -0.244 OA
ATOM      4  N3  RBF d   1     -27.055 -38.421   4.473  0.00  0.00    -0.272 N 
ATOM      5  C4  RBF d   1     -25.895 -38.127   5.096  0.00  0.00     0.282 A 
ATOM      6  O4  RBF d   1     -25.856 -37.689   6.261  0.00  0.00    -0.265 OA
ATOM      7  C4A RBF d   1     -24.628 -38.319   4.365  0.00  0.00     0.171 A 
ATOM      8  N5  RBF d   1     -23.451 -38.031   4.914  0.00  0.00    -0.237 NA
ATOM      9  C5A RBF d   1     -22.297 -38.203   4.236  0.00  0.00     0.085 A 
ATOM     10  C6  RBF d   1     -21.092 -37.899   4.842  0.00  0.00    -0.047 A 
ATOM     11  C7  RBF d   1     -19.904 -38.067   4.170  0.00  0.00    -0.054 A 
ATOM     12  C8  RBF d   1     -19.920 -38.565   2.777  0.00  0.00    -0.054 A 
ATOM     13  C9  RBF d   1     -21.121 -38.883   2.171  0.00  0.00    -0.048 A 
ATOM     14  C9A RBF d   1     -22.315 -38.717   2.858  0.00  0.00     0.065 A 
ATOM     15  N10 RBF d   1     -23.557 -39.009   2.271  0.00  0.00    -0.325 N 
ATOM     16  C10 RBF d   1     -24.723 -38.828   3.006  0.00  0.00     0.170 A 
ATOM     17  H   RBF d   1     -27.937 -38.277   4.964  0.00  0.00     0.174 HD
ATOM     18  H   RBF d   1     -21.084 -37.522   5.865  0.00  0.00     0.088 H 
ATOM     19  H   RBF d   1     -21.130 -39.265   1.150  0.00  0.00     0.087 H 
ENDROOT
BRANCH  15  20
ATOM     20  C1' RBF d   1     -23.659 -39.559   0.934  0.00  0.00     0.028 C 
ATOM     21  H   RBF d   1     -24.615 -40.075   0.852  0.00  0.00     0.069 H 
ATOM     22  H   RBF d   1     -22.814 -40.230   0.778  0.00  0.00     0.069 H 
BRANCH  20  23
ATOM     23  C2' RBF d   1     -23.611 -38.494  -0.122  0.00  0.00     0.078 C 
ATOM     24  H   RBF d   1     -23.079 -37.577   0.133  0.00  0.00     0.089 H 
BRANCH  23  25
ATOM     25  O2' RBF d   1     -24.946 -38.029  -0.391  0.00  0.00    -0.391 OA
ATOM     26  H   RBF d   1     -25.483 -38.763  -0.698  0.00  0.00     0.210 HD
ENDBRANCH  23  25
BRANCH  23  27
ATOM     27  C3' RBF d   1     -22.896 -39.206  -1.277  0.00  0.00     0.088 C 
ATOM     28  H   RBF d   1     -22.502 -40.105  -0.804  0.00  0.00     0.091 H 
BRANCH  27  29
ATOM     29  O3' RBF d   1     -21.844 -38.411  -1.841  0.00  0.00    -0.390 OA
ATOM     30  H   RBF d   1     -21.427 -38.895  -2.557  0.00  0.00     0.210 HD
ENDBRANCH  27  29
BRANCH  27  31
ATOM     31  C4' RBF d   1     -23.794 -39.601  -2.412  0.00  0.00     0.083 C 
ATOM     32  H   RBF d   1     -24.038 -38.770  -3.074  0.00  0.00     0.090 H 
BRANCH  31  33
ATOM     33  O4' RBF d   1     -24.978 -40.109  -1.830  0.00  0.00    -0.391 OA
ATOM     34  H   RBF d   1     -25.386 -39.428  -1.291  0.00  0.00     0.210 HD
ENDBRANCH  31  33
BRANCH  31  35
ATOM     35  C5' RBF d   1     -23.070 -40.673  -3.228  0.00  0.00     0.043 C 
ATOM     36  H   RBF d   1     -23.702 -41.006  -4.051  0.00  0.00     0.078 H 
ATOM     37  H   RBF d   1     -22.845 -41.534  -2.598  0.00  0.00     0.078 H 
BRANCH  35  38
ATOM     38  O5' RBF d   1     -21.848 -40.104  -3.742  0.00  0.00    -0.398 OA
ATOM     39  H   RBF d   1     -21.296 -39.819  -3.010  0.00  0.00     0.209 HD
ENDBRANCH  35  38
ENDBRANCH  31  35
ENDBRANCH  27  31
ENDBRANCH  23  27
ENDBRANCH  20  23
ENDBRANCH  15  20
BRANCH  12  40
ATOM     40  C8M RBF d   1     -18.631 -38.774   2.022  0.00  0.00    -0.051 C 
ATOM     41  H   RBF d   1     -18.095 -37.828   1.952  0.00  0.00     0.033 H 
ATOM     42  H   RBF d   1     -18.016 -39.503   2.550  0.00  0.00     0.033 H 
ATOM     43  H   RBF d   1     -18.854 -39.142   1.020  0.00  0.00     0.033 H 
ENDBRANCH  12  40
BRANCH  11  44
ATOM     44  C7M RBF d   1     -18.611 -37.724   4.854  0.00  0.00    -0.051 C 
ATOM     45  H   RBF d   1     -17.976 -38.609   4.893  0.00  0.00     0.033 H 
ATOM     46  H   RBF d   1     -18.104 -36.936   4.296  0.00  0.00     0.033 H 
ATOM     47  H   RBF d   1     -18.818 -37.379   5.867  0.00  0.00     0.033 H 
ENDBRANCH  11  44
TORSDOF 11
