REMARK  18 active torsions:
REMARK  status: ('A' for Active; 'I' for Inactive)
REMARK    1  A    between atoms: O3_19  and  C1_1 
REMARK    2  A    between atoms: C2_2  and  O2_7 
REMARK    3  A    between atoms: C3_3  and  O3_8 
REMARK    4  A    between atoms: C4_4  and  O4_9 
REMARK    5  A    between atoms: C5_5  and  C6_6 
REMARK    6  A    between atoms: C6_6  and  O6_11 
REMARK    7  A    between atoms: O4_32  and  C1_12 
REMARK    8  A    between atoms: C2_13  and  O2_18 
REMARK    9  A    between atoms: C3_14  and  O3_19 
REMARK   10  A    between atoms: C4_15  and  O4_20 
REMARK   11  A    between atoms: C5_16  and  C6_17 
REMARK   12  A    between atoms: C6_17  and  O6_22 
REMARK   13  A    between atoms: C2_23  and  O2_30 
REMARK   14  A    between atoms: C3_24  and  O3_31 
REMARK   15  A    between atoms: C4_25  and  O4_32 
REMARK   16  A    between atoms: C5_26  and  C6_27 
REMARK   17  A    between atoms: C6_27  and  O6_34 
REMARK   18  A    between atoms: C1_28  and  O1_29 
ROOT
ATOM      1  C1  NON d   1      15.540 -30.602 117.048  0.00  0.00     0.159 C 
ATOM      2  C2  NON d   1      16.093 -29.815 115.852  0.00  0.00     0.110 C 
ATOM      3  C3  NON d   1      16.059 -28.289 116.055  0.00  0.00     0.098 C 
ATOM      4  C4  NON d   1      14.694 -27.870 116.635  0.00  0.00     0.090 C 
ATOM      5  C5  NON d   1      14.388 -28.762 117.844  0.00  0.00     0.089 C 
ATOM      6  O5  NON d   1      14.278 -30.116 117.396  0.00  0.00    -0.348 OA
ATOM      7  H12 NON d   1      16.215 -30.463 117.905  0.00  0.00     0.133 H 
ATOM      8  H13 NON d   1      15.472 -30.051 114.976  0.00  0.00     0.094 H 
ATOM      9  H14 NON d   1      16.845 -28.018 116.775  0.00  0.00     0.091 H 
ATOM     10  H15 NON d   1      14.726 -26.815 116.945  0.00  0.00     0.091 H 
ATOM     11  H16 NON d   1      15.247 -28.701 118.528  0.00  0.00     0.090 H 
ENDROOT
BRANCH   1  12
ATOM     12  O4  NON d   1      15.492 -31.980 116.733  0.00  0.00    -0.348 OA
BRANCH  12  13
ATOM     13  C4  NON d   1      15.269 -32.764 117.843  0.00  0.00     0.096 C 
ATOM     14  C3  NON d   1      14.002 -33.602 117.566  0.00  0.00     0.092 C 
ATOM     15  C2  NON d   1      13.825 -34.670 118.651  0.00  0.00     0.110 C 
ATOM     16  H23 NON d   1      14.087 -34.081 116.579  0.00  0.00     0.091 H 
ATOM     17  C1  NON d   1      15.133 -35.421 118.847  0.00  0.00     0.156 C 
ATOM     18  H22 NON d   1      13.543 -34.172 119.590  0.00  0.00     0.094 H 
ATOM     19  O5  NON d   1      16.219 -34.541 119.110  0.00  0.00    -0.349 OA
ATOM     20  H28 NON d   1      15.354 -36.032 117.959  0.00  0.00     0.133 H 
ATOM     21  C5  NON d   1      16.503 -33.651 118.063  0.00  0.00     0.089 C 
ATOM     22  H25 NON d   1      16.666 -34.227 117.140  0.00  0.00     0.090 H 
ATOM     23  H24 NON d   1      15.108 -32.134 118.730  0.00  0.00     0.091 H 
BRANCH  14  24
ATOM     24  O3  NON d   1      12.874 -32.772 117.601  0.00  0.00    -0.390 OA
ATOM     25  H31 NON d   1      12.958 -32.097 116.938  0.00  0.00     0.210 HD
ENDBRANCH  14  24
BRANCH  15  26
ATOM     26  O2  NON d   1      12.828 -35.624 118.317  0.00  0.00    -0.388 OA
ATOM     27  H30 NON d   1      12.746 -36.255 119.023  0.00  0.00     0.210 HD
ENDBRANCH  15  26
BRANCH  17  28
ATOM     28  O1  NON d   1      14.956 -36.237 119.994  0.00  0.00    -0.369 OA
ATOM     29  H29 NON d   1      14.234 -36.837 119.846  0.00  0.00     0.212 HD
ENDBRANCH  17  28
BRANCH  21  30
ATOM     30  C6  NON d   1      17.808 -32.911 118.376  0.00  0.00     0.043 C 
ATOM     31  H26 NON d   1      18.104 -32.315 117.500  0.00  0.00     0.078 H 
ATOM     32  H27 NON d   1      18.595 -33.646 118.603  0.00  0.00     0.078 H 
BRANCH  30  33
ATOM     33  O6  NON d   1      17.641 -32.053 119.486  0.00  0.00    -0.398 OA
ATOM     34  H32 NON d   1      17.388 -32.565 120.245  0.00  0.00     0.209 HD
ENDBRANCH  30  33
ENDBRANCH  21  30
ENDBRANCH  12  13
ENDBRANCH   1  12
BRANCH   2  35
ATOM     35  O2  NON d   1      17.422 -30.234 115.591  0.00  0.00    -0.388 OA
ATOM     36  H19 NON d   1      17.740 -29.805 114.805  0.00  0.00     0.210 HD
ENDBRANCH   2  35
BRANCH   3  37
ATOM     37  O3  NON d   1      16.309 -27.587 114.834  0.00  0.00    -0.348 OA
BRANCH  37  38
ATOM     38  C1  NON d   1      17.503 -26.753 114.934  0.00  0.00     0.159 C 
ATOM     39  C2  NON d   1      17.249 -25.453 114.237  0.00  0.00     0.110 C 
ATOM     40  C3  NON d   1      17.236 -25.619 112.710  0.00  0.00     0.092 C 
ATOM     41  H2  NON d   1      18.049 -24.742 114.492  0.00  0.00     0.094 H 
ATOM     42  C4  NON d   1      18.529 -26.285 112.223  0.00  0.00     0.090 C 
ATOM     43  H3  NON d   1      16.386 -26.260 112.433  0.00  0.00     0.091 H 
ATOM     44  C5  NON d   1      18.763 -27.565 113.048  0.00  0.00     0.089 C 
ATOM     45  H4  NON d   1      18.413 -26.570 111.167  0.00  0.00     0.091 H 
ATOM     46  O5  NON d   1      18.713 -27.318 114.444  0.00  0.00    -0.348 OA
ATOM     47  H5  NON d   1      17.936 -28.252 112.813  0.00  0.00     0.090 H 
ATOM     48  H1  NON d   1      17.659 -26.547 116.003  0.00  0.00     0.133 H 
BRANCH  39  49
ATOM     49  O2  NON d   1      16.040 -24.979 114.749  0.00  0.00    -0.388 OA
ATOM     50  H8  NON d   1      15.345 -25.589 114.532  0.00  0.00     0.210 HD
ENDBRANCH  39  49
BRANCH  40  51
ATOM     51  O3  NON d   1      17.079 -24.387 112.105  0.00  0.00    -0.390 OA
ATOM     52  H9  NON d   1      16.276 -23.984 112.414  0.00  0.00     0.210 HD
ENDBRANCH  40  51
BRANCH  42  53
ATOM     53  O4  NON d   1      19.593 -25.360 112.318  0.00  0.00    -0.390 OA
ATOM     54  H10 NON d   1      20.392 -25.765 112.001  0.00  0.00     0.210 HD
ENDBRANCH  42  53
BRANCH  44  55
ATOM     55  C6  NON d   1      20.051 -28.269 112.657  0.00  0.00     0.043 C 
ATOM     56  H6  NON d   1      20.905 -27.673 113.011  0.00  0.00     0.078 H 
ATOM     57  H7  NON d   1      20.093 -28.354 111.561  0.00  0.00     0.078 H 
BRANCH  55  58
ATOM     58  O6  NON d   1      20.128 -29.558 113.219  0.00  0.00    -0.398 OA
ATOM     59  H11 NON d   1      19.395 -30.080 112.913  0.00  0.00     0.209 HD
ENDBRANCH  55  58
ENDBRANCH  44  55
ENDBRANCH  37  38
ENDBRANCH   3  37
BRANCH   5  60
ATOM     60  C6  NON d   1      13.162 -28.320 118.630  0.00  0.00     0.043 C 
ATOM     61  H17 NON d   1      12.286 -28.909 118.321  0.00  0.00     0.078 H 
ATOM     62  H18 NON d   1      12.967 -27.252 118.453  0.00  0.00     0.078 H 
BRANCH  60  63
ATOM     63  O6  NON d   1      13.437 -28.544 120.019  0.00  0.00    -0.398 OA
ATOM     64  H21 NON d   1      13.608 -29.467 120.162  0.00  0.00     0.209 HD
ENDBRANCH  60  63
ENDBRANCH   5  60
BRANCH   4  65
ATOM     65  O4  NON d   1      13.696 -28.049 115.659  0.00  0.00    -0.390 OA
ATOM     66  H20 NON d   1      13.885 -27.497 114.909  0.00  0.00     0.210 HD
ENDBRANCH   4  65
TORSDOF 18
