REMARK  13 active torsions:
REMARK  status: ('A' for Active; 'I' for Inactive)
REMARK    1  A    between atoms: C1_1  and  C20_20 
REMARK    2  A    between atoms: C3_3  and  N7_7 
REMARK    3  A    between atoms: N7_7  and  C8_8 
REMARK    4  A    between atoms: C11_11  and  S14_14 
REMARK    5  A    between atoms: S14_14  and  N15_15 
REMARK    6  A    between atoms: N15_15  and  C16_16 
REMARK    7  A    between atoms: C16_16  and  C17_17 
REMARK    8  A    between atoms: C17_17  and  O18_18 
REMARK    9  A    between atoms: O18_18  and  C19_19 
REMARK   10  A    between atoms: N21_21  and  C25_25 
REMARK   11  A    between atoms: C22_22  and  C28_28 
REMARK   12  A    between atoms: C25_25  and  C26_26 
REMARK   13  A    between atoms: C25_25  and  C27_27 
ROOT
ATOM      1  C1  FRT d   1      -0.612  29.742   8.175  0.00  0.00     0.105 A 
ATOM      2  N2  FRT d   1       0.387  29.057   7.542  0.00  0.00    -0.061 NA
ATOM      3  C3  FRT d   1       1.280  29.719   6.787  0.00  0.00     0.727 A 
ATOM      4  N4  FRT d   1       1.280  31.039   6.591  0.00  0.00    -0.075 NA
ATOM      5  C5  FRT d   1       0.322  31.772   7.186  0.00  0.00     0.023 A 
ATOM      6  C6  FRT d   1      -0.674  31.180   8.004  0.00  0.00    -0.035 A 
ATOM      7  H1  FRT d   1       0.311  32.846   7.036  0.00  0.00     0.115 H 
ATOM      8  H2  FRT d   1      -1.446  31.775   8.479  0.00  0.00     0.089 H 
ENDROOT
BRANCH   3   9
ATOM      9  N7  FRT d   1       2.287  28.885   6.171  0.00  0.00    -0.188 N 
ATOM     10  H3  FRT d   1       2.504  29.193   5.212  0.00  0.00     0.184 HD
BRANCH   9  11
ATOM     11  C8  FRT d   1       3.070  27.727   6.555  0.00  0.00     0.049 A 
ATOM     12  C9  FRT d   1       2.920  27.049   7.808  0.00  0.00    -0.055 A 
ATOM     13  C10 FRT d   1       3.720  25.927   8.118  0.00  0.00    -0.058 A 
ATOM     14  H4  FRT d   1       2.186  27.400   8.524  0.00  0.00     0.087 H 
ATOM     15  C11 FRT d   1       4.673  25.483   7.175  0.00  0.00     0.079 A 
ATOM     16  H5  FRT d   1       3.604  25.414   9.066  0.00  0.00     0.086 H 
ATOM     17  C12 FRT d   1       4.847  26.128   5.928  0.00  0.00    -0.058 A 
ATOM     18  C13 FRT d   1       4.042  27.253   5.621  0.00  0.00    -0.055 A 
ATOM     19  H6  FRT d   1       5.584  25.768   5.219  0.00  0.00     0.086 H 
ATOM     20  H7  FRT d   1       4.165  27.758   4.670  0.00  0.00     0.087 H 
BRANCH  15  21
ATOM     21  S14 FRT d   1       5.659  24.112   7.558  0.00  0.00     0.258 S 
ATOM     22  O29 FRT d   1       6.013  23.309   6.227  0.00  0.00    -0.201 OA
ATOM     23  O30 FRT d   1       6.985  24.579   8.304  0.00  0.00    -0.201 OA
BRANCH  21  24
ATOM     24  N15 FRT d   1       4.745  23.088   8.624  0.00  0.00    -0.313 N 
ATOM     25  H8  FRT d   1       4.556  23.307   9.581  0.00  0.00     0.172 HD
BRANCH  24  26
ATOM     26  C16 FRT d   1       4.280  21.856   7.953  0.00  0.00     0.022 C 
ATOM     27  H9  FRT d   1       5.151  21.299   7.579  0.00  0.00     0.068 H 
ATOM     28  H10 FRT d   1       3.629  22.129   7.109  0.00  0.00     0.068 H 
BRANCH  26  29
ATOM     29  C17 FRT d   1       3.497  20.969   8.923  0.00  0.00     0.034 C 
ATOM     30  H11 FRT d   1       2.618  21.517   9.294  0.00  0.00     0.076 H 
ATOM     31  H12 FRT d   1       4.142  20.694   9.771  0.00  0.00     0.076 H 
BRANCH  29  32
ATOM     32  O18 FRT d   1       3.066  19.776   8.240  0.00  0.00    -0.394 OA
BRANCH  32  33
ATOM     33  C19 FRT d   1       2.313  18.854   9.063  0.00  0.00     0.004 C 
ATOM     34  H13 FRT d   1       2.027  17.977   8.463  0.00  0.00     0.066 H 
ATOM     35  H14 FRT d   1       1.407  19.353   9.438  0.00  0.00     0.066 H 
ATOM     36  H15 FRT d   1       2.933  18.531   9.912  0.00  0.00     0.066 H 
ENDBRANCH  32  33
ENDBRANCH  29  32
ENDBRANCH  26  29
ENDBRANCH  24  26
ENDBRANCH  21  24
ENDBRANCH  15  21
ENDBRANCH   9  11
ENDBRANCH   3   9
BRANCH   1  37
ATOM     37  C20 FRT d   1      -1.568  29.027   8.995  0.00  0.00     0.083 A 
ATOM     38  N21 FRT d   1      -1.347  27.824   9.755  0.00  0.00    -0.328 N 
ATOM     39  C22 FRT d   1      -2.654  27.692  10.307  0.00  0.00     0.102 A 
ATOM     40  N23 FRT d   1      -3.628  28.607  10.011  0.00  0.00    -0.245 NA
ATOM     41  C24 FRT d   1      -2.927  29.444   9.183  0.00  0.00     0.032 A 
ATOM     42  H16 FRT d   1      -3.356  30.330   8.718  0.00  0.00     0.118 H 
BRANCH  38  43
ATOM     43  C25 FRT d   1      -0.074  26.988   9.918  0.00  0.00     0.011 C 
ATOM     44  H17 FRT d   1       0.705  27.457   9.299  0.00  0.00     0.072 H 
BRANCH  43  45
ATOM     45  C26 FRT d   1       0.432  26.988  11.374  0.00  0.00    -0.057 C 
ATOM     46  H18 FRT d   1       1.345  26.378  11.445  0.00  0.00     0.030 H 
ATOM     47  H19 FRT d   1      -0.343  26.567  12.031  0.00  0.00     0.030 H 
ATOM     48  H20 FRT d   1       0.655  28.019  11.684  0.00  0.00     0.030 H 
ENDBRANCH  43  45
BRANCH  43  49
ATOM     49  C27 FRT d   1      -0.266  25.537   9.402  0.00  0.00    -0.057 C 
ATOM     50  H21 FRT d   1       0.669  24.973   9.537  0.00  0.00     0.030 H 
ATOM     51  H22 FRT d   1      -0.529  25.559   8.334  0.00  0.00     0.030 H 
ATOM     52  H23 FRT d   1      -1.073  25.050   9.969  0.00  0.00     0.030 H 
ENDBRANCH  43  49
ENDBRANCH  38  43
BRANCH  39  53
ATOM     53  C28 FRT d   1      -3.104  26.564  11.260  0.00  0.00    -0.021 C 
ATOM     54  H24 FRT d   1      -4.161  26.710  11.528  0.00  0.00     0.037 H 
ATOM     55  H25 FRT d   1      -2.488  26.586  12.171  0.00  0.00     0.037 H 
ATOM     56  H26 FRT d   1      -2.984  25.592  10.760  0.00  0.00     0.037 H 
ENDBRANCH  39  53
ENDBRANCH   1  37
TORSDOF 13
