REMARK  7 active torsions:
REMARK  status: ('A' for Active; 'I' for Inactive)
REMARK    1  A    between atoms: N21_2  and  C25_3 
REMARK    2  A    between atoms: C22_4  and  C28_5 
REMARK    3  A    between atoms: C1_8  and  C20_9 
REMARK    4  A    between atoms: C8_12  and  N7_24 
REMARK    5  A    between atoms: N15_22  and  C16_15 
REMARK    6  A    between atoms: S14_20  and  C11_18 
REMARK    7  A    between atoms: S14_20  and  N15_22 
ROOT
ATOM      1  C6  FRV d   1      -0.059  32.263   8.901  0.00  0.00    -0.035 A 
ATOM      2  C1  FRV d   1       0.334  30.919   9.005  0.00  0.00     0.105 A 
ATOM      3  C5  FRV d   1       0.646  33.106   8.000  0.00  0.00     0.023 A 
ATOM      4  C3  FRV d   1       2.066  31.300   7.362  0.00  0.00     0.727 A 
ATOM      5  N2  FRV d   1       1.378  30.503   8.234  0.00  0.00    -0.061 NA
ATOM      6  N7  FRV d   1       3.080  30.747   6.646  0.00  0.00    -0.188 N 
ATOM      7  N4  FRV d   1       1.673  32.592   7.277  0.00  0.00    -0.075 NA
ATOM      8  H8  FRV d   1      -0.881  32.648   9.494  0.00  0.00     0.089 H 
ATOM      9  H10 FRV d   1       0.367  34.148   7.891  0.00  0.00     0.115 H 
ATOM     10  H18 FRV d   1       3.338  31.254   5.787  0.00  0.00     0.184 HD
ENDROOT
BRANCH   6  11
ATOM     11  C8  FRV d   1       3.829  29.584   6.905  0.00  0.00     0.049 A 
ATOM     12  C13 FRV d   1       4.857  29.199   6.027  0.00  0.00    -0.055 A 
ATOM     13  C12 FRV d   1       5.639  28.053   6.275  0.00  0.00    -0.058 A 
ATOM     14  H1  FRV d   1       5.052  29.795   5.143  0.00  0.00     0.087 H 
ATOM     15  C11 FRV d   1       5.401  27.270   7.412  0.00  0.00     0.079 A 
ATOM     16  H17 FRV d   1       6.427  27.777   5.584  0.00  0.00     0.086 H 
ATOM     17  C10 FRV d   1       4.362  27.627   8.317  0.00  0.00    -0.058 A 
ATOM     18  C9  FRV d   1       3.580  28.773   8.069  0.00  0.00    -0.055 A 
ATOM     19  H15 FRV d   1       4.173  27.019   9.194  0.00  0.00     0.086 H 
ATOM     20  H14 FRV d   1       2.788  29.045   8.757  0.00  0.00     0.087 H 
BRANCH  15  21
ATOM     21  S14 FRV d   1       6.372  25.875   7.703  0.00  0.00     0.258 S 
ATOM     22  O30 FRV d   1       6.832  25.328   6.447  0.00  0.00    -0.201 OA
ATOM     23  O29 FRV d   1       7.507  26.277   8.510  0.00  0.00    -0.201 OA
BRANCH  21  24
ATOM     24  N15 FRV d   1       5.452  24.648   8.596  0.00  0.00    -0.320 N 
ATOM     25  H16 FRV d   1       5.528  24.512   9.584  0.00  0.00     0.171 HD
BRANCH  24  26
ATOM     26  C16 FRV d   1       4.584  23.868   7.749  0.00  0.00    -0.011 C 
ATOM     27  H11 FRV d   1       4.044  23.129   8.359  0.00  0.00     0.057 H 
ATOM     28  H12 FRV d   1       5.185  23.348   6.989  0.00  0.00     0.057 H 
ATOM     29  H13 FRV d   1       3.861  24.533   7.253  0.00  0.00     0.057 H 
ENDBRANCH  24  26
ENDBRANCH  21  24
ENDBRANCH  15  21
ENDBRANCH   6  11
BRANCH   2  30
ATOM     30  C20 FRV d   1      -0.263  29.910   9.901  0.00  0.00     0.083 A 
ATOM     31  N21 FRV d   1      -1.465  29.798  10.610  0.00  0.00    -0.327 N 
ATOM     32  C22 FRV d   1      -1.390  28.564  11.268  0.00  0.00     0.102 A 
ATOM     33  N23 FRV d   1      -0.278  27.956  10.997  0.00  0.00    -0.245 NA
ATOM     34  C24 FRV d   1       0.434  28.737  10.168  0.00  0.00     0.032 A 
ATOM     35  H9  FRV d   1       1.414  28.488   9.764  0.00  0.00     0.118 H 
BRANCH  31  36
ATOM     36  C25 FRV d   1      -2.674  30.674  10.788  0.00  0.00     0.019 A 
ATOM     37  C26 FRV d   1      -3.323  31.201   9.500  0.00  0.00    -0.044 A 
ATOM     38  C30 FRV d   1      -2.932  32.145  10.642  0.00  0.00    -0.044 A 
ATOM     39  H6  FRV d   1      -4.383  30.995   9.290  0.00  0.00     0.036 H 
ATOM     40  H7  FRV d   1      -2.757  31.208   8.557  0.00  0.00     0.036 H 
ATOM     41  H19 FRV d   1      -2.088  32.839  10.514  0.00  0.00     0.036 H 
ATOM     42  H20 FRV d   1      -3.715  32.627  11.247  0.00  0.00     0.036 H 
ATOM     43  H2  FRV d   1      -3.294  30.179  11.550  0.00  0.00     0.073 H 
ENDBRANCH  31  36
BRANCH  32  44
ATOM     44  C28 FRV d   1      -2.439  27.955  12.184  0.00  0.00    -0.021 C 
ATOM     45  H3  FRV d   1      -2.087  26.978  12.546  0.00  0.00     0.037 H 
ATOM     46  H4  FRV d   1      -3.379  27.823  11.628  0.00  0.00     0.037 H 
ATOM     47  H5  FRV d   1      -2.610  28.623  13.041  0.00  0.00     0.037 H 
ENDBRANCH  32  44
ENDBRANCH   2  30
TORSDOF 7
