REMARK  10 active torsions:
REMARK  status: ('A' for Active; 'I' for Inactive)
REMARK       I    between atoms: NAA_1  and  CAK_2 
REMARK       I    between atoms: CAK_2  and  NAC_4 
REMARK    1  A    between atoms: NAC_4  and  NAD_5 
REMARK    2  A    between atoms: NAD_5  and  CAL_6 
REMARK    3  A    between atoms: CAL_6  and  CAM_7 
REMARK    4  A    between atoms: CAL_6  and  CAN_8 
REMARK    5  A    between atoms: CAQ_13  and  NAE_14 
REMARK       I    between atoms: NAE_14  and  CAT_15 
REMARK       I    between atoms: CAT_15  and  NAF_17 
REMARK    6  A    between atoms: NAF_17  and  CAU_18 
REMARK    7  A    between atoms: CAX_23  and  CBA_24 
REMARK    8  A    between atoms: CBA_24  and  CBB_25 
REMARK    9  A    between atoms: CBA_24  and  NAG_26 
REMARK   10  A    between atoms: NAG_26  and  NAH_27 
REMARK       I    between atoms: NAH_27  and  CBC_28 
REMARK       I    between atoms: CBC_28  and  NAJ_29 
ROOT
ATOM      1  NAE ZAT d   1      37.645 -31.564   7.703  0.00  0.00    -0.309 N 
ATOM      2  CAT ZAT d   1      37.069 -32.601   8.347  0.00  0.00     0.325 C 
ATOM      3  OBD ZAT d   1      37.027 -33.756   7.875  0.00  0.00    -0.247 OA
ATOM      4  NAF ZAT d   1      36.504 -32.221   9.530  0.00  0.00    -0.309 N 
ATOM      5  H13 ZAT d   1      37.587 -30.677   8.160  0.00  0.00     0.170 HD
ATOM      6  H14 ZAT d   1      36.529 -31.242   9.732  0.00  0.00     0.170 HD
ENDROOT
BRANCH   1   7
ATOM      7  CAQ ZAT d   1      38.288 -31.578   6.521  0.00  0.00     0.036 A 
ATOM      8  CAR ZAT d   1      39.181 -30.517   6.282  0.00  0.00    -0.057 A 
ATOM      9  CAS ZAT d   1      39.894 -30.440   5.091  0.00  0.00    -0.073 A 
ATOM     10  H10 ZAT d   1      39.315 -29.750   7.036  0.00  0.00     0.086 H 
ATOM     11  CAN ZAT d   1      39.736 -31.432   4.126  0.00  0.00    -0.032 A 
ATOM     12  H9  ZAT d   1      40.570 -29.611   4.914  0.00  0.00     0.084 H 
ATOM     13  CAO ZAT d   1      38.826 -32.469   4.351  0.00  0.00    -0.073 A 
ATOM     14  CAP ZAT d   1      38.112 -32.560   5.547  0.00  0.00    -0.057 A 
ATOM     15  H11 ZAT d   1      38.672 -33.217   3.582  0.00  0.00     0.084 H 
ATOM     16  H12 ZAT d   1      37.429 -33.384   5.716  0.00  0.00     0.086 H 
BRANCH  11  17
ATOM     17  CAL ZAT d   1      40.407 -31.332   2.909  0.00  0.00     0.075 C 
ATOM     18  H5  ZAT d   1      41.386 -31.239   3.402  0.00  0.00     0.085 H 
BRANCH  17  19
ATOM     19  NAD ZAT d   1      40.460 -30.095   2.422  0.00  0.00    -0.167 NA
BRANCH  19  20
ATOM     20  NAC ZAT d   1      40.914 -29.735   1.335  0.00  0.00     0.036 NA
ATOM     21  CAK ZAT d   1      40.892 -28.431   1.004  0.00  0.00     0.709 C 
ATOM     22  NAA ZAT d   1      41.416 -28.048  -0.166  0.00  0.00    -0.232 N 
ATOM     23  NAB ZAT d   1      40.383 -27.506   1.827  0.00  0.00    -0.232 N 
ATOM     24  H1  ZAT d   1      41.407 -27.053  -0.433  0.00  0.00     0.174 HD
ATOM     25  H2  ZAT d   1      41.829 -28.748  -0.799  0.00  0.00     0.174 HD
ATOM     26  H3  ZAT d   1      39.977 -27.788   2.731  0.00  0.00     0.174 HD
ATOM     27  H4  ZAT d   1      40.398 -26.512   1.557  0.00  0.00     0.174 HD
ENDBRANCH  19  20
ENDBRANCH  17  19
BRANCH  17  28
ATOM     28  CAM ZAT d   1      40.899 -32.541   2.106  0.00  0.00    -0.050 C 
ATOM     29  H6  ZAT d   1      40.761 -33.456   2.700  0.00  0.00     0.030 H 
ATOM     30  H7  ZAT d   1      41.966 -32.415   1.870  0.00  0.00     0.030 H 
ATOM     31  H8  ZAT d   1      40.324 -32.620   1.172  0.00  0.00     0.030 H 
ENDBRANCH  17  28
ENDBRANCH  11  17
ENDBRANCH   1   7
BRANCH   4  32
ATOM     32  CAU ZAT d   1      35.909 -33.009  10.471  0.00  0.00     0.036 A 
ATOM     33  CAZ ZAT d   1      35.581 -34.367  10.328  0.00  0.00    -0.056 A 
ATOM     34  CAY ZAT d   1      34.996 -35.063  11.389  0.00  0.00    -0.069 A 
ATOM     35  H15 ZAT d   1      35.782 -34.876   9.393  0.00  0.00     0.086 H 
ATOM     36  CAX ZAT d   1      34.718 -34.439  12.621  0.00  0.00    -0.010 A 
ATOM     37  H16 ZAT d   1      34.750 -36.111  11.261  0.00  0.00     0.085 H 
ATOM     38  CAW ZAT d   1      35.063 -33.091  12.756  0.00  0.00    -0.069 A 
ATOM     39  CAV ZAT d   1      35.641 -32.394  11.697  0.00  0.00    -0.056 A 
ATOM     40  H18 ZAT d   1      34.879 -32.582  13.695  0.00  0.00     0.085 H 
ATOM     41  H17 ZAT d   1      35.889 -31.347  11.828  0.00  0.00     0.086 H 
BRANCH  36  42
ATOM     42  CBA ZAT d   1      34.127 -35.111  13.732  0.00  0.00     0.061 C 
BRANCH  42  43
ATOM     43  CBB ZAT d   1      33.330 -36.418  13.625  0.00  0.00    -0.033 C 
ATOM     44  H19 ZAT d   1      32.986 -36.721  14.625  0.00  0.00     0.035 H 
ATOM     45  H20 ZAT d   1      33.972 -37.206  13.204  0.00  0.00     0.035 H 
ATOM     46  H21 ZAT d   1      32.460 -36.264  12.969  0.00  0.00     0.035 H 
ENDBRANCH  42  43
BRANCH  42  47
ATOM     47  NAG ZAT d   1      34.336 -34.568  14.936  0.00  0.00    -0.164 NA
BRANCH  47  48
ATOM     48  NAH ZAT d   1      33.946 -35.011  16.028  0.00  0.00    -0.110 N 
ATOM     49  CBC ZAT d   1      34.230 -34.356  17.174  0.00  0.00     0.685 C 
ATOM     50  NAJ ZAT d   1      33.791 -34.787  18.339  0.00  0.00    -0.234 N 
ATOM     51  NAI ZAT d   1      34.956 -33.245  17.182  0.00  0.00    -0.234 N 
ATOM     52  H23 ZAT d   1      34.021 -34.270  19.200  0.00  0.00     0.174 HD
ATOM     53  H24 ZAT d   1      33.218 -35.641  18.389  0.00  0.00     0.174 HD
ATOM     54  H25 ZAT d   1      35.324 -32.864  16.299  0.00  0.00     0.174 HD
ATOM     55  H26 ZAT d   1      35.151 -32.764  18.072  0.00  0.00     0.174 HD
ATOM     56  H22 ZAT d   1      33.402 -35.885  16.060  0.00  0.00     0.208 HD
ENDBRANCH  47  48
ENDBRANCH  42  47
ENDBRANCH  36  42
ENDBRANCH   4  32
TORSDOF 10
