REMARK WARNING: 32 MAX_TORS EXCEEDED!!!
REMARK  42 active torsions:
REMARK  status: ('A' for Active; 'I' for Inactive)
REMARK    1  A    between atoms: N_1  and  CA_2 
REMARK    2  A    between atoms: CA_2  and  C_3 
REMARK    3  A    between atoms: CA_2  and  CB_5 
REMARK       I    between atoms: C_3  and  N_12 
REMARK    4  A    between atoms: CB_5  and  CG_6 
REMARK    5  A    between atoms: CG_6  and  CD_7 
REMARK    6  A    between atoms: CD_7  and  NE_8 
REMARK       I    between atoms: NE_8  and  CZ_9 
REMARK       I    between atoms: CZ_9  and  NH1_10 
REMARK    7  A    between atoms: N_12  and  CA_13 
REMARK    8  A    between atoms: CA_13  and  C_14 
REMARK    9  A    between atoms: CA_13  and  CB_16 
REMARK       I    between atoms: C_14  and  N_19 
REMARK   10  A    between atoms: CB_16  and  CG1_17 
REMARK   11  A    between atoms: CB_16  and  CG2_18 
REMARK   12  A    between atoms: N_19  and  CA_20 
REMARK   13  A    between atoms: CA_20  and  C_21 
REMARK   14  A    between atoms: CA_20  and  CB_23 
REMARK       I    between atoms: C_21  and  N_24 
REMARK   15  A    between atoms: N_24  and  CA_25 
REMARK   16  A    between atoms: CA_25  and  C_26 
REMARK   17  A    between atoms: CA_25  and  CB_28 
REMARK       I    between atoms: C_26  and  N_30 
REMARK   18  A    between atoms: CB_28  and  OG_29 
REMARK   19  A    between atoms: N_30  and  CA_31 
REMARK   20  A    between atoms: CA_31  and  C_32 
REMARK   21  A    between atoms: CA_31  and  CB_34 
REMARK       I    between atoms: C_32  and  N_36 
REMARK   22  A    between atoms: CB_34  and  OG_35 
REMARK   23  A    between atoms: N_36  and  CA_37 
REMARK   24  A    between atoms: CA_37  and  C_38 
REMARK   25  A    between atoms: CA_37  and  CB_40 
REMARK       I    between atoms: C_38  and  N_43 
REMARK   26  A    between atoms: CB_40  and  CG1_41 
REMARK   27  A    between atoms: CB_40  and  CG2_42 
REMARK   28  A    between atoms: N_43  and  CA_44 
REMARK   29  A    between atoms: CA_44  and  C_45 
REMARK   30  A    between atoms: CA_44  and  CB_47 
REMARK       I    between atoms: C_45  and  N_54 
REMARK   31  A    between atoms: CB_47  and  CG_48 
REMARK   32  A    between atoms: N_54  and  CA_55 
REMARK   33  A    between atoms: CA_55  and  C_56 
REMARK   34  A    between atoms: CA_55  and  CB_58 
REMARK       I    between atoms: C_56  and  N_62 
REMARK   35  A    between atoms: CB_58  and  CG1_59 
REMARK   36  A    between atoms: CB_58  and  CG2_60 
REMARK   37  A    between atoms: CG1_59  and  CD1_61 
REMARK   38  A    between atoms: N_62  and  CA_63 
REMARK   39  A    between atoms: CA_63  and  C_64 
REMARK   40  A    between atoms: CA_63  and  CB_66 
REMARK   41  A    between atoms: CB_66  and  OG1_67 
REMARK   42  A    between atoms: CB_66  and  CG2_68 
ROOT
ATOM      1  CA  SER d   1      15.186  21.599  34.535  0.00  0.00     0.109 C 
ATOM      2  H36 SER d   1      15.854  22.460  34.687  0.00  0.00     0.090 H 
ENDROOT
BRANCH   1   3
ATOM      3  N   SER d   1      13.878  21.776  35.208  0.00  0.00    -0.344 N 
ATOM      4  C   SER d   1      13.552  22.776  36.030  0.00  0.00     0.243 C 
ATOM      5  O   SER d   1      14.235  23.768  36.282  0.00  0.00    -0.271 OA
ATOM      6  H35 SER d   1      13.177  21.085  35.031  0.00  0.00     0.163 HD
BRANCH   4   7
ATOM      7  CA  SER d   1      12.225  22.605  36.720  0.00  0.00     0.109 C 
ATOM      8  H31 SER d   1      11.761  21.626  36.527  0.00  0.00     0.090 H 
BRANCH   7   9
ATOM      9  N   SER d   1      12.589  22.772  38.116  0.00  0.00    -0.344 N 
ATOM     10  C   ALA d   1      12.257  21.911  39.088  0.00  0.00     0.240 C 
ATOM     11  O   ALA d   1      11.456  20.980  38.925  0.00  0.00    -0.271 OA
ATOM     12  H30 SER d   1      13.121  23.580  38.368  0.00  0.00     0.163 HD
BRANCH  10  13
ATOM     13  CA  ALA d   1      12.897  22.173  40.467  0.00  0.00     0.086 C 
ATOM     14  H26 ALA d   1      13.026  23.260  40.575  0.00  0.00     0.086 H 
BRANCH  13  15
ATOM     15  N   ALA d   1      12.032  21.712  41.570  0.00  0.00    -0.346 N 
ATOM     16  C   VAL d   1      12.002  22.369  42.720  0.00  0.00     0.241 C 
ATOM     17  O   VAL d   1      12.500  23.508  42.875  0.00  0.00    -0.271 OA
ATOM     18  H25 ALA d   1      11.464  20.898  41.449  0.00  0.00     0.163 HD
BRANCH  16  19
ATOM     19  CA  VAL d   1      11.291  21.652  43.886  0.00  0.00     0.092 C 
ATOM     20  H17 VAL d   1      11.606  20.599  43.939  0.00  0.00     0.088 H 
BRANCH  19  21
ATOM     21  N   VAL d   1      11.709  22.353  45.084  0.00  0.00    -0.346 N 
ATOM     22  C   ARG d   1      12.307  21.725  46.094  0.00  0.00     0.249 C 
ATOM     23  O   ARG d   1      12.348  20.481  46.186  0.00  0.00    -0.271 OA
ATOM     24  H16 VAL d   1      11.543  23.337  45.154  0.00  0.00     0.163 HD
BRANCH  22  25
ATOM     25  CA  ARG d   1      12.957  22.628  47.157  0.00  0.00     0.176 C 
ATOM     26  H4  ARG d   1      12.749  23.675  46.893  0.00  0.00     0.099 H 
BRANCH  25  27
ATOM     27  N   ARG d   1      12.365  22.383  48.511  0.00  0.00    -0.067 N 
ATOM     28  H1  ARG d   1      12.808  22.986  49.186  0.00  0.00     0.275 HD
ATOM     29  H2  ARG d   1      12.512  21.421  48.773  0.00  0.00     0.275 HD
ATOM     30  H3  ARG d   1      11.376  22.577  48.486  0.00  0.00     0.275 HD
ENDBRANCH  25  27
BRANCH  25  31
ATOM     31  CB  ARG d   1      14.484  22.425  47.115  0.00  0.00    -0.029 C 
ATOM     32  H5  ARG d   1      14.819  22.660  46.094  0.00  0.00     0.036 H 
ATOM     33  H6  ARG d   1      14.680  21.364  47.330  0.00  0.00     0.036 H 
BRANCH  31  34
ATOM     34  CG  ARG d   1      15.326  23.240  48.063  0.00  0.00    -0.047 C 
ATOM     35  H7  ARG d   1      15.534  22.642  48.962  0.00  0.00     0.035 H 
ATOM     36  H8  ARG d   1      14.771  24.147  48.346  0.00  0.00     0.035 H 
BRANCH  34  37
ATOM     37  CD  ARG d   1      16.670  23.653  47.408  0.00  0.00     0.009 C 
ATOM     38  H9  ARG d   1      17.188  24.327  48.106  0.00  0.00     0.064 H 
ATOM     39  H10 ARG d   1      16.436  24.195  46.480  0.00  0.00     0.064 H 
BRANCH  37  40
ATOM     40  NE  ARG d   1      17.605  22.557  47.065  0.00  0.00    -0.227 N 
ATOM     41  CZ  ARG d   1      18.688  22.709  46.288  0.00  0.00     0.665 C 
ATOM     42  NH1 ARG d   1      18.995  23.910  45.768  0.00  0.00    -0.235 N 
ATOM     43  NH2 ARG d   1      19.479  21.660  46.026  0.00  0.00    -0.235 N 
ATOM     44  H12 ARG d   1      19.829  24.015  45.173  0.00  0.00     0.174 HD
ATOM     45  H13 ARG d   1      18.396  24.725  45.965  0.00  0.00     0.174 HD
ATOM     46  H14 ARG d   1      19.254  20.735  46.419  0.00  0.00     0.174 HD
ATOM     47  H15 ARG d   1      20.312  21.779  45.432  0.00  0.00     0.174 HD
ATOM     48  H11 ARG d   1      17.412  21.620  47.447  0.00  0.00     0.177 HD
ENDBRANCH  37  40
ENDBRANCH  34  37
ENDBRANCH  31  34
ENDBRANCH  25  31
ENDBRANCH  22  25
ENDBRANCH  19  21
BRANCH  19  49
ATOM     49  CB  VAL d   1       9.793  21.710  43.679  0.00  0.00    -0.033 C 
ATOM     50  H18 VAL d   1       9.579  21.420  42.640  0.00  0.00     0.042 H 
BRANCH  49  51
ATOM     51  CG1 VAL d   1       9.050  20.703  44.620  0.00  0.00    -0.071 C 
ATOM     52  H19 VAL d   1       7.966  20.770  44.445  0.00  0.00     0.028 H 
ATOM     53  H20 VAL d   1       9.268  20.952  45.669  0.00  0.00     0.028 H 
ATOM     54  H21 VAL d   1       9.393  19.680  44.407  0.00  0.00     0.028 H 
ENDBRANCH  49  51
BRANCH  49  55
ATOM     55  CG2 VAL d   1       9.308  23.115  43.881  0.00  0.00    -0.071 C 
ATOM     56  H22 VAL d   1       9.851  23.791  43.205  0.00  0.00     0.028 H 
ATOM     57  H23 VAL d   1       9.486  23.418  44.923  0.00  0.00     0.028 H 
ATOM     58  H24 VAL d   1       8.231  23.166  43.663  0.00  0.00     0.028 H 
ENDBRANCH  49  55
ENDBRANCH  19  49
ENDBRANCH  16  19
ENDBRANCH  13  15
BRANCH  13  59
ATOM     59  CB  ALA d   1      14.270  21.529  40.553  0.00  0.00    -0.049 C 
ATOM     60  H27 ALA d   1      14.896  21.887  39.722  0.00  0.00     0.030 H 
ATOM     61  H28 ALA d   1      14.167  20.436  40.489  0.00  0.00     0.030 H 
ATOM     62  H29 ALA d   1      14.742  21.798  41.510  0.00  0.00     0.030 H 
ENDBRANCH  13  59
ENDBRANCH  10  13
ENDBRANCH   7   9
BRANCH   7  63
ATOM     63  CB  SER d   1      11.330  23.742  36.238  0.00  0.00     0.044 C 
ATOM     64  H32 SER d   1      11.027  23.552  35.198  0.00  0.00     0.077 H 
ATOM     65  H33 SER d   1      11.885  24.690  36.290  0.00  0.00     0.077 H 
BRANCH  63  66
ATOM     66  OG  SER d   1      10.176  23.828  37.055  0.00  0.00    -0.398 OA
ATOM     67  H34 SER d   1      10.437  23.994  37.953  0.00  0.00     0.209 HD
ENDBRANCH  63  66
ENDBRANCH   7  63
ENDBRANCH   4   7
ENDBRANCH   1   3
BRANCH   1  68
ATOM     68  C   SER d   1      14.821  21.387  33.069  0.00  0.00     0.243 C 
ATOM     69  O   SER d   1      14.070  20.489  32.780  0.00  0.00    -0.271 OA
ATOM     70  N   VAL d   1      15.361  22.213  32.172  0.00  0.00    -0.346 N 
ATOM     71  H40 VAL d   1      16.046  22.874  32.478  0.00  0.00     0.163 HD
BRANCH  70  72
ATOM     72  CA  VAL d   1      14.987  22.188  30.753  0.00  0.00     0.092 C 
ATOM     73  H41 VAL d   1      14.381  21.288  30.572  0.00  0.00     0.088 H 
BRANCH  72  74
ATOM     74  C   VAL d   1      16.270  22.092  29.915  0.00  0.00     0.241 C 
ATOM     75  O   VAL d   1      17.280  22.717  30.261  0.00  0.00    -0.271 OA
ATOM     76  N   PHE d   1      16.221  21.277  28.870  0.00  0.00    -0.346 N 
ATOM     77  H49 PHE d   1      15.383  20.759  28.698  0.00  0.00     0.163 HD
BRANCH  76  78
ATOM     78  CA  PHE d   1      17.354  21.112  27.962  0.00  0.00     0.093 C 
ATOM     79  H50 PHE d   1      18.171  21.783  28.266  0.00  0.00     0.088 H 
BRANCH  78  80
ATOM     80  C   PHE d   1      16.873  21.492  26.563  0.00  0.00     0.241 C 
ATOM     81  O   PHE d   1      15.796  21.061  26.132  0.00  0.00    -0.271 OA
ATOM     82  N   ILE d   1      17.664  22.309  25.876  0.00  0.00    -0.346 N 
ATOM     83  H58 ILE d   1      18.566  22.549  26.235  0.00  0.00     0.163 HD
BRANCH  82  84
ATOM     84  CA  ILE d   1      17.214  22.863  24.585  0.00  0.00     0.092 C 
ATOM     85  H59 ILE d   1      16.268  22.382  24.296  0.00  0.00     0.088 H 
BRANCH  84  86
ATOM     86  C   ILE d   1      18.262  22.603  23.529  0.00  0.00     0.241 C 
ATOM     87  O   ILE d   1      19.417  22.895  23.756  0.00  0.00    -0.271 OA
ATOM     88  N   THR d   1      17.833  22.068  22.390  0.00  0.00    -0.343 N 
ATOM     89  H69 THR d   1      16.853  21.889  22.301  0.00  0.00     0.163 HD
BRANCH  88  90
ATOM     90  CA  THR d   1      18.701  21.720  21.248  0.00  0.00     0.120 C 
ATOM     91  H70 THR d   1      19.372  22.561  21.019  0.00  0.00     0.093 H 
BRANCH  90  92
ATOM     92  C   THR d   1      17.866  21.301  20.014  0.00  0.00     0.199 C 
ATOM     93  O   THR d   1      16.738  21.815  19.789  0.00  0.00    -0.646 OA
ATOM     94  O71 THR d   1      18.321  20.433  19.223  0.00  0.00    -0.646 OA
ENDBRANCH  90  92
BRANCH  90  95
ATOM     95  CB  THR d   1      19.481  20.428  21.535  0.00  0.00     0.061 C 
ATOM     96  H71 THR d   1      19.759  20.398  22.599  0.00  0.00     0.086 H 
BRANCH  95  97
ATOM     97  OG1 THR d   1      20.675  20.394  20.736  0.00  0.00    -0.393 OA
ATOM     98  H72 THR d   1      20.440  20.422  19.816  0.00  0.00     0.210 HD
ENDBRANCH  95  97
BRANCH  95  99
ATOM     99  CG2 THR d   1      18.579  19.212  21.208  0.00  0.00    -0.050 C 
ATOM    100  H73 THR d   1      19.130  18.282  21.411  0.00  0.00     0.031 H 
ATOM    101  H74 THR d   1      18.291  19.244  20.147  0.00  0.00     0.031 H 
ATOM    102  H75 THR d   1      17.675  19.247  21.834  0.00  0.00     0.031 H 
ENDBRANCH  95  99
ENDBRANCH  90  95
ENDBRANCH  88  90
ENDBRANCH  84  86
BRANCH  84 103
ATOM    103  CB  ILE d   1      17.003  24.406  24.685  0.00  0.00    -0.030 C 
ATOM    104  H60 ILE d   1      17.998  24.858  24.813  0.00  0.00     0.043 H 
BRANCH 103 105
ATOM    105  CG1 ILE d   1      16.181  24.806  25.916  0.00  0.00    -0.063 C 
ATOM    106  H61 ILE d   1      16.272  25.893  26.061  0.00  0.00     0.033 H 
ATOM    107  H62 ILE d   1      16.587  24.283  26.794  0.00  0.00     0.033 H 
BRANCH 105 108
ATOM    108  CD1 ILE d   1      14.756  24.468  25.787  0.00  0.00    -0.076 C 
ATOM    109  H66 ILE d   1      14.222  24.778  26.697  0.00  0.00     0.027 H 
ATOM    110  H67 ILE d   1      14.648  23.382  25.650  0.00  0.00     0.027 H 
ATOM    111  H68 ILE d   1      14.332  24.991  24.917  0.00  0.00     0.027 H 
ENDBRANCH 105 108
ENDBRANCH 103 105
BRANCH 103 112
ATOM    112  CG2 ILE d   1      16.420  24.968  23.358  0.00  0.00    -0.071 C 
ATOM    113  H63 ILE d   1      17.051  24.648  22.516  0.00  0.00     0.028 H 
ATOM    114  H64 ILE d   1      16.399  26.067  23.403  0.00  0.00     0.028 H 
ATOM    115  H65 ILE d   1      15.398  24.587  23.216  0.00  0.00     0.028 H 
ENDBRANCH 103 112
ENDBRANCH  84 103
ENDBRANCH  82  84
ENDBRANCH  78  80
BRANCH  78 116
ATOM    116  CB  PHE d   1      17.860  19.676  27.987  0.00  0.00    -0.014 C 
ATOM    117  H51 PHE d   1      17.018  19.004  27.763  0.00  0.00     0.043 H 
ATOM    118  H52 PHE d   1      18.245  19.458  28.994  0.00  0.00     0.043 H 
BRANCH 116 119
ATOM    119  CG  PHE d   1      18.969  19.417  26.977  0.00  0.00    -0.056 A 
ATOM    120  CD1 PHE d   1      20.299  19.510  27.364  0.00  0.00    -0.077 A 
ATOM    121  CE1 PHE d   1      21.316  19.281  26.436  0.00  0.00    -0.082 A 
ATOM    122  H53 PHE d   1      20.548  19.761  28.389  0.00  0.00     0.084 H 
ATOM    123  CZ  PHE d   1      20.997  18.988  25.100  0.00  0.00    -0.083 A 
ATOM    124  H55 PHE d   1      22.353  19.329  26.747  0.00  0.00     0.083 H 
ATOM    125  CE2 PHE d   1      19.664  18.898  24.701  0.00  0.00    -0.082 A 
ATOM    126  H57 PHE d   1      21.789  18.831  24.377  0.00  0.00     0.083 H 
ATOM    127  CD2 PHE d   1      18.662  19.106  25.638  0.00  0.00    -0.077 A 
ATOM    128  H56 PHE d   1      19.414  18.668  23.672  0.00  0.00     0.083 H 
ATOM    129  H54 PHE d   1      17.624  19.028  25.334  0.00  0.00     0.084 H 
ENDBRANCH 116 119
ENDBRANCH  78 116
ENDBRANCH  76  78
ENDBRANCH  72  74
BRANCH  72 130
ATOM    130  CB  VAL d   1      14.136  23.430  30.329  0.00  0.00    -0.033 C 
ATOM    131  H42 VAL d   1      14.817  24.290  30.253  0.00  0.00     0.042 H 
BRANCH 130 132
ATOM    132  CG1 VAL d   1      13.513  23.193  28.920  0.00  0.00    -0.071 C 
ATOM    133  H43 VAL d   1      12.917  24.071  28.630  0.00  0.00     0.028 H 
ATOM    134  H44 VAL d   1      12.866  22.304  28.950  0.00  0.00     0.028 H 
ATOM    135  H45 VAL d   1      14.317  23.037  28.185  0.00  0.00     0.028 H 
ENDBRANCH 130 132
BRANCH 130 136
ATOM    136  CG2 VAL d   1      13.079  23.782  31.365  0.00  0.00    -0.071 C 
ATOM    137  H46 VAL d   1      13.561  23.940  32.341  0.00  0.00     0.028 H 
ATOM    138  H47 VAL d   1      12.354  22.959  31.443  0.00  0.00     0.028 H 
ATOM    139  H48 VAL d   1      12.558  24.702  31.060  0.00  0.00     0.028 H 
ENDBRANCH 130 136
ENDBRANCH  72 130
ENDBRANCH  70  72
ENDBRANCH   1  68
BRANCH   1 140
ATOM    140  CB  SER d   1      15.814  20.310  35.016  0.00  0.00     0.044 C 
ATOM    141  H37 SER d   1      15.269  19.464  34.572  0.00  0.00     0.077 H 
ATOM    142  H38 SER d   1      15.731  20.264  36.112  0.00  0.00     0.077 H 
BRANCH 140 143
ATOM    143  OG  SER d   1      17.173  20.208  34.661  0.00  0.00    -0.398 OA
ATOM    144  H39 SER d   1      17.523  19.386  34.983  0.00  0.00     0.209 HD
ENDBRANCH 140 143
ENDBRANCH   1 140
TORSDOF 42
