REMARK  7 active torsions:
REMARK  status: ('A' for Active; 'I' for Inactive)
REMARK    1  A    between atoms: O3'_1  and  C3'_2 
REMARK    2  A    between atoms: C1'_4  and  N1_13 
REMARK    3  A    between atoms: C4'_6  and  C5'_7 
REMARK    4  A    between atoms: C5'_7  and  O5'_8 
REMARK    5  A    between atoms: O5'_8  and  P_9 
REMARK    6  A    between atoms: C5_15  and  C5A_16 
REMARK    7  A    between atoms: C5A_16  and  C5B_17 
ROOT
ATOM      1  C3' BVP d   1       3.038   4.370 -50.183  0.00  0.00     0.066 C 
ATOM      2  C2' BVP d   1       2.853   2.856 -50.066  0.00  0.00     0.002 C 
ATOM      3  C1' BVP d   1       2.323   2.771 -48.656  0.00  0.00     0.116 C 
ATOM      4  O4' BVP d   1       1.252   3.699 -48.712  0.00  0.00    -0.356 OA
ATOM      5  C4' BVP d   1       1.887   4.873 -49.289  0.00  0.00     0.087 C 
ATOM      6  H2  BVP d   1       2.944   4.710 -51.225  0.00  0.00     0.087 H 
ATOM      7  H3  BVP d   1       3.806   2.317 -50.178  0.00  0.00     0.043 H 
ATOM      8  H4  BVP d   1       2.127   2.474 -50.800  0.00  0.00     0.043 H 
ATOM      9  H5  BVP d   1       3.092   3.159 -47.972  0.00  0.00     0.118 H 
ATOM     10  H6  BVP d   1       2.331   5.461 -48.472  0.00  0.00     0.090 H 
ENDROOT
BRANCH   3  11
ATOM     11  N1  BVP d   1       1.968   1.405 -48.135  0.00  0.00    -0.282 N 
ATOM     12  C6  BVP d   1       2.551   0.812 -47.021  0.00  0.00    -0.002 A 
ATOM     13  C5  BVP d   1       2.146  -0.479 -46.668  0.00  0.00     0.026 A 
ATOM     14  H9  BVP d   1       3.304   1.340 -46.438  0.00  0.00     0.113 H 
ATOM     15  C4  BVP d   1       1.126  -1.131 -47.364  0.00  0.00     0.257 A 
ATOM     16  O4  BVP d   1       0.732  -2.249 -47.047  0.00  0.00    -0.267 OA
ATOM     17  N3  BVP d   1       0.541  -0.535 -48.450  0.00  0.00    -0.275 N 
ATOM     18  C2  BVP d   1       1.001   0.735 -48.808  0.00  0.00     0.331 A 
ATOM     19  H14 BVP d   1      -0.185  -0.990 -48.965  0.00  0.00     0.173 HD
ATOM     20  O2  BVP d   1       0.479   1.262 -49.789  0.00  0.00    -0.246 OA
BRANCH  13  21
ATOM     21  C5A BVP d   1       2.652  -1.098 -45.524  0.00  0.00    -0.026 C 
ATOM     22  H10 BVP d   1       3.220  -1.984 -45.845  0.00  0.00     0.041 H 
ATOM     23  H11 BVP d   1       1.798  -1.414 -44.907  0.00  0.00     0.041 H 
BRANCH  21  24
ATOM     24  C5B BVP d   1       3.580  -0.237 -44.639  0.00  0.00    -0.010 C 
ATOM     25 BR   BVP d   1       4.214  -1.103 -43.134  0.00  0.00    -0.096 Br
ATOM     26  H12 BVP d   1       3.019   0.652 -44.314  0.00  0.00     0.050 H 
ATOM     27  H13 BVP d   1       4.443   0.075 -45.246  0.00  0.00     0.050 H 
ENDBRANCH  21  24
ENDBRANCH  13  21
ENDBRANCH   3  11
BRANCH   1  28
ATOM     28  O3' BVP d   1       4.264   4.828 -49.628  0.00  0.00    -0.393 OA
ATOM     29  H1  BVP d   1       4.323   5.771 -49.729  0.00  0.00     0.210 HD
ENDBRANCH   1  28
BRANCH   5  30
ATOM     30  C5' BVP d   1       0.885   5.780 -49.984  0.00  0.00     0.059 C 
ATOM     31  H7  BVP d   1       1.376   6.718 -50.283  0.00  0.00     0.079 H 
ATOM     32  H8  BVP d   1       0.050   6.004 -49.304  0.00  0.00     0.079 H 
BRANCH  30  33
ATOM     33  O5' BVP d   1       0.400   5.101 -51.135  0.00  0.00    -0.280 OA
BRANCH  33  34
ATOM     34  P   BVP d   1      -0.328   5.895 -52.325  0.00  0.00     0.422 P 
ATOM     35  O1P BVP d   1       0.821   6.243 -53.456  0.00  0.00    -0.617 OA
ATOM     36  O2P BVP d   1      -1.254   4.736 -53.027  0.00  0.00    -0.617 OA
ATOM     37  O3P BVP d   1      -1.042   7.115 -51.881  0.00  0.00    -0.617 OA
ENDBRANCH  33  34
ENDBRANCH  30  33
ENDBRANCH   5  30
TORSDOF 7
