REMARK  2 active torsions:
REMARK  status: ('A' for Active; 'I' for Inactive)
REMARK    1  A    between atoms: C41_2  and  C4_4 
REMARK    2  A    between atoms: C2_8  and  C21_10 
ROOT
ATOM      1  C4  PD2 d   1      18.886  25.772  28.747  0.00  0.00     0.044 A 
ATOM      2  C5  PD2 d   1      18.993  26.936  29.328  0.00  0.00    -0.049 A 
ATOM      3  C6  PD2 d   1      20.362  27.585  29.519  0.00  0.00     0.004 A 
ATOM      4  C3  PD2 d   1      20.117  25.076  28.233  0.00  0.00    -0.032 A 
ATOM      5  C2  PD2 d   1      21.285  25.679  28.412  0.00  0.00     0.133 A 
ATOM      6  N1  PD2 d   1      21.402  26.988  29.093  0.00  0.00    -0.254 NA
ATOM      7  H1  PD2 d   1      18.103  27.446  29.678  0.00  0.00     0.087 H 
ATOM      8  H2  PD2 d   1      20.447  28.546  30.013  0.00  0.00     0.114 H 
ATOM      9  H3  PD2 d   1      20.052  24.116  27.734  0.00  0.00     0.089 H 
ENDROOT
BRANCH   1  10
ATOM     10  C41 PD2 d   1      17.495  25.154  28.610  0.00  0.00     0.209 C 
ATOM     11  O42 PD2 d   1      16.482  25.729  29.378  0.00  0.00    -0.644 OA
ATOM     12  O41 PD2 d   1      17.160  24.408  27.474  0.00  0.00    -0.644 OA
ENDBRANCH   1  10
BRANCH   5  13
ATOM     13  C21 PD2 d   1      22.539  25.078  27.831  0.00  0.00     0.229 C 
ATOM     14  O21 PD2 d   1      23.675  25.874  27.728  0.00  0.00    -0.643 OA
ATOM     15  O22 PD2 d   1      22.472  23.836  27.188  0.00  0.00    -0.643 OA
ENDBRANCH   5  13
TORSDOF 2
