REMARK  22 active torsions:
REMARK  status: ('A' for Active; 'I' for Inactive)
REMARK    1  A    between atoms: N_1  and  CA_2 
REMARK    2  A    between atoms: CA_2  and  C_3 
REMARK    3  A    between atoms: CA_2  and  CB_5 
REMARK       I    between atoms: C_3  and  N_6 
REMARK    4  A    between atoms: CA_7  and  C_8 
REMARK       I    between atoms: C_8  and  N_13 
REMARK    5  A    between atoms: CA_14  and  C_15 
REMARK       I    between atoms: C_15  and  N_20 
REMARK    6  A    between atoms: CA_21  and  C_22 
REMARK       I    between atoms: C_22  and  N_27 
REMARK    7  A    between atoms: N_27  and  CA_28 
REMARK    8  A    between atoms: CA_28  and  C_29 
REMARK    9  A    between atoms: CA_28  and  CB_31 
REMARK       I    between atoms: C_29  and  N_38 
REMARK   10  A    between atoms: CB_31  and  CG_32 
REMARK   11  A    between atoms: CG_32  and  CD_33 
REMARK   12  A    between atoms: CD_33  and  NE_34 
REMARK       I    between atoms: NE_34  and  CZ_35 
REMARK       I    between atoms: CZ_35  and  NH1_36 
REMARK   13  A    between atoms: CA_39  and  C_40 
REMARK       I    between atoms: C_40  and  N_45 
REMARK   14  A    between atoms: CA_46  and  C_47 
REMARK       I    between atoms: C_47  and  N_52 
REMARK   15  A    between atoms: N_52  and  CA_53 
REMARK   16  A    between atoms: CA_53  and  C_54 
REMARK   17  A    between atoms: CA_53  and  CB_56 
REMARK       I    between atoms: C_54  and  N_61 
REMARK   18  A    between atoms: CB_56  and  CG_57 
REMARK   19  A    between atoms: CG_57  and  CD_58 
REMARK   20  A    between atoms: CD_58  and  CE_59 
REMARK   21  A    between atoms: CE_59  and  NZ_60 
REMARK   22  A    between atoms: CA_62  and  C_63 
ROOT
ATOM      1  CA  ARG d   1      15.330  17.108  16.372  0.00  0.00     0.089 C 
ATOM      2  H30 ARG d   1      15.117  16.430  15.533  0.00  0.00     0.087 H 
ENDROOT
BRANCH   1   3
ATOM      3  N   ARG d   1      16.061  18.274  15.881  0.00  0.00    -0.346 N 
ATOM      4  C   PRO d   1      15.534  19.071  14.966  0.00  0.00     0.241 C 
ATOM      5  O   PRO d   1      14.466  18.827  14.390  0.00  0.00    -0.271 OA
ATOM      6  H29 ARG d   1      16.972  18.472  16.242  0.00  0.00     0.163 HD
BRANCH   4   7
ATOM      7  CA  PRO d   1      16.307  20.349  14.638  0.00  0.00     0.091 C 
ATOM      8  N   PRO d   1      16.297  20.699  13.207  0.00  0.00    -0.337 N 
ATOM      9  C   PRO d   1      16.851  19.825  12.352  0.00  0.00     0.243 C 
ATOM     10  CD  PRO d   1      15.574  21.949  12.937  0.00  0.00    -0.001 C 
ATOM     11  O   PRO d   1      17.400  18.798  12.739  0.00  0.00    -0.271 OA
ATOM     12  CG  PRO d   1      15.651  22.649  14.246  0.00  0.00    -0.048 C 
ATOM     13  H27 PRO d   1      14.530  21.752  12.652  0.00  0.00     0.064 H 
ATOM     14  H28 PRO d   1      16.067  22.531  12.145  0.00  0.00     0.064 H 
ATOM     15  CB  PRO d   1      15.600  21.543  15.297  0.00  0.00    -0.036 C 
ATOM     16  H25 PRO d   1      16.591  23.214  14.326  0.00  0.00     0.035 H 
ATOM     17  H26 PRO d   1      14.800  23.335  14.367  0.00  0.00     0.035 H 
ATOM     18  H23 PRO d   1      16.129  21.851  16.211  0.00  0.00     0.036 H 
ATOM     19  H24 PRO d   1      14.558  21.290  15.544  0.00  0.00     0.036 H 
ATOM     20  H22 PRO d   1      17.341  20.248  14.999  0.00  0.00     0.087 H 
BRANCH   9  21
ATOM     21  CA  PRO d   1      16.776  20.147  10.863  0.00  0.00     0.092 C 
ATOM     22  N   PRO d   1      17.865  19.522  10.113  0.00  0.00    -0.337 N 
ATOM     23  C   PRO d   1      19.146  19.872  10.331  0.00  0.00     0.243 C 
ATOM     24  CD  PRO d   1      17.361  18.603   9.070  0.00  0.00    -0.001 C 
ATOM     25  O   PRO d   1      19.492  20.651  11.232  0.00  0.00    -0.271 OA
ATOM     26  CG  PRO d   1      15.912  18.989   8.940  0.00  0.00    -0.048 C 
ATOM     27  H20 PRO d   1      17.463  17.554   9.386  0.00  0.00     0.064 H 
ATOM     28  H21 PRO d   1      17.896  18.753   8.120  0.00  0.00     0.064 H 
ATOM     29  CB  PRO d   1      15.524  19.477  10.273  0.00  0.00    -0.036 C 
ATOM     30  H18 PRO d   1      15.790  19.782   8.188  0.00  0.00     0.035 H 
ATOM     31  H19 PRO d   1      15.304  18.117   8.656  0.00  0.00     0.035 H 
ATOM     32  H16 PRO d   1      14.705  20.206  10.189  0.00  0.00     0.036 H 
ATOM     33  H17 PRO d   1      15.205  18.638  10.909  0.00  0.00     0.036 H 
ATOM     34  H15 PRO d   1      16.765  21.237  10.714  0.00  0.00     0.087 H 
BRANCH  23  35
ATOM     35  CA  PRO d   1      20.222  19.278   9.405  0.00  0.00     0.092 C 
ATOM     36  N   PRO d   1      21.475  20.044   9.534  0.00  0.00    -0.337 N 
ATOM     37  C   ALA d   1      21.439  21.295   9.007  0.00  0.00     0.250 C 
ATOM     38  CD  PRO d   1      22.531  19.273  10.217  0.00  0.00    -0.001 C 
ATOM     39  O   ALA d   1      20.429  21.752   8.486  0.00  0.00    -0.271 OA
ATOM     40  CG  PRO d   1      21.787  18.065  10.768  0.00  0.00    -0.048 C 
ATOM     41  H13 PRO d   1      22.984  19.860  11.029  0.00  0.00     0.064 H 
ATOM     42  H14 PRO d   1      23.313  18.964   9.508  0.00  0.00     0.064 H 
ATOM     43  CB  PRO d   1      20.621  17.860   9.844  0.00  0.00    -0.036 C 
ATOM     44  H11 PRO d   1      22.439  17.179  10.768  0.00  0.00     0.035 H 
ATOM     45  H12 PRO d   1      21.437  18.263  11.792  0.00  0.00     0.035 H 
ATOM     46  H9  PRO d   1      20.916  17.253   8.975  0.00  0.00     0.036 H 
ATOM     47  H10 PRO d   1      19.790  17.368  10.370  0.00  0.00     0.036 H 
ATOM     48  H8  PRO d   1      19.859  19.280   8.367  0.00  0.00     0.087 H 
BRANCH  37  49
ATOM     49  CA  ALA d   1      22.703  22.158   9.061  0.00  0.00     0.172 C 
ATOM     50  H4  ALA d   1      23.584  21.507   8.965  0.00  0.00     0.098 H 
BRANCH  49  51
ATOM     51  N   ALA d   1      22.684  23.128   7.912  0.00  0.00    -0.067 N 
ATOM     52  H1  ALA d   1      23.514  23.700   7.941  0.00  0.00     0.275 HD
ATOM     53  H2  ALA d   1      21.868  23.716   7.982  0.00  0.00     0.275 HD
ATOM     54  H3  ALA d   1      22.657  22.619   7.043  0.00  0.00     0.275 HD
ENDBRANCH  49  51
BRANCH  49  55
ATOM     55  CB  ALA d   1      22.786  22.880  10.347  0.00  0.00    -0.042 C 
ATOM     56  H5  ALA d   1      22.799  22.155  11.174  0.00  0.00     0.030 H 
ATOM     57  H6  ALA d   1      21.914  23.542  10.453  0.00  0.00     0.030 H 
ATOM     58  H7  ALA d   1      23.707  23.481  10.371  0.00  0.00     0.030 H 
ENDBRANCH  49  55
ENDBRANCH  37  49
ENDBRANCH  23  35
ENDBRANCH   9  21
ENDBRANCH   4   7
ENDBRANCH   1   3
BRANCH   1  59
ATOM     59  C   ARG d   1      14.009  17.604  16.977  0.00  0.00     0.243 C 
ATOM     60  O   ARG d   1      14.029  18.525  17.819  0.00  0.00    -0.271 OA
ATOM     61  N   PRO d   1      12.868  17.012  16.554  0.00  0.00    -0.337 N 
ATOM     62  CA  PRO d   1      11.572  17.446  17.066  0.00  0.00     0.092 C 
ATOM     63  CD  PRO d   1      12.748  15.901  15.579  0.00  0.00    -0.001 C 
ATOM     64  CB  PRO d   1      10.562  16.844  16.068  0.00  0.00    -0.036 C 
ATOM     65  H42 PRO d   1      11.503  18.544  17.065  0.00  0.00     0.087 H 
ATOM     66  CG  PRO d   1      11.258  15.707  15.414  0.00  0.00    -0.048 C 
ATOM     67  H43 PRO d   1      10.271  17.595  15.319  0.00  0.00     0.036 H 
ATOM     68  H44 PRO d   1       9.666  16.489  16.599  0.00  0.00     0.036 H 
ATOM     69  H45 PRO d   1      11.003  15.681  14.344  0.00  0.00     0.035 H 
ATOM     70  H46 PRO d   1      10.952  14.762  15.887  0.00  0.00     0.035 H 
ATOM     71  H47 PRO d   1      13.219  14.987  15.970  0.00  0.00     0.064 H 
ATOM     72  H48 PRO d   1      13.214  16.172  14.620  0.00  0.00     0.064 H 
BRANCH  62  73
ATOM     73  C   PRO d   1      11.348  16.939  18.478  0.00  0.00     0.243 C 
ATOM     74  O   PRO d   1      12.113  16.096  18.976  0.00  0.00    -0.271 OA
ATOM     75  N   PRO d   1      10.313  17.476  19.151  0.00  0.00    -0.337 N 
ATOM     76  CA  PRO d   1      10.085  17.080  20.525  0.00  0.00     0.091 C 
ATOM     77  CD  PRO d   1       9.304  18.440  18.665  0.00  0.00    -0.001 C 
ATOM     78  CB  PRO d   1       8.854  17.912  20.938  0.00  0.00    -0.036 C 
ATOM     79  H49 PRO d   1      10.956  17.315  21.155  0.00  0.00     0.087 H 
ATOM     80  CG  PRO d   1       8.764  19.038  19.937  0.00  0.00    -0.048 C 
ATOM     81  H50 PRO d   1       8.986  18.312  21.954  0.00  0.00     0.036 H 
ATOM     82  H51 PRO d   1       7.945  17.294  20.902  0.00  0.00     0.036 H 
ATOM     83  H52 PRO d   1       9.376  19.895  20.256  0.00  0.00     0.035 H 
ATOM     84  H53 PRO d   1       7.721  19.361  19.805  0.00  0.00     0.035 H 
ATOM     85  H54 PRO d   1       8.510  17.930  18.100  0.00  0.00     0.064 H 
ATOM     86  H55 PRO d   1       9.767  19.211  18.032  0.00  0.00     0.064 H 
BRANCH  76  87
ATOM     87  C   PRO d   1       9.767  15.597  20.619  0.00  0.00     0.241 C 
ATOM     88  O   PRO d   1       9.013  15.054  19.796  0.00  0.00    -0.271 OA
ATOM     89  N   LYS d   1      10.353  14.931  21.600  0.00  0.00    -0.346 N 
ATOM     90  H56 LYS d   1      11.112  15.336  22.109  0.00  0.00     0.163 HD
BRANCH  89  91
ATOM     91  CA  LYS d   1       9.871  13.600  21.922  0.00  0.00     0.089 C 
ATOM     92  H57 LYS d   1       9.669  13.062  20.984  0.00  0.00     0.087 H 
BRANCH  91  93
ATOM     93  C   LYS d   1       8.553  13.746  22.690  0.00  0.00     0.243 C 
ATOM     94  O   LYS d   1       8.442  14.610  23.574  0.00  0.00    -0.271 OA
ATOM     95  N   PRO d   1       7.539  12.938  22.332  0.00  0.00    -0.339 N 
ATOM     96  CA  PRO d   1       6.188  13.063  22.921  0.00  0.00     0.065 C 
ATOM     97  CD  PRO d   1       7.595  11.884  21.296  0.00  0.00    -0.001 C 
ATOM     98  CB  PRO d   1       5.362  12.044  22.130  0.00  0.00    -0.039 C 
ATOM     99  H69 PRO d   1       5.806  14.082  22.757  0.00  0.00     0.084 H 
ATOM    100  CG  PRO d   1       6.374  11.080  21.559  0.00  0.00    -0.048 C 
ATOM    101  H71 PRO d   1       4.804  12.541  21.323  0.00  0.00     0.036 H 
ATOM    102  H72 PRO d   1       4.659  11.519  22.793  0.00  0.00     0.036 H 
ATOM    103  H73 PRO d   1       5.998  10.638  20.625  0.00  0.00     0.035 H 
ATOM    104  H74 PRO d   1       6.591  10.280  22.282  0.00  0.00     0.035 H 
ATOM    105  H75 PRO d   1       8.502  11.271  21.406  0.00  0.00     0.064 H 
ATOM    106  H76 PRO d   1       7.569  12.322  20.287  0.00  0.00     0.064 H 
BRANCH  96 107
ATOM    107  C   PRO d   1       6.109  12.754  24.426  0.00  0.00     0.110 C 
ATOM    108  O   PRO d   1       7.047  12.193  25.003  0.00  0.00    -0.305 OA
ATOM    109  H70 PRO d   1       5.219  13.032  24.988  0.00  0.00     0.146 H 
ENDBRANCH  96 107
ENDBRANCH  91  93
BRANCH  91 110
ATOM    110  CB  LYS d   1      10.909  12.810  22.696  0.00  0.00    -0.038 C 
ATOM    111  H58 LYS d   1      10.463  11.858  23.019  0.00  0.00     0.036 H 
ATOM    112  H59 LYS d   1      11.212  13.391  23.579  0.00  0.00     0.036 H 
BRANCH 110 113
ATOM    113  CG  LYS d   1      12.133  12.518  21.859  0.00  0.00    -0.061 C 
ATOM    114  H60 LYS d   1      12.961  13.152  22.210  0.00  0.00     0.033 H 
ATOM    115  H61 LYS d   1      11.908  12.757  20.809  0.00  0.00     0.033 H 
BRANCH 113 116
ATOM    116  CD  LYS d   1      12.552  11.093  21.946  0.00  0.00    -0.043 C 
ATOM    117  H62 LYS d   1      11.755  10.452  21.542  0.00  0.00     0.035 H 
ATOM    118  H63 LYS d   1      12.737  10.829  22.998  0.00  0.00     0.035 H 
BRANCH 116 119
ATOM    119  CE  LYS d   1      13.824  10.886  21.142  0.00  0.00     0.080 C 
ATOM    120  H64 LYS d   1      14.562  11.645  21.441  0.00  0.00     0.075 H 
ATOM    121  H65 LYS d   1      13.592  11.001  20.073  0.00  0.00     0.075 H 
BRANCH 119 122
ATOM    122  NZ  LYS d   1      14.399   9.548  21.364  0.00  0.00    -0.079 N 
ATOM    123  H66 LYS d   1      15.239   9.448  20.816  0.00  0.00     0.274 HD
ATOM    124  H67 LYS d   1      13.732   8.845  21.087  0.00  0.00     0.274 HD
ATOM    125  H68 LYS d   1      14.620   9.435  22.341  0.00  0.00     0.274 HD
ENDBRANCH 119 122
ENDBRANCH 116 119
ENDBRANCH 113 116
ENDBRANCH 110 113
ENDBRANCH  91 110
ENDBRANCH  89  91
ENDBRANCH  76  87
ENDBRANCH  62  73
ENDBRANCH   1  59
BRANCH   1 126
ATOM    126  CB  ARG d   1      16.154  16.354  17.421  0.00  0.00    -0.036 C 
ATOM    127  H31 ARG d   1      15.554  15.505  17.781  0.00  0.00     0.036 H 
ATOM    128  H32 ARG d   1      16.355  17.041  18.256  0.00  0.00     0.036 H 
BRANCH 126 129
ATOM    129  CG  ARG d   1      17.498  15.808  16.920  0.00  0.00    -0.048 C 
ATOM    130  H33 ARG d   1      17.950  16.550  16.246  0.00  0.00     0.035 H 
ATOM    131  H34 ARG d   1      17.315  14.875  16.367  0.00  0.00     0.035 H 
BRANCH 129 132
ATOM    132  CD  ARG d   1      18.476  15.519  18.055  0.00  0.00     0.009 C 
ATOM    133  H35 ARG d   1      18.818  16.478  18.472  0.00  0.00     0.064 H 
ATOM    134  H36 ARG d   1      19.336  14.971  17.642  0.00  0.00     0.064 H 
BRANCH 132 135
ATOM    135  NE  ARG d   1      17.893  14.718  19.145  0.00  0.00    -0.227 N 
ATOM    136  CZ  ARG d   1      17.872  13.383  19.196  0.00  0.00     0.665 C 
ATOM    137  NH1 ARG d   1      17.292  12.773  20.227  0.00  0.00    -0.235 N 
ATOM    138  NH2 ARG d   1      18.418  12.643  18.235  0.00  0.00    -0.235 N 
ATOM    139  H38 ARG d   1      17.273  11.744  20.272  0.00  0.00     0.174 HD
ATOM    140  H39 ARG d   1      16.863  13.330  20.980  0.00  0.00     0.174 HD
ATOM    141  H40 ARG d   1      18.871  13.098  17.430  0.00  0.00     0.174 HD
ATOM    142  H41 ARG d   1      18.388  11.615  18.296  0.00  0.00     0.174 HD
ATOM    143  H37 ARG d   1      17.467  15.228  19.932  0.00  0.00     0.177 HD
ENDBRANCH 132 135
ENDBRANCH 129 132
ENDBRANCH 126 129
ENDBRANCH   1 126
TORSDOF 22
