REMARK WARNING: 32 MAX_TORS EXCEEDED!!!
REMARK  39 active torsions:
REMARK  status: ('A' for Active; 'I' for Inactive)
REMARK    1  A    between atoms: CA_2  and  C_3 
REMARK       I    between atoms: C_3  and  N_8 
REMARK    2  A    between atoms: CA_9  and  C_10 
REMARK       I    between atoms: C_10  and  N_15 
REMARK    3  A    between atoms: CA_16  and  C_17 
REMARK       I    between atoms: C_17  and  N_22 
REMARK    4  A    between atoms: N_22  and  CA_23 
REMARK    5  A    between atoms: CA_23  and  C_24 
REMARK    6  A    between atoms: CA_23  and  CB_26 
REMARK       I    between atoms: C_24  and  N_33 
REMARK    7  A    between atoms: CB_26  and  CG_27 
REMARK    8  A    between atoms: CG_27  and  CD_28 
REMARK    9  A    between atoms: CD_28  and  NE_29 
REMARK       I    between atoms: NE_29  and  CZ_30 
REMARK       I    between atoms: CZ_30  and  NH1_31 
REMARK   10  A    between atoms: CA_34  and  C_35 
REMARK       I    between atoms: C_35  and  N_40 
REMARK   11  A    between atoms: N_40  and  CA_41 
REMARK   12  A    between atoms: CA_41  and  C_42 
REMARK   13  A    between atoms: CA_41  and  CB_44 
REMARK       I    between atoms: C_42  and  N_47 
REMARK   14  A    between atoms: CB_44  and  OG1_45 
REMARK   15  A    between atoms: CB_44  and  CG2_46 
REMARK   16  A    between atoms: N_47  and  CA_48 
REMARK   17  A    between atoms: CA_48  and  C_49 
REMARK   18  A    between atoms: CA_48  and  CB_51 
REMARK       I    between atoms: C_49  and  N_52 
REMARK   19  A    between atoms: CA_53  and  C_54 
REMARK       I    between atoms: C_54  and  N_59 
REMARK   20  A    between atoms: N_59  and  CA_60 
REMARK   21  A    between atoms: CA_60  and  C_61 
REMARK   22  A    between atoms: CA_60  and  CB_63 
REMARK       I    between atoms: C_61  and  N_68 
REMARK   23  A    between atoms: CB_63  and  CG_64 
REMARK   24  A    between atoms: CG_64  and  CD_65 
REMARK   25  A    between atoms: CD_65  and  CE_66 
REMARK   26  A    between atoms: CE_66  and  NZ_67 
REMARK   27  A    between atoms: CA_69  and  C_70 
REMARK       I    between atoms: C_70  and  N_75 
REMARK   28  A    between atoms: N_75  and  CA_76 
REMARK   29  A    between atoms: CA_76  and  C_77 
REMARK   30  A    between atoms: CA_76  and  CB_79 
REMARK       I    between atoms: C_77  and  N_83 
REMARK   31  A    between atoms: CB_79  and  CG_80 
REMARK   32  A    between atoms: CG_80  and  CD1_81 
REMARK   33  A    between atoms: CG_80  and  CD2_82 
REMARK   34  A    between atoms: N_83  and  CA_84 
REMARK   35  A    between atoms: CA_84  and  C_85 
REMARK   36  A    between atoms: CA_84  and  CB_87 
REMARK   37  A    between atoms: CB_87  and  CG_88 
REMARK   38  A    between atoms: CG_88  and  CD1_89 
REMARK   39  A    between atoms: CG_88  and  CD2_90 
ROOT
ATOM      1  C   THR d   1      -4.282 -14.850  -3.507  0.00  0.00     0.243 C 
ATOM      2  O   THR d   1      -4.867 -15.386  -4.451  0.00  0.00    -0.271 OA
ATOM      3  N   ALA d   1      -4.944 -14.106  -2.625  0.00  0.00    -0.346 N 
ATOM      4  H51 ALA d   1      -4.466 -13.705  -1.844  0.00  0.00     0.163 HD
ENDROOT
BRANCH   3   5
ATOM      5  CA  ALA d   1      -6.367 -13.882  -2.807  0.00  0.00     0.086 C 
ATOM      6  H52 ALA d   1      -6.876 -14.854  -2.884  0.00  0.00     0.086 H 
BRANCH   5   7
ATOM      7  C   ALA d   1      -6.595 -13.090  -4.095  0.00  0.00     0.243 C 
ATOM      8  O   ALA d   1      -5.731 -12.275  -4.488  0.00  0.00    -0.271 OA
ATOM      9  N   PRO d   1      -7.765 -13.278  -4.747  0.00  0.00    -0.337 N 
ATOM     10  CA  PRO d   1      -8.113 -12.402  -5.876  0.00  0.00     0.091 C 
ATOM     11  CD  PRO d   1      -8.778 -14.315  -4.550  0.00  0.00    -0.001 C 
ATOM     12  CB  PRO d   1      -9.482 -12.910  -6.311  0.00  0.00    -0.036 C 
ATOM     13  H56 PRO d   1      -7.380 -12.491  -6.691  0.00  0.00     0.087 H 
ATOM     14  CG  PRO d   1      -9.498 -14.306  -5.879  0.00  0.00    -0.048 C 
ATOM     15  H57 PRO d   1      -9.597 -12.838  -7.403  0.00  0.00     0.036 H 
ATOM     16  H58 PRO d   1     -10.284 -12.340  -5.820  0.00  0.00     0.036 H 
ATOM     17  H59 PRO d   1      -8.973 -14.942  -6.607  0.00  0.00     0.035 H 
ATOM     18  H60 PRO d   1     -10.532 -14.662  -5.760  0.00  0.00     0.035 H 
ATOM     19  H61 PRO d   1      -9.458 -14.058  -3.725  0.00  0.00     0.064 H 
ATOM     20  H62 PRO d   1      -8.316 -15.293  -4.352  0.00  0.00     0.064 H 
BRANCH  10  21
ATOM     21  C   PRO d   1      -8.193 -10.959  -5.410  0.00  0.00     0.241 C 
ATOM     22  O   PRO d   1      -8.568 -10.713  -4.266  0.00  0.00    -0.271 OA
ATOM     23  N   LYS d   1      -7.797 -10.024  -6.261  0.00  0.00    -0.346 N 
ATOM     24  H63 LYS d   1      -7.514 -10.285  -7.184  0.00  0.00     0.163 HD
BRANCH  23  25
ATOM     25  CA  LYS d   1      -7.769  -8.623  -5.870  0.00  0.00     0.089 C 
ATOM     26  H64 LYS d   1      -7.519  -8.566  -4.800  0.00  0.00     0.087 H 
BRANCH  25  27
ATOM     27  C   LYS d   1      -9.133  -7.996  -6.079  0.00  0.00     0.243 C 
ATOM     28  O   LYS d   1      -9.836  -8.311  -7.051  0.00  0.00    -0.271 OA
ATOM     29  N   PRO d   1      -9.534  -7.112  -5.166  0.00  0.00    -0.337 N 
ATOM     30  CA  PRO d   1     -10.766  -6.388  -5.444  0.00  0.00     0.091 C 
ATOM     31  CD  PRO d   1      -8.936  -6.778  -3.859  0.00  0.00    -0.001 C 
ATOM     32  CB  PRO d   1     -11.055  -5.655  -4.128  0.00  0.00    -0.036 C 
ATOM     33  H76 PRO d   1     -11.582  -7.080  -5.697  0.00  0.00     0.087 H 
ATOM     34  CG  PRO d   1      -9.760  -5.672  -3.347  0.00  0.00    -0.048 C 
ATOM     35  H77 PRO d   1     -11.846  -6.174  -3.567  0.00  0.00     0.036 H 
ATOM     36  H78 PRO d   1     -11.367  -4.619  -4.328  0.00  0.00     0.036 H 
ATOM     37  H79 PRO d   1      -9.970  -5.827  -2.278  0.00  0.00     0.035 H 
ATOM     38  H80 PRO d   1      -9.230  -4.718  -3.482  0.00  0.00     0.035 H 
ATOM     39  H81 PRO d   1      -7.890  -6.459  -3.980  0.00  0.00     0.064 H 
ATOM     40  H82 PRO d   1      -8.980  -7.642  -3.179  0.00  0.00     0.064 H 
BRANCH  30  41
ATOM     41  C   PRO d   1     -10.564  -5.399  -6.582  0.00  0.00     0.241 C 
ATOM     42  O   PRO d   1      -9.430  -5.072  -6.912  0.00  0.00    -0.271 OA
ATOM     43  N   LEU d   1     -11.647  -4.920  -7.185  0.00  0.00    -0.346 N 
ATOM     44  H83 LEU d   1     -12.552  -5.264  -6.936  0.00  0.00     0.163 HD
BRANCH  43  45
ATOM     45  CA  LEU d   1     -11.514  -3.889  -8.213  0.00  0.00     0.089 C 
ATOM     46  H84 LEU d   1     -10.649  -4.150  -8.841  0.00  0.00     0.087 H 
BRANCH  45  47
ATOM     47  C   LEU d   1     -11.250  -2.526  -7.592  0.00  0.00     0.241 C 
ATOM     48  O   LEU d   1     -11.564  -2.300  -6.422  0.00  0.00    -0.271 OA
ATOM     49  N   LEU d   1     -10.610  -1.636  -8.349  0.00  0.00    -0.348 N 
ATOM     50  H94 LEU d   1     -10.108  -1.947  -9.156  0.00  0.00     0.163 HD
BRANCH  49  51
ATOM     51  CA  LEU d   1     -10.630  -0.200  -8.016  0.00  0.00     0.063 C 
ATOM     52  H95 LEU d   1     -11.420  -0.048  -7.266  0.00  0.00     0.083 H 
BRANCH  51  53
ATOM     53  C   LEU d   1     -10.979   0.638  -9.225  0.00  0.00     0.109 C 
ATOM     54  O   LEU d   1     -10.667   0.253 -10.348  0.00  0.00    -0.305 OA
ATOM     55  H96 LEU d   1     -11.507   1.582  -9.100  0.00  0.00     0.146 H 
ENDBRANCH  51  53
BRANCH  51  56
ATOM     56  CB  LEU d   1      -9.314   0.262  -7.395  0.00  0.00    -0.037 C 
ATOM     57  H97 LEU d   1      -9.437   0.165  -6.306  0.00  0.00     0.037 H 
ATOM     58  H98 LEU d   1      -9.206   1.324  -7.659  0.00  0.00     0.037 H 
BRANCH  56  59
ATOM     59  CG  LEU d   1      -7.975  -0.403  -7.736  0.00  0.00    -0.059 C 
ATOM     60  H99 LEU d   1      -8.025  -1.470  -7.476  0.00  0.00     0.038 H 
BRANCH  59  61
ATOM     61  CD1 LEU d   1      -7.649  -0.283  -9.184  0.00  0.00    -0.073 C 
ATOM     62 0H10 LEU d   1      -6.684  -0.772  -9.384  0.00  0.00     0.028 H 
ATOM     63 1H10 LEU d   1      -7.586   0.780  -9.459  0.00  0.00     0.028 H 
ATOM     64 2H10 LEU d   1      -8.437  -0.769  -9.779  0.00  0.00     0.028 H 
ENDBRANCH  59  61
BRANCH  59  65
ATOM     65  CD2 LEU d   1      -6.923   0.265  -6.906  0.00  0.00    -0.073 C 
ATOM     66 3H10 LEU d   1      -7.179   0.167  -5.841  0.00  0.00     0.028 H 
ATOM     67 4H10 LEU d   1      -6.867   1.331  -7.173  0.00  0.00     0.028 H 
ATOM     68 5H10 LEU d   1      -5.950  -0.212  -7.094  0.00  0.00     0.028 H 
ENDBRANCH  59  65
ENDBRANCH  56  59
ENDBRANCH  51  56
ENDBRANCH  49  51
ENDBRANCH  45  47
BRANCH  45  69
ATOM     69  CB  LEU d   1     -12.749  -3.834  -9.112  0.00  0.00    -0.035 C 
ATOM     70  H85 LEU d   1     -12.771  -2.849  -9.601  0.00  0.00     0.037 H 
ATOM     71  H86 LEU d   1     -13.639  -3.948  -8.476  0.00  0.00     0.037 H 
BRANCH  69  72
ATOM     72  CG  LEU d   1     -12.804  -4.912 -10.207  0.00  0.00    -0.059 C 
ATOM     73  H87 LEU d   1     -13.122  -4.407 -11.131  0.00  0.00     0.038 H 
BRANCH  72  74
ATOM     74  CD1 LEU d   1     -11.423  -5.567 -10.499  0.00  0.00    -0.073 C 
ATOM     75  H88 LEU d   1     -11.536  -6.325 -11.288  0.00  0.00     0.028 H 
ATOM     76  H89 LEU d   1     -11.043  -6.045  -9.584  0.00  0.00     0.028 H 
ATOM     77  H90 LEU d   1     -10.714  -4.795 -10.831  0.00  0.00     0.028 H 
ENDBRANCH  72  74
BRANCH  72  78
ATOM     78  CD2 LEU d   1     -13.831  -5.977  -9.902  0.00  0.00    -0.073 C 
ATOM     79  H91 LEU d   1     -14.802  -5.502  -9.697  0.00  0.00     0.028 H 
ATOM     80  H92 LEU d   1     -13.512  -6.553  -9.021  0.00  0.00     0.028 H 
ATOM     81  H93 LEU d   1     -13.927  -6.652 -10.766  0.00  0.00     0.028 H 
ENDBRANCH  72  78
ENDBRANCH  69  72
ENDBRANCH  45  69
ENDBRANCH  43  45
ENDBRANCH  30  41
ENDBRANCH  25  27
BRANCH  25  82
ATOM     82  CB  LYS d   1      -6.702  -7.852  -6.656  0.00  0.00    -0.038 C 
ATOM     83  H65 LYS d   1      -6.960  -6.783  -6.639  0.00  0.00     0.036 H 
ATOM     84  H66 LYS d   1      -6.704  -8.213  -7.695  0.00  0.00     0.036 H 
BRANCH  82  85
ATOM     85  CG  LYS d   1      -5.303  -8.020  -6.089  0.00  0.00    -0.061 C 
ATOM     86  H67 LYS d   1      -5.103  -9.096  -5.976  0.00  0.00     0.033 H 
ATOM     87  H68 LYS d   1      -5.270  -7.535  -5.102  0.00  0.00     0.033 H 
BRANCH  85  88
ATOM     88  CD  LYS d   1      -4.222  -7.427  -6.941  0.00  0.00    -0.043 C 
ATOM     89  H69 LYS d   1      -3.334  -7.239  -6.319  0.00  0.00     0.035 H 
ATOM     90  H70 LYS d   1      -4.578  -6.478  -7.368  0.00  0.00     0.035 H 
BRANCH  88  91
ATOM     91  CE  LYS d   1      -3.853  -8.367  -8.061  0.00  0.00     0.080 C 
ATOM     92  H71 LYS d   1      -4.750  -8.560  -8.667  0.00  0.00     0.075 H 
ATOM     93  H72 LYS d   1      -3.496  -9.311  -7.623  0.00  0.00     0.075 H 
BRANCH  91  94
ATOM     94  NZ  LYS d   1      -2.810  -7.834  -8.931  0.00  0.00    -0.079 N 
ATOM     95  H73 LYS d   1      -2.605  -8.502  -9.658  0.00  0.00     0.274 HD
ATOM     96  H74 LYS d   1      -1.978  -7.660  -8.390  0.00  0.00     0.274 HD
ATOM     97  H75 LYS d   1      -3.127  -6.972  -9.346  0.00  0.00     0.274 HD
ENDBRANCH  91  94
ENDBRANCH  88  91
ENDBRANCH  85  88
ENDBRANCH  82  85
ENDBRANCH  25  82
ENDBRANCH  23  25
ENDBRANCH  10  21
ENDBRANCH   5   7
BRANCH   5  98
ATOM     98  CB  ALA d   1      -6.936 -13.124  -1.645  0.00  0.00    -0.049 C 
ATOM     99  H53 ALA d   1      -8.013 -12.965  -1.803  0.00  0.00     0.030 H 
ATOM    100  H54 ALA d   1      -6.431 -12.151  -1.559  0.00  0.00     0.030 H 
ATOM    101  H55 ALA d   1      -6.782 -13.700  -0.721  0.00  0.00     0.030 H 
ENDBRANCH   5  98
ENDBRANCH   3   5
BRANCH   1 102
ATOM    102  CA  THR d   1      -2.775 -15.010  -3.346  0.00  0.00     0.113 C 
ATOM    103  H45 THR d   1      -2.284 -14.618  -4.249  0.00  0.00     0.091 H 
BRANCH 102 104
ATOM    104  N   THR d   1      -2.268 -14.273  -2.209  0.00  0.00    -0.344 N 
ATOM    105  C   PRO d   1      -1.442 -13.237  -2.347  0.00  0.00     0.241 C 
ATOM    106  O   PRO d   1      -0.934 -12.907  -3.413  0.00  0.00    -0.271 OA
ATOM    107  H44 THR d   1      -2.547 -14.550  -1.290  0.00  0.00     0.163 HD
BRANCH 105 108
ATOM    108  CA  PRO d   1      -1.085 -12.469  -1.084  0.00  0.00     0.091 C 
ATOM    109  N   PRO d   1       0.233 -11.821  -1.275  0.00  0.00    -0.337 N 
ATOM    110  C   ARG d   1       1.316 -12.606  -1.360  0.00  0.00     0.243 C 
ATOM    111  CD  PRO d   1       0.126 -10.364  -1.354  0.00  0.00    -0.001 C 
ATOM    112  O   ARG d   1       1.285 -13.828  -1.100  0.00  0.00    -0.271 OA
ATOM    113  CG  PRO d   1      -1.212 -10.089  -0.780  0.00  0.00    -0.048 C 
ATOM    114  H42 PRO d   1       0.185 -10.021  -2.397  0.00  0.00     0.064 H 
ATOM    115  H43 PRO d   1       0.916  -9.878  -0.762  0.00  0.00     0.064 H 
ATOM    116  CB  PRO d   1      -2.043 -11.307  -0.874  0.00  0.00    -0.036 C 
ATOM    117  H40 PRO d   1      -1.106  -9.797   0.275  0.00  0.00     0.035 H 
ATOM    118  H41 PRO d   1      -1.692  -9.273  -1.340  0.00  0.00     0.035 H 
ATOM    119  H38 PRO d   1      -2.615 -11.449   0.055  0.00  0.00     0.036 H 
ATOM    120  H39 PRO d   1      -2.737 -11.229  -1.724  0.00  0.00     0.036 H 
ATOM    121  H37 PRO d   1      -1.082 -13.144  -0.215  0.00  0.00     0.087 H 
BRANCH 110 122
ATOM    122  CA  ARG d   1       2.629 -11.938  -1.776  0.00  0.00     0.089 C 
ATOM    123  H25 ARG d   1       2.670 -10.920  -1.361  0.00  0.00     0.087 H 
BRANCH 122 124
ATOM    124  N   ARG d   1       3.740 -12.706  -1.253  0.00  0.00    -0.346 N 
ATOM    125  C   PRO d   1       3.899 -12.887   0.054  0.00  0.00     0.241 C 
ATOM    126  O   PRO d   1       3.221 -12.320   0.919  0.00  0.00    -0.271 OA
ATOM    127  H24 ARG d   1       4.400 -13.108  -1.888  0.00  0.00     0.163 HD
BRANCH 125 128
ATOM    128  CA  PRO d   1       4.996 -13.868   0.471  0.00  0.00     0.091 C 
ATOM    129  N   PRO d   1       5.534 -13.495   1.744  0.00  0.00    -0.337 N 
ATOM    130  C   PRO d   1       6.132 -12.310   1.928  0.00  0.00     0.243 C 
ATOM    131  CD  PRO d   1       5.258 -14.510   2.775  0.00  0.00    -0.001 C 
ATOM    132  O   PRO d   1       6.321 -11.468   1.006  0.00  0.00    -0.271 OA
ATOM    133  CG  PRO d   1       4.911 -15.714   2.011  0.00  0.00    -0.048 C 
ATOM    134  H22 PRO d   1       4.419 -14.198   3.414  0.00  0.00     0.064 H 
ATOM    135  H23 PRO d   1       6.148 -14.686   3.397  0.00  0.00     0.064 H 
ATOM    136  CB  PRO d   1       4.363 -15.230   0.736  0.00  0.00    -0.036 C 
ATOM    137  H20 PRO d   1       5.806 -16.328   1.835  0.00  0.00     0.035 H 
ATOM    138  H21 PRO d   1       4.159 -16.308   2.551  0.00  0.00     0.035 H 
ATOM    139  H18 PRO d   1       4.616 -15.929  -0.074  0.00  0.00     0.036 H 
ATOM    140  H19 PRO d   1       3.270 -15.132   0.807  0.00  0.00     0.036 H 
ATOM    141  H17 PRO d   1       5.779 -13.922  -0.300  0.00  0.00     0.087 H 
BRANCH 130 142
ATOM    142  CA  PRO d   1       6.496 -11.963   3.363  0.00  0.00     0.092 C 
ATOM    143  N   PRO d   1       7.440 -10.868   3.416  0.00  0.00    -0.337 N 
ATOM    144  C   PRO d   1       8.672 -10.973   2.896  0.00  0.00     0.251 C 
ATOM    145  CD  PRO d   1       6.895  -9.701   4.127  0.00  0.00    -0.001 C 
ATOM    146  O   PRO d   1       9.140 -12.024   2.466  0.00  0.00    -0.271 OA
ATOM    147  CG  PRO d   1       5.713 -10.218   4.821  0.00  0.00    -0.048 C 
ATOM    148  H15 PRO d   1       6.614  -8.909   3.417  0.00  0.00     0.064 H 
ATOM    149  H16 PRO d   1       7.627  -9.306   4.846  0.00  0.00     0.064 H 
ATOM    150  CB  PRO d   1       5.238 -11.397   4.050  0.00  0.00    -0.036 C 
ATOM    151  H13 PRO d   1       5.978 -10.518   5.846  0.00  0.00     0.035 H 
ATOM    152  H14 PRO d   1       4.928  -9.448   4.856  0.00  0.00     0.035 H 
ATOM    153  H11 PRO d   1       4.796 -12.146   4.724  0.00  0.00     0.036 H 
ATOM    154  H12 PRO d   1       4.493 -11.093   3.300  0.00  0.00     0.036 H 
ATOM    155  H10 PRO d   1       6.885 -12.850   3.885  0.00  0.00     0.087 H 
BRANCH 144 156
ATOM    156  CA  PRO d   1       9.474  -9.689   2.792  0.00  0.00     0.178 C 
ATOM    157  N   PRO d   1      10.874  -9.903   2.456  0.00  0.00    -0.062 N 
ATOM    158  CD  PRO d   1      11.167  -9.580   1.041  0.00  0.00     0.083 C 
ATOM    159  H1  PRO d   1      11.103 -10.870   2.622  0.00  0.00     0.278 HD
ATOM    160  H2  PRO d   1      11.443  -9.317   3.047  0.00  0.00     0.278 HD
ATOM    161  CG  PRO d   1      10.004  -8.690   0.617  0.00  0.00    -0.040 C 
ATOM    162  H8  PRO d   1      11.202 -10.494   0.430  0.00  0.00     0.075 H 
ATOM    163  H9  PRO d   1      12.123  -9.043   0.952  0.00  0.00     0.075 H 
ATOM    164  CB  PRO d   1       8.906  -8.863   1.601  0.00  0.00    -0.028 C 
ATOM    165  H6  PRO d   1      10.327  -7.638   0.600  0.00  0.00     0.035 H 
ATOM    166  H7  PRO d   1       9.656  -8.983  -0.385  0.00  0.00     0.035 H 
ATOM    167  H4  PRO d   1       8.561  -7.881   1.956  0.00  0.00     0.036 H 
ATOM    168  H5  PRO d   1       8.066  -9.401   1.137  0.00  0.00     0.036 H 
ATOM    169  H3  PRO d   1       9.394  -9.131   3.737  0.00  0.00     0.099 H 
ENDBRANCH 144 156
ENDBRANCH 130 142
ENDBRANCH 125 128
ENDBRANCH 122 124
BRANCH 122 170
ATOM    170  CB  ARG d   1       2.682 -11.858  -3.297  0.00  0.00    -0.036 C 
ATOM    171  H26 ARG d   1       1.756 -11.376  -3.643  0.00  0.00     0.036 H 
ATOM    172  H27 ARG d   1       2.729 -12.885  -3.688  0.00  0.00     0.036 H 
BRANCH 170 173
ATOM    173  CG  ARG d   1       3.861 -11.080  -3.879  0.00  0.00    -0.048 C 
ATOM    174  H28 ARG d   1       4.795 -11.460  -3.441  0.00  0.00     0.035 H 
ATOM    175  H29 ARG d   1       3.747 -10.014  -3.631  0.00  0.00     0.035 H 
BRANCH 173 176
ATOM    176  CD  ARG d   1       3.919 -11.234  -5.364  0.00  0.00     0.009 C 
ATOM    177  H30 ARG d   1       4.355 -12.215  -5.601  0.00  0.00     0.064 H 
ATOM    178  H31 ARG d   1       4.557 -10.439  -5.777  0.00  0.00     0.064 H 
BRANCH 176 179
ATOM    179  NE  ARG d   1       2.594 -11.145  -5.984  0.00  0.00    -0.227 N 
ATOM    180  CZ  ARG d   1       2.076 -10.052  -6.544  0.00  0.00     0.665 C 
ATOM    181  NH1 ARG d   1       0.866 -10.116  -7.077  0.00  0.00    -0.235 N 
ATOM    182  NH2 ARG d   1       2.754  -8.906  -6.585  0.00  0.00    -0.235 N 
ATOM    183  H33 ARG d   1       0.451  -9.281  -7.514  0.00  0.00     0.174 HD
ATOM    184  H34 ARG d   1       0.340 -11.001  -7.055  0.00  0.00     0.174 HD
ATOM    185  H35 ARG d   1       3.696  -8.850  -6.172  0.00  0.00     0.174 HD
ATOM    186  H36 ARG d   1       2.336  -8.076  -7.030  0.00  0.00     0.174 HD
ATOM    187  H32 ARG d   1       2.015 -11.997  -5.987  0.00  0.00     0.177 HD
ENDBRANCH 176 179
ENDBRANCH 173 176
ENDBRANCH 170 173
ENDBRANCH 122 170
ENDBRANCH 110 122
ENDBRANCH 105 108
ENDBRANCH 102 104
BRANCH 102 188
ATOM    188  CB  THR d   1      -2.458 -16.507  -3.226  0.00  0.00     0.060 C 
ATOM    189  H46 THR d   1      -2.875 -17.029  -4.100  0.00  0.00     0.086 H 
BRANCH 188 190
ATOM    190  OG1 THR d   1      -3.062 -17.040  -2.034  0.00  0.00    -0.393 OA
ATOM    191  H47 THR d   1      -2.718 -16.584  -1.275  0.00  0.00     0.210 HD
ENDBRANCH 188 190
BRANCH 188 192
ATOM    192  CG2 THR d   1      -0.963 -16.728  -3.197  0.00  0.00    -0.050 C 
ATOM    193  H48 THR d   1      -0.753 -17.804  -3.111  0.00  0.00     0.031 H 
ATOM    194  H49 THR d   1      -0.531 -16.200  -2.334  0.00  0.00     0.031 H 
ATOM    195  H50 THR d   1      -0.517 -16.341  -4.125  0.00  0.00     0.031 H 
ENDBRANCH 188 192
ENDBRANCH 102 188
ENDBRANCH   1 102
TORSDOF 39
