REMARK  31 active torsions:
REMARK  status: ('A' for Active; 'I' for Inactive)
REMARK    1  A    between atoms: N_1  and  CA_2 
REMARK    2  A    between atoms: CA_2  and  C_3 
REMARK    3  A    between atoms: CA_2  and  CB_5 
REMARK       I    between atoms: C_3  and  N_7 
REMARK    4  A    between atoms: CB_5  and  OG_6 
REMARK    5  A    between atoms: N_7  and  CA_8 
REMARK    6  A    between atoms: CA_8  and  C_9 
REMARK    7  A    between atoms: CA_8  and  CB_11 
REMARK       I    between atoms: C_9  and  N_18 
REMARK    8  A    between atoms: CB_11  and  CG_12 
REMARK    9  A    between atoms: CG_12  and  CD_13 
REMARK   10  A    between atoms: CD_13  and  NE_14 
REMARK       I    between atoms: NE_14  and  CZ_15 
REMARK       I    between atoms: CZ_15  and  NH1_16 
REMARK   11  A    between atoms: N_18  and  CA_19 
REMARK   12  A    between atoms: CA_19  and  C_20 
REMARK   13  A    between atoms: CA_19  and  CB_22 
REMARK       I    between atoms: C_20  and  N_24 
REMARK   14  A    between atoms: CB_22  and  OG_23 
REMARK   15  A    between atoms: N_24  and  CA_25 
REMARK   16  A    between atoms: CA_25  and  CB_26 
REMARK   17  A    between atoms: CA_25  and  C_33 
REMARK   18  A    between atoms: CB_26  and  CG_27 
REMARK   19  A    between atoms: CG_27  and  CD_28 
REMARK   20  A    between atoms: CD_28  and  NE_29 
REMARK       I    between atoms: NE_29  and  CZ_31 
REMARK       I    between atoms: C_33  and  N_35 
REMARK   21  A    between atoms: N_35  and  CA_36 
REMARK   22  A    between atoms: CA_45  and  CB_46 
REMARK   23  A    between atoms: CB_46  and  CG_47 
REMARK   24  A    between atoms: CG_47  and  CD_48 
REMARK   25  A    between atoms: CD_48  and  NE_49 
REMARK       I    between atoms: NE_49  and  CZ_51 
REMARK   26  A    between atoms: CA_56  and  CB_59 
REMARK   27  A    between atoms: CB_59  and  OG1_60 
REMARK   28  A    between atoms: CB_59  and  CG2_61 
REMARK   29  A    between atoms: CA_63  and  CB_66 
REMARK   30  A    between atoms: CB_66  and  OG1_67 
REMARK   31  A    between atoms: CB_66  and  CG2_68 
ROOT
ATOM      1  C   NON d   1     -66.358 -42.492  19.733  0.00  0.00     0.241 C 
ATOM      2  O   NON d   1     -67.402 -42.410  20.386  0.00  0.00    -0.271 OA
ATOM      3  N   NON d   1     -65.381 -43.354  20.019  0.00  0.00    -0.346 N 
ATOM      4  H35 NON d   1     -64.503 -43.262  19.550  0.00  0.00     0.163 HD
ENDROOT
BRANCH   1   5
ATOM      5  CA  NON d   1     -66.109 -41.568  18.586  0.00  0.00     0.089 C 
ATOM      6  H27 NON d   1     -65.601 -42.121  17.782  0.00  0.00     0.087 H 
BRANCH   5   7
ATOM      7  N   NON d   1     -67.314 -40.942  18.079  0.00  0.00    -0.346 N 
ATOM      8  C   NON d   1     -67.973 -41.421  17.033  0.00  0.00     0.243 C 
ATOM      9  O   NON d   1     -67.866 -42.591  16.653  0.00  0.00    -0.271 OA
ATOM     10  H26 NON d   1     -67.660 -40.121  18.534  0.00  0.00     0.163 HD
BRANCH   8  11
ATOM     11  CA  NON d   1     -68.926 -40.436  16.325  0.00  0.00     0.109 C 
ATOM     12  H22 NON d   1     -68.610 -40.368  15.274  0.00  0.00     0.090 H 
BRANCH  11  13
ATOM     13  N   NON d   1     -68.865 -39.087  16.898  0.00  0.00    -0.344 N 
ATOM     14  C   NON d   1     -68.298 -38.045  16.293  0.00  0.00     0.241 C 
ATOM     15  O   NON d   1     -67.705 -38.121  15.210  0.00  0.00    -0.271 OA
ATOM     16  H21 NON d   1     -69.275 -38.941  17.799  0.00  0.00     0.163 HD
BRANCH  14  17
ATOM     17  CA  NON d   1     -68.453 -36.710  17.029  0.00  0.00     0.089 C 
ATOM     18  H9  NON d   1     -68.906 -36.008  16.314  0.00  0.00     0.087 H 
BRANCH  17  19
ATOM     19  N   NON d   1     -69.379 -36.801  18.174  0.00  0.00    -0.346 N 
ATOM     20  C   NON d   1     -70.630 -36.319  18.108  0.00  0.00     0.251 C 
ATOM     21  O   NON d   1     -71.055 -35.663  17.140  0.00  0.00    -0.271 OA
ATOM     22  H8  NON d   1     -69.067 -37.233  19.020  0.00  0.00     0.163 HD
BRANCH  20  23
ATOM     23  CA  NON d   1     -71.552 -36.559  19.333  0.00  0.00     0.195 C 
ATOM     24  H4  NON d   1     -72.537 -36.147  19.066  0.00  0.00     0.102 H 
BRANCH  23  25
ATOM     25  N   NON d   1     -71.105 -35.819  20.587  0.00  0.00    -0.064 N 
ATOM     26  H1  NON d   1     -71.744 -36.018  21.340  0.00  0.00     0.275 HD
ATOM     27  H2  NON d   1     -71.096 -34.827  20.407  0.00  0.00     0.275 HD
ATOM     28  H3  NON d   1     -70.179 -36.122  20.844  0.00  0.00     0.275 HD
ENDBRANCH  23  25
BRANCH  23  29
ATOM     29  CB  NON d   1     -71.758 -38.071  19.597  0.00  0.00     0.051 C 
ATOM     30  H5  NON d   1     -72.152 -38.540  18.683  0.00  0.00     0.077 H 
ATOM     31  H6  NON d   1     -72.485 -38.192  20.414  0.00  0.00     0.077 H 
BRANCH  29  32
ATOM     32  OG  NON d   1     -70.541 -38.727  19.963  0.00  0.00    -0.398 OA
ATOM     33  H7  NON d   1     -70.713 -39.649  20.115  0.00  0.00     0.209 HD
ENDBRANCH  29  32
ENDBRANCH  23  29
ENDBRANCH  20  23
ENDBRANCH  17  19
BRANCH  17  34
ATOM     34  CB  NON d   1     -67.091 -36.114  17.431  0.00  0.00    -0.036 C 
ATOM     35  H10 NON d   1     -66.393 -36.285  16.598  0.00  0.00     0.036 H 
ATOM     36  H11 NON d   1     -66.739 -36.656  18.321  0.00  0.00     0.036 H 
BRANCH  34  37
ATOM     37  CG  NON d   1     -67.066 -34.588  17.765  0.00  0.00    -0.048 C 
ATOM     38  H12 NON d   1     -66.023 -34.314  17.982  0.00  0.00     0.035 H 
ATOM     39  H13 NON d   1     -67.679 -34.437  18.666  0.00  0.00     0.035 H 
BRANCH  37  40
ATOM     40  CD  NON d   1     -67.586 -33.616  16.680  0.00  0.00     0.009 C 
ATOM     41  H14 NON d   1     -67.216 -33.930  15.693  0.00  0.00     0.064 H 
ATOM     42  H15 NON d   1     -67.234 -32.596  16.896  0.00  0.00     0.064 H 
BRANCH  40  43
ATOM     43  NE  NON d   1     -69.038 -33.645  16.690  0.00  0.00    -0.227 N 
ATOM     44  CZ  NON d   1     -69.838 -33.228  15.714  0.00  0.00     0.665 C 
ATOM     45  NH1 NON d   1     -69.343 -32.679  14.605  0.00  0.00    -0.235 N 
ATOM     46  NH2 NON d   1     -71.158 -33.371  15.868  0.00  0.00    -0.235 N 
ATOM     47  H17 NON d   1     -69.979 -32.362  13.859  0.00  0.00     0.174 HD
ATOM     48  H18 NON d   1     -68.325 -32.572  14.494  0.00  0.00     0.174 HD
ATOM     49  H19 NON d   1     -71.533 -33.796  16.728  0.00  0.00     0.174 HD
ATOM     50  H20 NON d   1     -71.800 -33.056  15.127  0.00  0.00     0.174 HD
ATOM     51  H16 NON d   1     -69.491 -34.025  17.534  0.00  0.00     0.177 HD
ENDBRANCH  40  43
ENDBRANCH  37  40
ENDBRANCH  34  37
ENDBRANCH  17  34
ENDBRANCH  14  17
ENDBRANCH  11  13
BRANCH  11  52
ATOM     52  CB  NON d   1     -70.367 -40.948  16.353  0.00  0.00     0.044 C 
ATOM     53  H23 NON d   1     -70.463 -41.789  15.650  0.00  0.00     0.077 H 
ATOM     54  H24 NON d   1     -71.043 -40.136  16.047  0.00  0.00     0.077 H 
BRANCH  52  55
ATOM     55  OG  NON d   1     -70.729 -41.386  17.650  0.00  0.00    -0.398 OA
ATOM     56  H25 NON d   1     -70.652 -40.662  18.261  0.00  0.00     0.209 HD
ENDBRANCH  52  55
ENDBRANCH  11  52
ENDBRANCH   8  11
ENDBRANCH   5   7
BRANCH   5  57
ATOM     57  CB  NON d   1     -65.267 -40.395  19.057  0.00  0.00    -0.036 C 
ATOM     58  H28 NON d   1     -65.286 -40.360  20.156  0.00  0.00     0.036 H 
ATOM     59  H29 NON d   1     -65.692 -39.465  18.653  0.00  0.00     0.036 H 
BRANCH  57  60
ATOM     60  CG  NON d   1     -63.823 -40.523  18.591  0.00  0.00    -0.045 C 
ATOM     61  H30 NON d   1     -63.772 -41.216  17.738  0.00  0.00     0.035 H 
ATOM     62  H31 NON d   1     -63.204 -40.908  19.415  0.00  0.00     0.035 H 
BRANCH  60  63
ATOM     63  CD  NON d   1     -63.309 -39.154  18.165  0.00  0.00     0.026 C 
ATOM     64  H32 NON d   1     -64.030 -38.692  17.475  0.00  0.00     0.068 H 
ATOM     65  H33 NON d   1     -62.339 -39.269  17.659  0.00  0.00     0.068 H 
BRANCH  63  66
ATOM     66  NE  NON d   1     -63.145 -38.296  19.346  0.00  0.00    -0.200 N 
ATOM     67  OZ  NON d   1     -64.057 -37.546  19.672  0.00  0.00    -0.084 OA
ATOM     68  CZ  NON d   1     -62.064 -38.295  20.008  0.00  0.00     0.195 C 
ATOM     69  OH  NON d   1     -61.955 -37.563  20.977  0.00  0.00    -0.281 OA
ATOM     70  H34 NON d   1     -61.239 -38.943  19.714  0.00  0.00     0.183 H 
ENDBRANCH  63  66
ENDBRANCH  60  63
ENDBRANCH  57  60
ENDBRANCH   5  57
ENDBRANCH   1   5
BRANCH   3  71
ATOM     71  CA  NON d   1     -65.553 -44.435  21.002  0.00  0.00     0.089 C 
ATOM     72  C   NON d   1     -65.423 -44.081  22.498  0.00  0.00     0.241 C 
ATOM     73  O   NON d   1     -66.214 -44.554  23.327  0.00  0.00    -0.271 OA
ATOM     74  N   NON d   1     -64.409 -43.278  22.824  0.00  0.00    -0.346 N 
ATOM     75  CA  NON d   1     -63.981 -43.016  24.212  0.00  0.00     0.089 C 
ATOM     76  H46 NON d   1     -63.909 -42.827  22.084  0.00  0.00     0.163 HD
ATOM     77  C   NON d   1     -63.991 -44.203  25.131  0.00  0.00     0.241 C 
ATOM     78  H47 NON d   1     -62.939 -42.671  24.134  0.00  0.00     0.087 H 
ATOM     79  O   NON d   1     -63.182 -45.128  24.983  0.00  0.00    -0.271 OA
ATOM     80  N   NON d   1     -64.957 -44.178  26.054  0.00  0.00    -0.344 N 
ATOM     81  CA  NON d   1     -64.967 -44.950  27.301  0.00  0.00     0.113 C 
ATOM     82  H55 NON d   1     -65.740 -43.582  25.880  0.00  0.00     0.163 HD
ATOM     83  C   NON d   1     -66.152 -45.939  27.350  0.00  0.00     0.243 C 
ATOM     84  H56 NON d   1     -64.047 -45.552  27.327  0.00  0.00     0.091 H 
ATOM     85  O   NON d   1     -66.920 -45.979  28.308  0.00  0.00    -0.271 OA
ATOM     86  N   NON d   1     -66.254 -46.740  26.291  0.00  0.00    -0.344 N 
ATOM     87  CA  NON d   1     -67.406 -47.599  25.979  0.00  0.00     0.113 C 
ATOM     88  H62 NON d   1     -65.483 -46.759  25.655  0.00  0.00     0.163 HD
ATOM     89  C   NON d   1     -67.061 -48.440  24.754  0.00  0.00     0.243 C 
ATOM     90  H63 NON d   1     -67.601 -48.251  26.843  0.00  0.00     0.091 H 
ATOM     91  NZ  NON d   1     -66.497 -47.844  23.791  0.00  0.00    -0.359 N 
ATOM     92  O   NON d   1     -67.328 -49.642  24.706  0.00  0.00    -0.271 OA
ATOM     93  CE  NON d   1     -66.124 -48.571  22.550  0.00  0.00    -0.005 C 
ATOM     94  H45 NON d   1     -66.299 -46.867  23.866  0.00  0.00     0.162 HD
ATOM     95  CD  NON d   1     -65.920 -47.580  21.425  0.00  0.00    -0.050 C 
ATOM     96  H43 NON d   1     -65.192 -49.130  22.719  0.00  0.00     0.064 H 
ATOM     97  H44 NON d   1     -66.928 -49.271  22.280  0.00  0.00     0.064 H 
ATOM     98  CG  NON d   1     -64.651 -46.774  21.640  0.00  0.00    -0.061 C 
ATOM     99  H41 NON d   1     -65.844 -48.126  20.473  0.00  0.00     0.035 H 
ATOM    100  H42 NON d   1     -66.780 -46.895  21.387  0.00  0.00     0.035 H 
ATOM    101  CB  NON d   1     -64.589 -45.581  20.674  0.00  0.00    -0.038 C 
ATOM    102  H39 NON d   1     -64.632 -46.401  22.675  0.00  0.00     0.033 H 
ATOM    103  H40 NON d   1     -63.779 -47.422  21.468  0.00  0.00     0.033 H 
ATOM    104  H37 NON d   1     -63.564 -45.181  20.690  0.00  0.00     0.036 H 
ATOM    105  H38 NON d   1     -64.824 -45.947  19.664  0.00  0.00     0.036 H 
ATOM    106  H36 NON d   1     -66.578 -44.809  20.865  0.00  0.00     0.087 H 
BRANCH  75 107
ATOM    107  CB  NON d   1     -64.766 -41.930  24.954  0.00  0.00    -0.036 C 
ATOM    108  H48 NON d   1     -64.289 -41.781  25.934  0.00  0.00     0.036 H 
ATOM    109  H49 NON d   1     -65.793 -42.296  25.098  0.00  0.00     0.036 H 
BRANCH 107 110
ATOM    110  CG  NON d   1     -64.847 -40.582  24.268  0.00  0.00    -0.045 C 
ATOM    111  H50 NON d   1     -65.901 -40.271  24.214  0.00  0.00     0.035 H 
ATOM    112  H51 NON d   1     -64.439 -40.673  23.251  0.00  0.00     0.035 H 
BRANCH 110 113
ATOM    113  CD  NON d   1     -64.057 -39.525  25.025  0.00  0.00     0.026 C 
ATOM    114  H52 NON d   1     -63.081 -39.920  25.344  0.00  0.00     0.068 H 
ATOM    115  H53 NON d   1     -64.616 -39.175  25.905  0.00  0.00     0.068 H 
BRANCH 113 116
ATOM    116  NE  NON d   1     -63.887 -38.444  24.053  0.00  0.00    -0.200 N 
ATOM    117  OZ  NON d   1     -64.182 -38.613  22.881  0.00  0.00    -0.084 OA
ATOM    118  CZ  NON d   1     -63.437 -37.313  24.381  0.00  0.00     0.195 C 
ATOM    119  OH  NON d   1     -63.339 -36.457  23.515  0.00  0.00    -0.281 OA
ATOM    120  H54 NON d   1     -63.144 -37.105  25.409  0.00  0.00     0.183 H 
ENDBRANCH 113 116
ENDBRANCH 110 113
ENDBRANCH 107 110
ENDBRANCH  75 107
BRANCH  81 121
ATOM    121  CB  NON d   1     -64.921 -43.965  28.546  0.00  0.00     0.060 C 
ATOM    122  H57 NON d   1     -63.937 -43.473  28.541  0.00  0.00     0.086 H 
BRANCH 121 123
ATOM    123  OG1 NON d   1     -65.046 -44.687  29.782  0.00  0.00    -0.393 OA
ATOM    124  H58 NON d   1     -65.874 -45.153  29.793  0.00  0.00     0.210 HD
ENDBRANCH 121 123
BRANCH 121 125
ATOM    125  CG2 NON d   1     -66.003 -42.853  28.460  0.00  0.00    -0.050 C 
ATOM    126  H59 NON d   1     -65.929 -42.200  29.342  0.00  0.00     0.031 H 
ATOM    127  H60 NON d   1     -67.001 -43.314  28.428  0.00  0.00     0.031 H 
ATOM    128  H61 NON d   1     -65.845 -42.257  27.549  0.00  0.00     0.031 H 
ENDBRANCH 121 125
ENDBRANCH  81 121
BRANCH  87 129
ATOM    129  CB  NON d   1     -68.729 -46.811  25.623  0.00  0.00     0.060 C 
ATOM    130  H64 NON d   1     -69.495 -47.058  26.373  0.00  0.00     0.086 H 
BRANCH 129 131
ATOM    131  OG1 NON d   1     -69.182 -47.208  24.320  0.00  0.00    -0.393 OA
ATOM    132  H65 NON d   1     -69.357 -48.142  24.318  0.00  0.00     0.210 HD
ENDBRANCH 129 131
BRANCH 129 133
ATOM    133  CG2 NON d   1     -68.536 -45.293  25.592  0.00  0.00    -0.050 C 
ATOM    134  H66 NON d   1     -69.490 -44.807  25.340  0.00  0.00     0.031 H 
ATOM    135  H67 NON d   1     -67.781 -45.035  24.835  0.00  0.00     0.031 H 
ATOM    136  H68 NON d   1     -68.198 -44.946  26.580  0.00  0.00     0.031 H 
ENDBRANCH 129 133
ENDBRANCH  87 129
ENDBRANCH   3  71
TORSDOF 31
