REMARK  11 active torsions:
REMARK  status: ('A' for Active; 'I' for Inactive)
REMARK    1  A    between atoms: C1_1  and  C2_2 
REMARK    2  A    between atoms: C2_2  and  C3_3 
REMARK    3  A    between atoms: C2_2  and  N1_4 
REMARK    4  A    between atoms: C4_5  and  C5_6 
REMARK    5  A    between atoms: C7_9  and  C8_10 
REMARK    6  A    between atoms: C9_12  and  N4_13 
REMARK    7  A    between atoms: N4_13  and  C10_14 
REMARK    8  A    between atoms: C13_17  and  C16_20 
REMARK       I    between atoms: C16_20  and  N5_22 
REMARK    9  A    between atoms: C19_25  and  N6_27 
REMARK   10  A    between atoms: N6_27  and  C21_28 
REMARK   11  A    between atoms: N6_27  and  C22_29 
ROOT
ATOM      1  C10 I19 d   1       3.176  28.820   6.934  0.00  0.00     0.049 A 
ATOM      2  C11 I19 d   1       2.952  28.162   8.123  0.00  0.00    -0.056 A 
ATOM      3  C12 I19 d   1       3.704  27.054   8.459  0.00  0.00    -0.066 A 
ATOM      4  C13 I19 d   1       4.678  26.603   7.588  0.00  0.00     0.032 A 
ATOM      5  C14 I19 d   1       4.941  27.245   6.391  0.00  0.00    -0.066 A 
ATOM      6  C15 I19 d   1       4.170  28.355   6.087  0.00  0.00    -0.056 A 
ATOM      7  H13 I19 d   1       2.181  28.516   8.798  0.00  0.00     0.087 H 
ATOM      8  H14 I19 d   1       3.532  26.542   9.399  0.00  0.00     0.085 H 
ATOM      9  H15 I19 d   1       5.717  26.895   5.720  0.00  0.00     0.085 H 
ATOM     10  H16 I19 d   1       4.350  28.878   5.155  0.00  0.00     0.087 H 
ENDROOT
BRANCH   1  11
ATOM     11  N4  I19 d   1       2.459  29.956   6.522  0.00  0.00    -0.188 N 
ATOM     12  H12 I19 d   1       2.769  30.347   5.621  0.00  0.00     0.184 HD
BRANCH  11  13
ATOM     13  C9  I19 d   1       1.393  30.657   7.119  0.00  0.00     0.727 A 
ATOM     14  N3  I19 d   1       0.472  30.052   7.883  0.00  0.00    -0.057 NA
ATOM     15  C8  I19 d   1      -0.498  30.819   8.397  0.00  0.00     0.144 A 
ATOM     16  C24 I19 d   1      -0.561  32.179   8.154  0.00  0.00     0.166 A 
ATOM     17  C23 I19 d   1       0.411  32.708   7.359  0.00  0.00     0.060 A 
ATOM     18  F1  I19 d   1      -1.501  33.005   8.641  0.00  0.00    -0.202 F 
ATOM     19  N7  I19 d   1       1.385  31.968   6.837  0.00  0.00    -0.072 NA
ATOM     20  H31 I19 d   1       0.390  33.770   7.144  0.00  0.00     0.120 H 
BRANCH  15  21
ATOM     21  C7  I19 d   1      -1.529  30.163   9.264  0.00  0.00     0.086 A 
ATOM     22  N1  I19 d   1      -1.418  29.013  10.059  0.00  0.00    -0.328 N 
ATOM     23  C4  I19 d   1      -2.587  28.746  10.661  0.00  0.00     0.102 A 
ATOM     24  N2  I19 d   1      -3.434  29.698  10.275  0.00  0.00    -0.245 NA
ATOM     25  C6  I19 d   1      -2.830  30.594   9.411  0.00  0.00     0.032 A 
ATOM     26  H11 I19 d   1      -3.289  31.463   8.942  0.00  0.00     0.118 H 
BRANCH  22  27
ATOM     27  C2  I19 d   1      -0.209  28.230  10.244  0.00  0.00     0.011 C 
ATOM     28  H4  I19 d   1       0.591  28.728   9.677  0.00  0.00     0.072 H 
BRANCH  27  29
ATOM     29  C1  I19 d   1       0.174  28.280  11.709  0.00  0.00    -0.057 C 
ATOM     30  H1  I19 d   1       1.089  27.691  11.869  0.00  0.00     0.030 H 
ATOM     31  H2  I19 d   1      -0.642  27.861  12.316  0.00  0.00     0.030 H 
ATOM     32  H3  I19 d   1       0.353  29.324  12.006  0.00  0.00     0.030 H 
ENDBRANCH  27  29
BRANCH  27  33
ATOM     33  C3  I19 d   1      -0.297  26.812   9.703  0.00  0.00    -0.057 C 
ATOM     34  H5  I19 d   1      -0.578  26.842   8.640  0.00  0.00     0.030 H 
ATOM     35  H6  I19 d   1      -1.057  26.251  10.267  0.00  0.00     0.030 H 
ATOM     36  H7  I19 d   1       0.679  26.317   9.811  0.00  0.00     0.030 H 
ENDBRANCH  27  33
ENDBRANCH  22  27
BRANCH  23  37
ATOM     37  C5  I19 d   1      -2.919  27.621  11.588  0.00  0.00    -0.021 C 
ATOM     38  H8  I19 d   1      -3.971  27.701  11.899  0.00  0.00     0.037 H 
ATOM     39  H9  I19 d   1      -2.270  27.672  12.474  0.00  0.00     0.037 H 
ATOM     40  H10 I19 d   1      -2.761  26.662  11.072  0.00  0.00     0.037 H 
ENDBRANCH  23  37
ENDBRANCH  15  21
ENDBRANCH  11  13
ENDBRANCH   1  11
BRANCH   4  41
ATOM     41  C16 I19 d   1       5.504  25.454   7.926  0.00  0.00     0.253 C 
ATOM     42  O1  I19 d   1       6.709  25.662   7.960  0.00  0.00    -0.267 OA
ATOM     43  N5  I19 d   1       4.945  24.220   8.153  0.00  0.00    -0.346 N 
ATOM     44  C17 I19 d   1       3.629  23.973   8.678  0.00  0.00    -0.000 C 
ATOM     45  C20 I19 d   1       5.892  23.203   8.551  0.00  0.00     0.025 C 
ATOM     46  C18 I19 d   1       3.659  22.501   9.075  0.00  0.00    -0.022 C 
ATOM     47  H17 I19 d   1       2.862  24.155   7.911  0.00  0.00     0.064 H 
ATOM     48  H18 I19 d   1       3.432  24.610   9.553  0.00  0.00     0.064 H 
ATOM     49  C19 I19 d   1       5.124  22.120   9.256  0.00  0.00     0.120 C 
ATOM     50  H19 I19 d   1       3.204  21.887   8.284  0.00  0.00     0.038 H 
ATOM     51  H20 I19 d   1       3.111  22.352  10.017  0.00  0.00     0.038 H 
ATOM     52  H21 I19 d   1       5.329  21.123   8.838  0.00  0.00     0.087 H 
ATOM     53  H22 I19 d   1       6.642  23.634   9.230  0.00  0.00     0.067 H 
ATOM     54  H23 I19 d   1       6.394  22.790   7.664  0.00  0.00     0.067 H 
BRANCH  49  55
ATOM     55  N6  I19 d   1       5.540  22.192  10.697  0.00  0.00    -0.073 N 
ATOM     56  H24 I19 d   1       5.769  23.157  10.879  0.00  0.00     0.279 HD
BRANCH  55  57
ATOM     57  C21 I19 d   1       4.497  21.801  11.684  0.00  0.00     0.066 C 
ATOM     58  H25 I19 d   1       4.904  21.889  12.702  0.00  0.00     0.068 H 
ATOM     59  H26 I19 d   1       4.190  20.761  11.501  0.00  0.00     0.068 H 
ATOM     60  H27 I19 d   1       3.626  22.464  11.579  0.00  0.00     0.068 H 
ENDBRANCH  55  57
BRANCH  55  61
ATOM     61  C22 I19 d   1       6.765  21.379  10.948  0.00  0.00     0.066 C 
ATOM     62  H28 I19 d   1       7.545  21.658  10.224  0.00  0.00     0.068 H 
ATOM     63  H29 I19 d   1       6.526  20.311  10.835  0.00  0.00     0.068 H 
ATOM     64  H30 I19 d   1       7.128  21.568  11.969  0.00  0.00     0.068 H 
ENDBRANCH  55  61
ENDBRANCH  49  55
ENDBRANCH   4  41
TORSDOF 11
