REMARK  5 active torsions:
REMARK  status: ('A' for Active; 'I' for Inactive)
REMARK    1  A    between atoms: C5_5  and  C8_8 
REMARK       I    between atoms: C8_8  and  N10_10 
REMARK    2  A    between atoms: N10_10  and  C11_11 
REMARK    3  A    between atoms: C16_15  and  C17_16 
REMARK    4  A    between atoms: C22_21  and  C23_22 
REMARK    5  A    between atoms: C23_22  and  N24_23 
ROOT
ATOM      1  C17 L0C d   1       3.447  32.456   6.489  0.00  0.00     0.162 A 
ATOM      2  N18 L0C d   1       3.756  32.469   5.189  0.00  0.00    -0.227 NA
ATOM      3  C19 L0C d   1       2.878  33.329   4.567  0.00  0.00     0.086 A 
ATOM      4  C20 L0C d   1       2.746  33.718   3.245  0.00  0.00    -0.052 A 
ATOM      5  C21 L0C d   1       1.759  34.616   2.880  0.00  0.00    -0.073 A 
ATOM      6  C22 L0C d   1       0.888  35.142   3.838  0.00  0.00    -0.030 A 
ATOM      7  C31 L0C d   1       1.036  34.735   5.158  0.00  0.00    -0.047 A 
ATOM      8  C32 L0C d   1       2.023  33.839   5.522  0.00  0.00     0.063 A 
ATOM      9  N33 L0C d   1       2.395  33.281   6.700  0.00  0.00    -0.337 N 
ATOM     10  H8  L0C d   1       3.418  33.318   2.494  0.00  0.00     0.087 H 
ATOM     11  H9  L0C d   1       1.660  34.914   1.843  0.00  0.00     0.084 H 
ATOM     12  H21 L0C d   1       0.366  35.127   5.915  0.00  0.00     0.087 H 
ATOM     13  H22 L0C d   1       1.948  33.457   7.611  0.00  0.00     0.167 HD
ENDROOT
BRANCH   1  14
ATOM     14  C16 L0C d   1       4.104  31.683   7.518  0.00  0.00     0.150 A 
ATOM     15  C11 L0C d   1       4.994  30.622   7.396  0.00  0.00     0.086 A 
ATOM     16  C12 L0C d   1       5.297  30.253   8.651  0.00  0.00     0.024 A 
ATOM     17  N13 L0C d   1       4.607  31.062   9.476  0.00  0.00    -0.286 N 
ATOM     18  H6  L0C d   1       5.973  29.451   8.945  0.00  0.00     0.117 H 
ATOM     19  N15 L0C d   1       3.860  31.952   8.792  0.00  0.00    -0.169 NA
ATOM     20  H7  L0C d   1       4.645  31.008  10.504  0.00  0.00     0.188 HD
BRANCH  15  21
ATOM     21  N10 L0C d   1       5.440  30.111   6.218  0.00  0.00    -0.320 N 
ATOM     22  C8  L0C d   1       5.935  28.877   6.006  0.00  0.00     0.256 C 
ATOM     23  O9  L0C d   1       5.901  27.996   6.844  0.00  0.00    -0.267 OA
ATOM     24  H5  L0C d   1       5.396  30.717   5.423  0.00  0.00     0.169 HD
BRANCH  22  25
ATOM     25  C5  L0C d   1       6.546  28.645   4.661  0.00  0.00     0.032 A 
ATOM     26  C4  L0C d   1       6.718  29.717   3.775  0.00  0.00    -0.065 A 
ATOM     27  C3  L0C d   1       7.285  29.510   2.535  0.00  0.00    -0.045 A 
ATOM     28  H2  L0C d   1       6.404  30.713   4.066  0.00  0.00     0.085 H 
ATOM     29  C2  L0C d   1       7.679  28.239   2.179  0.00  0.00     0.116 A 
ATOM     30  H1  L0C d   1       7.419  30.338   1.848  0.00  0.00     0.088 H 
ATOM     31  F1  L0C d   1       8.232  28.041   0.967  0.00  0.00    -0.206 F 
ATOM     32  C7  L0C d   1       7.521  27.164   3.036  0.00  0.00    -0.045 A 
ATOM     33  C6  L0C d   1       6.955  27.365   4.279  0.00  0.00    -0.065 A 
ATOM     34  H4  L0C d   1       7.839  26.173   2.734  0.00  0.00     0.088 H 
ATOM     35  H3  L0C d   1       6.828  26.530   4.958  0.00  0.00     0.085 H 
ENDBRANCH  22  25
ENDBRANCH  15  21
ENDBRANCH   1  14
BRANCH   6  36
ATOM     36  C23 L0C d   1      -0.207  36.113   3.461  0.00  0.00     0.107 C 
ATOM     37  H10 L0C d   1      -0.731  36.411   4.381  0.00  0.00     0.083 H 
ATOM     38  H11 L0C d   1      -0.908  35.594   2.791  0.00  0.00     0.083 H 
BRANCH  36  39
ATOM     39  N24 L0C d   1       0.264  37.358   2.769  0.00  0.00    -0.063 N 
ATOM     40  C26 L0C d   1      -0.889  38.161   2.258  0.00  0.00     0.103 C 
ATOM     41  C27 L0C d   1      -0.383  39.427   1.588  0.00  0.00     0.042 C 
ATOM     42  H13 L0C d   1      -1.546  38.431   3.098  0.00  0.00     0.079 H 
ATOM     43  H14 L0C d   1      -1.454  37.563   1.528  0.00  0.00     0.079 H 
ATOM     44  O28 L0C d   1       0.523  39.119   0.514  0.00  0.00    -0.388 OA
ATOM     45  H15 L0C d   1       0.141  40.043   2.334  0.00  0.00     0.076 H 
ATOM     46  H16 L0C d   1      -1.240  39.987   1.185  0.00  0.00     0.076 H 
ATOM     47  C29 L0C d   1       1.648  38.363   1.003  0.00  0.00     0.042 C 
ATOM     48  C30 L0C d   1       1.200  37.061   1.646  0.00  0.00     0.103 C 
ATOM     49  H17 L0C d   1       2.187  38.965   1.750  0.00  0.00     0.076 H 
ATOM     50  H18 L0C d   1       2.319  38.135   0.162  0.00  0.00     0.076 H 
ATOM     51  H19 L0C d   1       0.688  36.439   0.897  0.00  0.00     0.079 H 
ATOM     52  H20 L0C d   1       2.078  36.522   2.033  0.00  0.00     0.079 H 
ATOM     53  H12 L0C d   1       0.759  37.915   3.447  0.00  0.00     0.280 HD
ENDBRANCH  36  39
ENDBRANCH   6  36
TORSDOF 5
