REMARK  1 active torsions:
REMARK  status: ('A' for Active; 'I' for Inactive)
REMARK    1  A    between atoms: C3_3  and  C7_6 
ROOT
ATOM      1  C7  L0D d   1       3.486  32.479   6.307  0.00  0.00     0.159 A 
ATOM      2  N8  L0D d   1       3.728  32.212   5.039  0.00  0.00    -0.227 NA
ATOM      3  C9  L0D d   1       3.086  33.148   4.284  0.00  0.00     0.086 A 
ATOM      4  C10 L0D d   1       3.010  33.336   2.913  0.00  0.00    -0.053 A 
ATOM      5  C11 L0D d   1       2.279  34.383   2.399  0.00  0.00    -0.081 A 
ATOM      6  C12 L0D d   1       1.616  35.249   3.244  0.00  0.00    -0.081 A 
ATOM      7  C13 L0D d   1       1.683  35.073   4.604  0.00  0.00    -0.055 A 
ATOM      8  C14 L0D d   1       2.418  34.022   5.133  0.00  0.00     0.062 A 
ATOM      9  N15 L0D d   1       2.693  33.570   6.386  0.00  0.00    -0.337 N 
ATOM     10  H4  L0D d   1       3.527  32.657   2.244  0.00  0.00     0.087 H 
ATOM     11  H5  L0D d   1       2.224  34.528   1.326  0.00  0.00     0.083 H 
ATOM     12  H6  L0D d   1       1.041  36.071   2.833  0.00  0.00     0.083 H 
ATOM     13  H7  L0D d   1       1.161  35.756   5.265  0.00  0.00     0.087 H 
ATOM     14  H8  L0D d   1       2.350  33.994   7.260  0.00  0.00     0.167 HD
ENDROOT
BRANCH   1  15
ATOM     15  C3  L0D d   1       3.971  31.724   7.442  0.00  0.00     0.124 A 
ATOM     16  C2  L0D d   1       4.716  30.582   7.453  0.00  0.00    -0.033 A 
ATOM     17  C1  L0D d   1       4.908  30.252   8.738  0.00  0.00    -0.002 A 
ATOM     18  H2  L0D d   1       5.085  30.041   6.583  0.00  0.00     0.089 H 
ATOM     19  N5  L0D d   1       4.283  31.183   9.474  0.00  0.00    -0.289 N 
ATOM     20  H1  L0D d   1       5.464  29.394   9.112  0.00  0.00     0.113 H 
ATOM     21  N4  L0D d   1       3.690  32.109   8.691  0.00  0.00    -0.172 NA
ATOM     22  H3  L0D d   1       4.259  31.190  10.504  0.00  0.00     0.188 HD
ENDBRANCH   1  15
TORSDOF 1
