REMARK  5 active torsions:
REMARK  status: ('A' for Active; 'I' for Inactive)
REMARK       I    between atoms: C2_2  and  N3_3 
REMARK       I    between atoms: C2_2  and  N28_25 
REMARK    1  A    between atoms: N3_3  and  C4_4 
REMARK    2  A    between atoms: C9_8  and  C10_9 
REMARK    3  A    between atoms: C14_13  and  C15_14 
REMARK    4  A    between atoms: C15_14  and  N16_15 
REMARK    5  A    between atoms: N28_25  and  C29_26 
ROOT
ATOM      1  C10 L0E d   1       3.551  32.253   6.379  0.00  0.00     0.162 A 
ATOM      2  N11 L0E d   1       3.527  31.803   5.166  0.00  0.00    -0.227 NA
ATOM      3  C12 L0E d   1       2.939  32.727   4.384  0.00  0.00     0.086 A 
ATOM      4  C13 L0E d   1       2.675  32.742   3.027  0.00  0.00    -0.045 A 
ATOM      5  C14 L0E d   1       2.041  33.830   2.436  0.00  0.00    -0.030 A 
ATOM      6  C23 L0E d   1       1.680  34.917   3.243  0.00  0.00    -0.073 A 
ATOM      7  C24 L0E d   1       1.943  34.900   4.596  0.00  0.00    -0.054 A 
ATOM      8  C25 L0E d   1       2.573  33.809   5.170  0.00  0.00     0.062 A 
ATOM      9  N26 L0E d   1       2.974  33.466   6.419  0.00  0.00    -0.337 N 
ATOM     10  H4  L0E d   1       2.966  31.895   2.416  0.00  0.00     0.088 H 
ATOM     11  H16 L0E d   1       1.191  35.777   2.800  0.00  0.00     0.084 H 
ATOM     12  H17 L0E d   1       1.655  35.744   5.213  0.00  0.00     0.087 H 
ATOM     13  H18 L0E d   1       2.855  34.043   7.264  0.00  0.00     0.167 HD
ENDROOT
BRANCH   1  14
ATOM     14  C9  L0E d   1       4.082  31.558   7.516  0.00  0.00     0.150 A 
ATOM     15  C4  L0E d   1       4.932  30.467   7.566  0.00  0.00     0.087 A 
ATOM     16  C5  L0E d   1       5.093  30.211   8.880  0.00  0.00     0.024 A 
ATOM     17  N6  L0E d   1       4.359  31.117   9.547  0.00  0.00    -0.286 N 
ATOM     18  H2  L0E d   1       5.702  29.421   9.317  0.00  0.00     0.117 H 
ATOM     19  N8  L0E d   1       3.724  31.958   8.711  0.00  0.00    -0.169 NA
ATOM     20  H3  L0E d   1       4.291  31.162  10.574  0.00  0.00     0.188 HD
BRANCH  15  21
ATOM     21  N3  L0E d   1       5.468  29.827   6.470  0.00  0.00    -0.305 N 
ATOM     22  C2  L0E d   1       6.080  28.613   6.441  0.00  0.00     0.325 C 
ATOM     23  O1  L0E d   1       6.192  27.907   7.415  0.00  0.00    -0.247 OA
ATOM     24  N28 L0E d   1       6.584  28.195   5.239  0.00  0.00    -0.309 N 
ATOM     25  H19 L0E d   1       7.041  27.306   5.240  0.00  0.00     0.170 HD
ATOM     26  H1  L0E d   1       5.399  30.310   5.597  0.00  0.00     0.171 HD
BRANCH  24  27
ATOM     27  C29 L0E d   1       6.536  28.874   3.986  0.00  0.00     0.036 A 
ATOM     28  C30 L0E d   1       6.038  28.237   2.862  0.00  0.00    -0.057 A 
ATOM     29  C31 L0E d   1       5.992  28.896   1.657  0.00  0.00    -0.081 A 
ATOM     30  H20 L0E d   1       5.683  27.215   2.933  0.00  0.00     0.086 H 
ATOM     31  C32 L0E d   1       6.440  30.186   1.560  0.00  0.00    -0.083 A 
ATOM     32  H21 L0E d   1       5.600  28.393   0.781  0.00  0.00     0.083 H 
ATOM     33  C33 L0E d   1       6.937  30.826   2.662  0.00  0.00    -0.081 A 
ATOM     34  H22 L0E d   1       6.401  30.702   0.607  0.00  0.00     0.083 H 
ATOM     35  C34 L0E d   1       6.989  30.180   3.872  0.00  0.00    -0.057 A 
ATOM     36  H23 L0E d   1       7.291  31.847   2.579  0.00  0.00     0.083 H 
ATOM     37  H24 L0E d   1       7.385  30.692   4.741  0.00  0.00     0.086 H 
ENDBRANCH  24  27
ENDBRANCH  15  21
ENDBRANCH   1  14
BRANCH   5  38
ATOM     38  C15 L0E d   1       1.762  33.839   0.955  0.00  0.00     0.107 C 
ATOM     39  H5  L0E d   1       0.777  34.297   0.781  0.00  0.00     0.083 H 
ATOM     40  H6  L0E d   1       1.755  32.802   0.588  0.00  0.00     0.083 H 
BRANCH  38  41
ATOM     41  N16 L0E d   1       2.800  34.616   0.198  0.00  0.00    -0.063 N 
ATOM     42  C18 L0E d   1       4.109  33.910   0.208  0.00  0.00     0.103 C 
ATOM     43  C19 L0E d   1       5.117  34.717  -0.585  0.00  0.00     0.042 C 
ATOM     44  H8  L0E d   1       3.994  32.915  -0.248  0.00  0.00     0.079 H 
ATOM     45  H9  L0E d   1       4.460  33.800   1.245  0.00  0.00     0.079 H 
ATOM     46  O20 L0E d   1       5.263  36.050  -0.054  0.00  0.00    -0.388 OA
ATOM     47  H10 L0E d   1       4.779  34.784  -1.630  0.00  0.00     0.076 H 
ATOM     48  H11 L0E d   1       6.092  34.208  -0.547  0.00  0.00     0.076 H 
ATOM     49  C21 L0E d   1       4.001  36.731  -0.060  0.00  0.00     0.042 C 
ATOM     50  C22 L0E d   1       2.980  35.978   0.769  0.00  0.00     0.103 C 
ATOM     51  H12 L0E d   1       3.638  36.809  -1.095  0.00  0.00     0.076 H 
ATOM     52  H13 L0E d   1       4.133  37.739   0.359  0.00  0.00     0.076 H 
ATOM     53  H14 L0E d   1       3.335  35.898   1.807  0.00  0.00     0.079 H 
ATOM     54  H15 L0E d   1       2.021  36.516   0.749  0.00  0.00     0.079 H 
ATOM     55  H7  L0E d   1       2.490  34.707  -0.757  0.00  0.00     0.280 HD
ENDBRANCH  38  41
ENDBRANCH   5  38
TORSDOF 5
