REMARK  3 active torsions:
REMARK  status: ('A' for Active; 'I' for Inactive)
REMARK       I    between atoms: C2_2  and  N3_3 
REMARK    1  A    between atoms: C2_2  and  C20_18 
REMARK    2  A    between atoms: N3_3  and  C4_4 
REMARK    3  A    between atoms: C9_8  and  C10_9 
ROOT
ATOM      1  C4  L0F d   1       5.001  30.579   7.488  0.00  0.00     0.086 A 
ATOM      2  C5  L0F d   1       5.152  30.254   8.798  0.00  0.00     0.024 A 
ATOM      3  N6  L0F d   1       4.350  31.072   9.496  0.00  0.00    -0.286 N 
ATOM      4  N8  L0F d   1       3.682  31.918   8.687  0.00  0.00    -0.169 NA
ATOM      5  C9  L0F d   1       4.080  31.612   7.469  0.00  0.00     0.150 A 
ATOM      6  H2  L0F d   1       5.800  29.478   9.204  0.00  0.00     0.117 H 
ATOM      7  H3  L0F d   1       4.256  31.056  10.522  0.00  0.00     0.188 HD
ENDROOT
BRANCH   1   8
ATOM      8  N3  L0F d   1       5.591  30.046   6.377  0.00  0.00    -0.320 N 
ATOM      9  C2  L0F d   1       5.920  28.744   6.186  0.00  0.00     0.256 C 
ATOM     10  O1  L0F d   1       5.827  27.917   7.070  0.00  0.00    -0.267 OA
ATOM     11  H1  L0F d   1       5.801  30.678   5.631  0.00  0.00     0.169 HD
BRANCH   9  12
ATOM     12  C20 L0F d   1       6.408  28.356   4.823  0.00  0.00     0.032 A 
ATOM     13  C21 L0F d   1       6.605  29.320   3.828  0.00  0.00    -0.068 A 
ATOM     14  C22 L0F d   1       7.052  28.946   2.584  0.00  0.00    -0.082 A 
ATOM     15  H9  L0F d   1       6.404  30.364   4.039  0.00  0.00     0.085 H 
ATOM     16  C23 L0F d   1       7.306  27.620   2.311  0.00  0.00    -0.083 A 
ATOM     17  H10 L0F d   1       7.205  29.696   1.816  0.00  0.00     0.083 H 
ATOM     18  C24 L0F d   1       7.116  26.660   3.284  0.00  0.00    -0.082 A 
ATOM     19  H11 L0F d   1       7.657  27.329   1.327  0.00  0.00     0.083 H 
ATOM     20  C25 L0F d   1       6.671  27.020   4.531  0.00  0.00    -0.068 A 
ATOM     21  H12 L0F d   1       7.319  25.619   3.062  0.00  0.00     0.083 H 
ATOM     22  H13 L0F d   1       6.524  26.262   5.292  0.00  0.00     0.085 H 
ENDBRANCH   9  12
ENDBRANCH   1   8
BRANCH   5  23
ATOM     23  C10 L0F d   1       3.541  32.351   6.354  0.00  0.00     0.162 A 
ATOM     24  N11 L0F d   1       3.574  31.976   5.086  0.00  0.00    -0.227 NA
ATOM     25  C12 L0F d   1       2.960  32.950   4.349  0.00  0.00     0.086 A 
ATOM     26  C13 L0F d   1       2.722  33.066   2.989  0.00  0.00    -0.053 A 
ATOM     27  C17 L0F d   1       2.530  33.958   5.214  0.00  0.00     0.062 A 
ATOM     28  C14 L0F d   1       2.068  34.171   2.495  0.00  0.00    -0.081 A 
ATOM     29  H4  L0F d   1       3.051  32.285   2.313  0.00  0.00     0.087 H 
ATOM     30  C15 L0F d   1       1.645  35.166   3.350  0.00  0.00    -0.081 A 
ATOM     31  H5  L0F d   1       1.885  34.259   1.430  0.00  0.00     0.083 H 
ATOM     32  C16 L0F d   1       1.870  35.063   4.701  0.00  0.00    -0.055 A 
ATOM     33  H6  L0F d   1       1.132  36.035   2.954  0.00  0.00     0.083 H 
ATOM     34  H7  L0F d   1       1.530  35.848   5.367  0.00  0.00     0.087 H 
ATOM     35  N18 L0F d   1       2.914  33.546   6.453  0.00  0.00    -0.337 N 
ATOM     36  H8  L0F d   1       2.753  34.063   7.329  0.00  0.00     0.167 HD
ENDBRANCH   5  23
TORSDOF 3
