REMARK  5 active torsions:
REMARK  status: ('A' for Active; 'I' for Inactive)
REMARK       I    between atoms: C2_2  and  N3_3 
REMARK       I    between atoms: C2_2  and  N7_7 
REMARK    1  A    between atoms: N3_3  and  C4_4 
REMARK    2  A    between atoms: N7_7  and  C8_8 
REMARK    3  A    between atoms: C13_12  and  C14_13 
REMARK    4  A    between atoms: C19_17  and  C20_18 
REMARK    5  A    between atoms: C20_18  and  N21_19 
ROOT
ATOM      1  C14 L0G d   1       3.455  32.406   6.422  0.00  0.00     0.162 A 
ATOM      2  N15 L0G d   1       2.947  33.618   6.601  0.00  0.00    -0.227 NA
ATOM      3  C17 L0G d   1       2.513  34.085   5.434  0.00  0.00     0.086 A 
ATOM      4  C18 L0G d   1       1.920  35.281   5.151  0.00  0.00    -0.045 A 
ATOM      5  C19 L0G d   1       1.535  35.588   3.873  0.00  0.00    -0.030 A 
ATOM      6  C28 L0G d   1       1.762  34.653   2.860  0.00  0.00    -0.073 A 
ATOM      7  C29 L0G d   1       2.369  33.430   3.159  0.00  0.00    -0.054 A 
ATOM      8  C30 L0G d   1       2.750  33.147   4.471  0.00  0.00     0.062 A 
ATOM      9  N31 L0G d   1       3.359  32.056   5.101  0.00  0.00    -0.337 N 
ATOM     10  H10 L0G d   1       1.752  35.997   5.947  0.00  0.00     0.088 H 
ATOM     11  H22 L0G d   1       1.467  34.876   1.841  0.00  0.00     0.084 H 
ATOM     12  H23 L0G d   1       2.543  32.703   2.374  0.00  0.00     0.087 H 
ATOM     13  H24 L0G d   1       3.669  31.176   4.664  0.00  0.00     0.167 HD
ENDROOT
BRANCH   1  14
ATOM     14  C13 L0G d   1       4.017  31.616   7.479  0.00  0.00     0.150 A 
ATOM     15  C8  L0G d   1       4.842  30.541   7.369  0.00  0.00     0.087 A 
ATOM     16  C9  L0G d   1       5.101  30.137   8.605  0.00  0.00     0.024 A 
ATOM     17  N10 L0G d   1       4.440  30.969   9.442  0.00  0.00    -0.286 N 
ATOM     18  H8  L0G d   1       5.728  29.294   8.892  0.00  0.00     0.117 H 
ATOM     19  N12 L0G d   1       3.758  31.909   8.763  0.00  0.00    -0.169 NA
ATOM     20  H9  L0G d   1       4.457  30.892  10.469  0.00  0.00     0.188 HD
BRANCH  15  21
ATOM     21  N7  L0G d   1       5.290  29.999   6.224  0.00  0.00    -0.305 N 
ATOM     22  C2  L0G d   1       5.915  28.807   6.222  0.00  0.00     0.321 C 
ATOM     23  O1  L0G d   1       6.171  28.203   7.254  0.00  0.00    -0.247 OA
ATOM     24  N3  L0G d   1       6.234  28.334   5.000  0.00  0.00    -0.338 N 
ATOM     25  H1  L0G d   1       6.903  27.595   4.922  0.00  0.00     0.164 HD
ATOM     26  H7  L0G d   1       5.157  30.488   5.362  0.00  0.00     0.171 HD
BRANCH  24  27
ATOM     27  C4  L0G d   1       5.638  28.864   3.812  0.00  0.00     0.014 A 
ATOM     28  C5  L0G d   1       6.473  29.703   2.895  0.00  0.00    -0.044 A 
ATOM     29  C6  L0G d   1       6.062  28.320   2.485  0.00  0.00    -0.044 A 
ATOM     30  H3  L0G d   1       7.523  29.913   3.145  0.00  0.00     0.036 H 
ATOM     31  H4  L0G d   1       6.032  30.579   2.396  0.00  0.00     0.036 H 
ATOM     32  H5  L0G d   1       5.320  28.181   1.685  0.00  0.00     0.036 H 
ATOM     33  H6  L0G d   1       6.811  27.516   2.434  0.00  0.00     0.036 H 
ATOM     34  H2  L0G d   1       4.585  29.121   3.999  0.00  0.00     0.072 H 
ENDBRANCH  24  27
ENDBRANCH  15  21
ENDBRANCH   1  14
BRANCH   5  35
ATOM     35  C20 L0G d   1       0.901  36.917   3.591  0.00  0.00     0.107 C 
ATOM     36  H11 L0G d   1       1.639  37.711   3.776  0.00  0.00     0.083 H 
ATOM     37  H12 L0G d   1       0.041  37.052   4.263  0.00  0.00     0.083 H 
BRANCH  35  38
ATOM     38  N21 L0G d   1       0.435  37.011   2.189  0.00  0.00    -0.063 N 
ATOM     39  C23 L0G d   1      -0.775  36.204   2.040  0.00  0.00     0.103 C 
ATOM     40  C24 L0G d   1      -1.303  36.286   0.622  0.00  0.00     0.042 C 
ATOM     41  H14 L0G d   1      -1.544  36.575   2.733  0.00  0.00     0.079 H 
ATOM     42  H15 L0G d   1      -0.541  35.156   2.278  0.00  0.00     0.079 H 
ATOM     43  O25 L0G d   1      -1.511  37.653   0.225  0.00  0.00    -0.388 OA
ATOM     44  H16 L0G d   1      -2.259  35.745   0.563  0.00  0.00     0.076 H 
ATOM     45  H17 L0G d   1      -0.576  35.821  -0.060  0.00  0.00     0.076 H 
ATOM     46  C26 L0G d   1      -0.294  38.408   0.347  0.00  0.00     0.042 C 
ATOM     47  C27 L0G d   1       0.191  38.416   1.775  0.00  0.00     0.103 C 
ATOM     48  H18 L0G d   1      -0.478  39.443   0.023  0.00  0.00     0.076 H 
ATOM     49  H19 L0G d   1       0.477  37.955  -0.293  0.00  0.00     0.076 H 
ATOM     50  H20 L0G d   1       1.124  38.993   1.848  0.00  0.00     0.079 H 
ATOM     51  H21 L0G d   1      -0.572  38.869   2.425  0.00  0.00     0.079 H 
ATOM     52  H13 L0G d   1       1.151  36.631   1.590  0.00  0.00     0.280 HD
ENDBRANCH  35  38
ENDBRANCH   5  35
TORSDOF 5
