REMARK  3 active torsions:
REMARK  status: ('A' for Active; 'I' for Inactive)
REMARK       I    between atoms: C2_2  and  N3_3 
REMARK    1  A    between atoms: C2_2  and  C20_18 
REMARK    2  A    between atoms: N3_3  and  C4_4 
REMARK    3  A    between atoms: C9_8  and  C10_9 
ROOT
ATOM      1  C4  L0F d   1      27.297   4.419  63.012  0.00  0.00     0.086 A 
ATOM      2  C5  L0F d   1      26.631   3.232  63.138  0.00  0.00     0.024 A 
ATOM      3  N6  L0F d   1      27.269   2.493  64.080  0.00  0.00    -0.286 N 
ATOM      4  N8  L0F d   1      28.361   3.232  64.552  0.00  0.00    -0.169 NA
ATOM      5  C9  L0F d   1      28.388   4.387  63.915  0.00  0.00     0.150 A 
ATOM      6  H2  L0F d   1      25.745   2.932  62.581  0.00  0.00     0.117 H 
ATOM      7  H3  L0F d   1      26.997   1.550  64.394  0.00  0.00     0.188 HD
ENDROOT
BRANCH   1   8
ATOM      8  N3  L0F d   1      27.010   5.519  62.142  0.00  0.00    -0.320 N 
ATOM      9  C2  L0F d   1      25.907   5.668  61.339  0.00  0.00     0.256 C 
ATOM     10  O1  L0F d   1      25.026   4.819  61.294  0.00  0.00    -0.267 OA
ATOM     11  H1  L0F d   1      27.684   6.257  62.117  0.00  0.00     0.169 HD
BRANCH   9  12
ATOM     12  C20 L0F d   1      25.793   6.902  60.502  0.00  0.00     0.032 A 
ATOM     13  C21 L0F d   1      24.905   6.945  59.386  0.00  0.00    -0.068 A 
ATOM     14  C22 L0F d   1      24.804   8.113  58.603  0.00  0.00    -0.082 A 
ATOM     15  H9  L0F d   1      24.306   6.076  59.139  0.00  0.00     0.085 H 
ATOM     16  C23 L0F d   1      25.579   9.248  58.920  0.00  0.00    -0.083 A 
ATOM     17  H10 L0F d   1      24.129   8.139  57.755  0.00  0.00     0.083 H 
ATOM     18  C24 L0F d   1      26.462   9.221  60.022  0.00  0.00    -0.082 A 
ATOM     19  H11 L0F d   1      25.497  10.144  58.316  0.00  0.00     0.083 H 
ATOM     20  C25 L0F d   1      26.572   8.058  60.814  0.00  0.00    -0.068 A 
ATOM     21  H12 L0F d   1      27.057  10.096  60.260  0.00  0.00     0.083 H 
ATOM     22  H13 L0F d   1      27.249   8.042  61.661  0.00  0.00     0.085 H 
ENDBRANCH   9  12
ENDBRANCH   1   8
BRANCH   5  23
ATOM     23  C10 L0F d   1      29.376   5.474  64.107  0.00  0.00     0.162 A 
ATOM     24  N11 L0F d   1      29.350   6.626  63.474  0.00  0.00    -0.227 NA
ATOM     25  C12 L0F d   1      30.378   7.399  63.883  0.00  0.00     0.086 A 
ATOM     26  C13 L0F d   1      30.837   8.702  63.517  0.00  0.00    -0.053 A 
ATOM     27  C17 L0F d   1      31.129   6.625  64.822  0.00  0.00     0.062 A 
ATOM     28  C14 L0F d   1      31.971   9.235  64.127  0.00  0.00    -0.081 A 
ATOM     29  H4  L0F d   1      30.304   9.275  62.766  0.00  0.00     0.087 H 
ATOM     30  C15 L0F d   1      32.702   8.479  65.070  0.00  0.00    -0.081 A 
ATOM     31  H5  L0F d   1      32.295  10.239  63.876  0.00  0.00     0.083 H 
ATOM     32  C16 L0F d   1      32.274   7.191  65.439  0.00  0.00    -0.055 A 
ATOM     33  H6  L0F d   1      33.600   8.895  65.513  0.00  0.00     0.083 H 
ATOM     34  H7  L0F d   1      32.818   6.633  66.193  0.00  0.00     0.087 H 
ATOM     35  N18 L0F d   1      30.451   5.429  64.957  0.00  0.00    -0.337 N 
ATOM     36  H8  L0F d   1      30.706   4.649  65.580  0.00  0.00     0.167 HD
ENDBRANCH   5  23
TORSDOF 3
