REMARK  5 active torsions:
REMARK  status: ('A' for Active; 'I' for Inactive)
REMARK       I    between atoms: C2_2  and  N3_3 
REMARK       I    between atoms: C2_2  and  N7_7 
REMARK    1  A    between atoms: N3_3  and  C4_4 
REMARK    2  A    between atoms: N7_7  and  C8_8 
REMARK    3  A    between atoms: C13_12  and  C14_13 
REMARK    4  A    between atoms: C19_18  and  C20_19 
REMARK    5  A    between atoms: C20_19  and  N21_20 
ROOT
ATOM      1  C14 L0I d   1      42.347   3.977  -3.198  0.00  0.00     0.162 A 
ATOM      2  N15 L0I d   1      41.538   3.251  -3.972  0.00  0.00    -0.227 NA
ATOM      3  C16 L0I d   1      42.298   2.272  -4.486  0.00  0.00     0.086 A 
ATOM      4  C17 L0I d   1      41.983   1.239  -5.359  0.00  0.00    -0.052 A 
ATOM      5  C18 L0I d   1      42.979   0.359  -5.732  0.00  0.00    -0.073 A 
ATOM      6  C19 L0I d   1      44.292   0.482  -5.272  0.00  0.00    -0.030 A 
ATOM      7  C28 L0I d   1      44.612   1.512  -4.395  0.00  0.00    -0.047 A 
ATOM      8  C29 L0I d   1      43.605   2.394  -4.022  0.00  0.00     0.063 A 
ATOM      9  N30 L0I d   1      43.601   3.481  -3.194  0.00  0.00    -0.337 N 
ATOM     10  H10 L0I d   1      40.974   1.126  -5.740  0.00  0.00     0.087 H 
ATOM     11  H11 L0I d   1      42.734  -0.455  -6.405  0.00  0.00     0.084 H 
ATOM     12  H23 L0I d   1      45.620   1.624  -4.012  0.00  0.00     0.087 H 
ATOM     13  H24 L0I d   1      44.404   3.852  -2.666  0.00  0.00     0.167 HD
ENDROOT
BRANCH   1  14
ATOM     14  C13 L0I d   1      41.964   5.137  -2.435  0.00  0.00     0.150 A 
ATOM     15  C8  L0I d   1      40.680   5.581  -2.207  0.00  0.00     0.087 A 
ATOM     16  C9  L0I d   1      40.780   6.687  -1.425  0.00  0.00     0.024 A 
ATOM     17  N10 L0I d   1      42.088   6.898  -1.237  0.00  0.00    -0.286 N 
ATOM     18  H8  L0I d   1      39.959   7.283  -1.030  0.00  0.00     0.117 H 
ATOM     19  N12 L0I d   1      42.838   5.955  -1.854  0.00  0.00    -0.169 NA
ATOM     20  H9  L0I d   1      42.476   7.681  -0.691  0.00  0.00     0.188 HD
BRANCH  15  21
ATOM     21  N7  L0I d   1      39.607   4.875  -2.672  0.00  0.00    -0.305 N 
ATOM     22  C2  L0I d   1      38.381   5.227  -3.020  0.00  0.00     0.321 C 
ATOM     23  O1  L0I d   1      37.858   6.290  -2.779  0.00  0.00    -0.247 OA
ATOM     24  N3  L0I d   1      37.816   4.104  -3.481  0.00  0.00    -0.338 N 
ATOM     25  H1  L0I d   1      37.825   3.305  -2.879  0.00  0.00     0.164 HD
ATOM     26  H7  L0I d   1      39.784   3.896  -2.769  0.00  0.00     0.171 HD
BRANCH  24  27
ATOM     27  C4  L0I d   1      37.198   3.952  -4.768  0.00  0.00     0.014 A 
ATOM     28  C5  L0I d   1      38.142   3.343  -5.754  0.00  0.00    -0.044 A 
ATOM     29  C6  L0I d   1      36.999   2.545  -5.239  0.00  0.00    -0.044 A 
ATOM     30  H3  L0I d   1      39.169   3.092  -5.449  0.00  0.00     0.036 H 
ATOM     31  H4  L0I d   1      38.144   3.689  -6.798  0.00  0.00     0.036 H 
ATOM     32  H5  L0I d   1      36.156   2.301  -5.902  0.00  0.00     0.036 H 
ATOM     33  H6  L0I d   1      37.180   1.705  -4.553  0.00  0.00     0.036 H 
ATOM     34  H2  L0I d   1      36.492   4.760  -5.011  0.00  0.00     0.072 H 
ENDBRANCH  24  27
ENDBRANCH  15  21
ENDBRANCH   1  14
BRANCH   6  35
ATOM     35  C20 L0I d   1      45.337  -0.537  -5.684  0.00  0.00     0.107 C 
ATOM     36  H12 L0I d   1      44.806  -1.368  -6.171  0.00  0.00     0.083 H 
ATOM     37  H13 L0I d   1      45.819  -0.899  -4.764  0.00  0.00     0.083 H 
BRANCH  35  38
ATOM     38  N21 L0I d   1      46.432  -0.101  -6.617  0.00  0.00    -0.063 N 
ATOM     39  C23 L0I d   1      47.317   0.970  -6.039  0.00  0.00     0.103 C 
ATOM     40  C24 L0I d   1      48.503   1.310  -6.943  0.00  0.00     0.042 C 
ATOM     41  H15 L0I d   1      47.703   0.622  -5.069  0.00  0.00     0.079 H 
ATOM     42  H16 L0I d   1      46.717   1.880  -5.890  0.00  0.00     0.079 H 
ATOM     43  O25 L0I d   1      49.230   0.157  -7.420  0.00  0.00    -0.388 OA
ATOM     44  H17 L0I d   1      49.198   1.946  -6.376  0.00  0.00     0.076 H 
ATOM     45  H18 L0I d   1      48.125   1.865  -7.814  0.00  0.00     0.076 H 
ATOM     46  C26 L0I d   1      48.341  -0.801  -8.025  0.00  0.00     0.042 C 
ATOM     47  C27 L0I d   1      47.257  -1.274  -7.061  0.00  0.00     0.103 C 
ATOM     48  H19 L0I d   1      48.928  -1.672  -8.352  0.00  0.00     0.076 H 
ATOM     49  H20 L0I d   1      47.860  -0.335  -8.898  0.00  0.00     0.076 H 
ATOM     50  H21 L0I d   1      46.610  -2.006  -7.567  0.00  0.00     0.079 H 
ATOM     51  H22 L0I d   1      47.726  -1.744  -6.184  0.00  0.00     0.079 H 
ATOM     52  H14 L0I d   1      45.988   0.288  -7.434  0.00  0.00     0.280 HD
ENDBRANCH  35  38
ENDBRANCH   6  35
TORSDOF 5
