REMARK  2 active torsions:
REMARK  status: ('A' for Active; 'I' for Inactive)
REMARK    1  A    between atoms: C41_2  and  C4_4 
REMARK    2  A    between atoms: C2_8  and  C21_10 
ROOT
ATOM      1  C4  PD2 d   1      10.215  36.839  87.514  0.00  0.00     0.044 A 
ATOM      2  C5  PD2 d   1      10.778  36.356  88.692  0.00  0.00    -0.049 A 
ATOM      3  C6  PD2 d   1      10.408  36.882  89.914  0.00  0.00     0.004 A 
ATOM      4  C3  PD2 d   1       9.260  37.866  87.534  0.00  0.00    -0.032 A 
ATOM      5  C2  PD2 d   1       8.933  38.366  88.824  0.00  0.00     0.133 A 
ATOM      6  N1  PD2 d   1       9.512  37.835  89.929  0.00  0.00    -0.254 NA
ATOM      7  H1  PD2 d   1      11.513  35.560  88.650  0.00  0.00     0.087 H 
ATOM      8  H2  PD2 d   1      10.848  36.516  90.835  0.00  0.00     0.114 H 
ATOM      9  H3  PD2 d   1       8.803  38.251  86.629  0.00  0.00     0.089 H 
ENDROOT
BRANCH   1  10
ATOM     10  C41 PD2 d   1      10.685  36.219  86.197  0.00  0.00     0.209 C 
ATOM     11  O42 PD2 d   1      10.986  35.015  86.164  0.00  0.00    -0.644 OA
ATOM     12  O41 PD2 d   1      10.793  37.011  85.256  0.00  0.00    -0.644 OA
ENDBRANCH   1  10
BRANCH   5  13
ATOM     13  C21 PD2 d   1       7.889  39.399  89.031  0.00  0.00     0.229 C 
ATOM     14  O21 PD2 d   1       7.464  40.008  88.020  0.00  0.00    -0.643 OA
ATOM     15  O22 PD2 d   1       7.377  39.473  90.217  0.00  0.00    -0.643 OA
ENDBRANCH   5  13
TORSDOF 2
