REMARK WARNING: 32 MAX_TORS EXCEEDED!!!
REMARK  42 active torsions:
REMARK  status: ('A' for Active; 'I' for Inactive)
REMARK    1  A    between atoms: N_1  and  CA_2 
REMARK    2  A    between atoms: CA_2  and  C_3 
REMARK    3  A    between atoms: CA_2  and  CB_5 
REMARK       I    between atoms: C_3  and  N_12 
REMARK    4  A    between atoms: CB_5  and  CG_6 
REMARK    5  A    between atoms: CG_6  and  CD_7 
REMARK    6  A    between atoms: CD_7  and  NE_8 
REMARK       I    between atoms: NE_8  and  CZ_9 
REMARK       I    between atoms: CZ_9  and  NH1_10 
REMARK    7  A    between atoms: N_12  and  CA_13 
REMARK    8  A    between atoms: CA_13  and  C_14 
REMARK    9  A    between atoms: CA_13  and  CB_16 
REMARK       I    between atoms: C_14  and  N_21 
REMARK   10  A    between atoms: CB_16  and  CG_17 
REMARK   11  A    between atoms: CG_17  and  CD_18 
REMARK   12  A    between atoms: N_21  and  CA_22 
REMARK   13  A    between atoms: CA_22  and  C_23 
REMARK   14  A    between atoms: CA_22  and  CB_25 
REMARK       I    between atoms: C_23  and  N_29 
REMARK   15  A    between atoms: CB_25  and  CG_26 
REMARK   16  A    between atoms: CG_26  and  CD1_27 
REMARK   17  A    between atoms: CG_26  and  CD2_28 
REMARK   18  A    between atoms: N_29  and  CA_30 
REMARK   19  A    between atoms: CA_30  and  C_31 
REMARK   20  A    between atoms: CA_30  and  CB_33 
REMARK       I    between atoms: C_31  and  N_37 
REMARK   21  A    between atoms: CB_33  and  CG_34 
REMARK   22  A    between atoms: CG_34  and  CD1_35 
REMARK   23  A    between atoms: CG_34  and  CD2_36 
REMARK   24  A    between atoms: CA_38  and  C_39 
REMARK       I    between atoms: C_39  and  N_44 
REMARK   25  A    between atoms: N_44  and  CA_45 
REMARK   26  A    between atoms: CA_45  and  C_46 
REMARK   27  A    between atoms: CA_45  and  CB_48 
REMARK       I    between atoms: C_46  and  N_53 
REMARK   28  A    between atoms: CB_48  and  CG_49 
REMARK   29  A    between atoms: CG_49  and  CD_50 
REMARK   30  A    between atoms: N_53  and  CA_54 
REMARK   31  A    between atoms: CA_54  and  C_55 
REMARK   32  A    between atoms: CA_54  and  CB_57 
REMARK       I    between atoms: C_55  and  N_61 
REMARK   33  A    between atoms: CB_57  and  CG_58 
REMARK   34  A    between atoms: CG_58  and  CD1_59 
REMARK   35  A    between atoms: CG_58  and  CD2_60 
REMARK   36  A    between atoms: CA_62  and  C_63 
REMARK       I    between atoms: C_63  and  N_68 
REMARK   37  A    between atoms: N_68  and  CA_69 
REMARK   38  A    between atoms: CA_69  and  C_70 
REMARK   39  A    between atoms: CA_69  and  CB_72 
REMARK       I    between atoms: C_70  and  N_78 
REMARK   40  A    between atoms: CB_72  and  CG_73 
REMARK   41  A    between atoms: CA_79  and  C_80 
REMARK       I    between atoms: C_80  and  N_85 
REMARK   42  A    between atoms: CA_86  and  C_87 
ROOT
ATOM      1  N   GLU d   1      26.056   2.509  43.089  0.00  0.00    -0.346 N 
ATOM      2  H51 GLU d   1      26.869   2.916  43.505  0.00  0.00     0.163 HD
ATOM      3  C   PRO d   1      26.189   1.305  42.542  0.00  0.00     0.241 C 
ATOM      4  O   PRO d   1      25.256   0.649  42.074  0.00  0.00    -0.271 OA
ENDROOT
BRANCH   1   5
ATOM      5  CA  GLU d   1      24.823   3.285  43.133  0.00  0.00     0.090 C 
ATOM      6  H52 GLU d   1      24.126   2.822  43.847  0.00  0.00     0.087 H 
BRANCH   5   7
ATOM      7  C   GLU d   1      24.148   3.379  41.760  0.00  0.00     0.241 C 
ATOM      8  O   GLU d   1      24.829   3.441  40.728  0.00  0.00    -0.271 OA
ATOM      9  N   LEU d   1      22.815   3.383  41.747  0.00  0.00    -0.346 N 
ATOM     10  H57 LEU d   1      22.316   3.131  42.576  0.00  0.00     0.163 HD
BRANCH   9  11
ATOM     11  CA  LEU d   1      22.065   3.750  40.542  0.00  0.00     0.090 C 
ATOM     12  H58 LEU d   1      22.467   3.188  39.686  0.00  0.00     0.087 H 
BRANCH  11  13
ATOM     13  C   LEU d   1      22.260   5.249  40.298  0.00  0.00     0.243 C 
ATOM     14  O   LEU d   1      22.213   6.037  41.251  0.00  0.00    -0.271 OA
ATOM     15  N   PRO d   1      22.492   5.647  39.030  0.00  0.00    -0.337 N 
ATOM     16  CA  PRO d   1      22.749   7.059  38.743  0.00  0.00     0.091 C 
ATOM     17  CD  PRO d   1      22.540   4.818  37.810  0.00  0.00    -0.001 C 
ATOM     18  CB  PRO d   1      23.124   7.057  37.257  0.00  0.00    -0.036 C 
ATOM     19  H68 PRO d   1      23.590   7.419  39.354  0.00  0.00     0.087 H 
ATOM     20  CG  PRO d   1      22.520   5.825  36.703  0.00  0.00    -0.048 C 
ATOM     21  H69 PRO d   1      24.217   7.038  37.136  0.00  0.00     0.036 H 
ATOM     22  H70 PRO d   1      22.715   7.946  36.755  0.00  0.00     0.036 H 
ATOM     23  H71 PRO d   1      23.108   5.463  35.847  0.00  0.00     0.035 H 
ATOM     24  H72 PRO d   1      21.486   6.018  36.382  0.00  0.00     0.035 H 
ATOM     25  H73 PRO d   1      21.666   4.152  37.752  0.00  0.00     0.064 H 
ATOM     26  H74 PRO d   1      23.461   4.217  37.779  0.00  0.00     0.064 H 
BRANCH  16  27
ATOM     27  C   PRO d   1      21.543   7.968  38.993  0.00  0.00     0.241 C 
ATOM     28  O   PRO d   1      20.399   7.603  38.693  0.00  0.00    -0.271 OA
ATOM     29  N   HIS d   1      21.813   9.136  39.564  0.00  0.00    -0.346 N 
ATOM     30  H75 HIS d   1      22.746   9.318  39.873  0.00  0.00     0.163 HD
BRANCH  29  31
ATOM     31  CA  HIS d   1      20.802  10.156  39.754  0.00  0.00     0.095 C 
ATOM     32  H76 HIS d   1      19.857   9.682  40.058  0.00  0.00     0.088 H 
BRANCH  31  33
ATOM     33  C   HIS d   1      20.610  10.875  38.428  0.00  0.00     0.243 C 
ATOM     34  O   HIS d   1      21.569  11.019  37.659  0.00  0.00    -0.271 OA
ATOM     35  N   PRO d   1      19.366  11.300  38.136  0.00  0.00    -0.337 N 
ATOM     36  CA  PRO d   1      19.119  12.125  36.955  0.00  0.00     0.092 C 
ATOM     37  CD  PRO d   1      18.123  11.010  38.871  0.00  0.00    -0.001 C 
ATOM     38  CB  PRO d   1      17.594  12.290  36.955  0.00  0.00    -0.036 C 
ATOM     39  H82 PRO d   1      19.462  11.617  36.042  0.00  0.00     0.087 H 
ATOM     40  CG  PRO d   1      17.172  12.021  38.338  0.00  0.00    -0.048 C 
ATOM     41  H83 PRO d   1      17.129  11.571  36.264  0.00  0.00     0.036 H 
ATOM     42  H84 PRO d   1      17.318  13.313  36.660  0.00  0.00     0.036 H 
ATOM     43  H85 PRO d   1      16.146  11.625  38.354  0.00  0.00     0.035 H 
ATOM     44  H86 PRO d   1      17.219  12.942  38.937  0.00  0.00     0.035 H 
ATOM     45  H87 PRO d   1      18.266  11.136  39.954  0.00  0.00     0.064 H 
ATOM     46  H88 PRO d   1      17.771   9.989  38.664  0.00  0.00     0.064 H 
BRANCH  36  47
ATOM     47  C   PRO d   1      19.808  13.487  37.071  0.00  0.00     0.243 C 
ATOM     48  O   PRO d   1      20.071  13.943  38.192  0.00  0.00    -0.271 OA
ATOM     49  N   PRO d   1      20.116  14.126  35.923  0.00  0.00    -0.339 N 
ATOM     50  CA  PRO d   1      20.682  15.479  35.869  0.00  0.00     0.065 C 
ATOM     51  CD  PRO d   1      19.960  13.557  34.568  0.00  0.00    -0.001 C 
ATOM     52  CB  PRO d   1      20.373  15.912  34.440  0.00  0.00    -0.039 C 
ATOM     53  H89 PRO d   1      21.766  15.451  36.053  0.00  0.00     0.084 H 
ATOM     54  CG  PRO d   1      20.470  14.649  33.663  0.00  0.00    -0.048 C 
ATOM     55  H91 PRO d   1      21.109  16.649  34.085  0.00  0.00     0.036 H 
ATOM     56  H92 PRO d   1      19.362  16.340  34.369  0.00  0.00     0.036 H 
ATOM     57  H93 PRO d   1      21.515  14.454  33.382  0.00  0.00     0.035 H 
ATOM     58  H94 PRO d   1      19.852  14.711  32.755  0.00  0.00     0.035 H 
ATOM     59  H95 PRO d   1      18.904  13.332  34.356  0.00  0.00     0.064 H 
ATOM     60  H96 PRO d   1      20.560  12.642  34.455  0.00  0.00     0.064 H 
BRANCH  50  61
ATOM     61  C   PRO d   1      20.033  16.448  36.849  0.00  0.00     0.110 C 
ATOM     62  O   PRO d   1      18.824  16.386  37.061  0.00  0.00    -0.305 OA
ATOM     63  H90 PRO d   1      20.639  17.194  37.361  0.00  0.00     0.146 H 
ENDBRANCH  50  61
ENDBRANCH  36  47
ENDBRANCH  31  33
BRANCH  31  64
ATOM     64  CB  HIS d   1      21.229  11.155  40.834  0.00  0.00     0.004 C 
ATOM     65  H77 HIS d   1      20.445  11.921  40.927  0.00  0.00     0.046 H 
ATOM     66  H78 HIS d   1      22.169  11.629  40.515  0.00  0.00     0.046 H 
BRANCH  64  67
ATOM     67  CG  HIS d   1      21.446  10.536  42.181  0.00  0.00     0.053 A 
ATOM     68  ND1 HIS d   1      20.415  10.043  42.950  0.00  0.00    -0.247 NA
ATOM     69  CE1 HIS d   1      20.902   9.566  44.081  0.00  0.00     0.064 A 
ATOM     70  NE2 HIS d   1      22.211   9.741  44.079  0.00  0.00    -0.359 N 
ATOM     71  H80 HIS d   1      20.322   9.106  44.880  0.00  0.00     0.143 H 
ATOM     72  CD2 HIS d   1      22.578  10.340  42.899  0.00  0.00     0.002 A 
ATOM     73  H81 HIS d   1      22.852   9.472  44.839  0.00  0.00     0.166 HD
ATOM     74  H79 HIS d   1      23.590  10.607  42.597  0.00  0.00     0.114 H 
ENDBRANCH  64  67
ENDBRANCH  31  64
ENDBRANCH  29  31
ENDBRANCH  16  27
ENDBRANCH  11  13
BRANCH  11  75
ATOM     75  CB  LEU d   1      20.571   3.425  40.680  0.00  0.00    -0.035 C 
ATOM     76  H59 LEU d   1      20.065   3.873  39.812  0.00  0.00     0.037 H 
ATOM     77  H60 LEU d   1      20.221   3.914  41.601  0.00  0.00     0.037 H 
BRANCH  75  78
ATOM     78  CG  LEU d   1      20.117   1.958  40.753  0.00  0.00    -0.059 C 
ATOM     79  H61 LEU d   1      20.712   1.468  41.538  0.00  0.00     0.038 H 
BRANCH  78  80
ATOM     80  CD1 LEU d   1      18.651   1.851  41.147  0.00  0.00    -0.073 C 
ATOM     81  H62 LEU d   1      18.359   0.791  41.190  0.00  0.00     0.028 H 
ATOM     82  H63 LEU d   1      18.032   2.372  40.402  0.00  0.00     0.028 H 
ATOM     83  H64 LEU d   1      18.502   2.312  42.134  0.00  0.00     0.028 H 
ENDBRANCH  78  80
BRANCH  78  84
ATOM     84  CD2 LEU d   1      20.369   1.208  39.447  0.00  0.00    -0.073 C 
ATOM     85  H65 LEU d   1      21.431   1.293  39.174  0.00  0.00     0.028 H 
ATOM     86  H66 LEU d   1      19.749   1.643  38.649  0.00  0.00     0.028 H 
ATOM     87  H67 LEU d   1      20.108   0.147  39.577  0.00  0.00     0.028 H 
ENDBRANCH  78  84
ENDBRANCH  75  78
ENDBRANCH  11  75
ENDBRANCH   9  11
ENDBRANCH   5   7
BRANCH   5  88
ATOM     88  CB  GLU d   1      25.189   4.695  43.594  0.00  0.00    -0.029 C 
ATOM     89  H53 GLU d   1      25.277   5.327  42.698  0.00  0.00     0.037 H 
ATOM     90  H54 GLU d   1      26.164   4.638  44.099  0.00  0.00     0.037 H 
BRANCH  88  91
ATOM     91  CG  GLU d   1      24.224   5.371  44.537  0.00  0.00     0.018 C 
ATOM     92  H55 GLU d   1      24.099   4.740  45.429  0.00  0.00     0.049 H 
ATOM     93  H56 GLU d   1      23.254   5.486  44.031  0.00  0.00     0.049 H 
BRANCH  91  94
ATOM     94  CD  GLU d   1      24.720   6.753  44.974  0.00  0.00     0.172 C 
ATOM     95  OE1 GLU d   1      24.702   7.030  46.189  0.00  0.00    -0.648 OA
ATOM     96  OE2 GLU d   1      25.136   7.558  44.110  0.00  0.00    -0.648 OA
ENDBRANCH  91  94
ENDBRANCH  88  91
ENDBRANCH   5  88
ENDBRANCH   1   5
BRANCH   3  97
ATOM     97  CA  PRO d   1      27.622   0.758  42.528  0.00  0.00     0.091 C 
ATOM     98  N   PRO d   1      27.705  -0.697  42.429  0.00  0.00    -0.337 N 
ATOM     99  C   LEU d   1      27.509  -1.576  43.432  0.00  0.00     0.243 C 
ATOM    100  CD  PRO d   1      28.023  -1.136  41.057  0.00  0.00    -0.001 C 
ATOM    101  O   LEU d   1      27.680  -2.790  43.293  0.00  0.00    -0.271 OA
ATOM    102  CG  PRO d   1      28.134   0.155  40.285  0.00  0.00    -0.048 C 
ATOM    103  H49 PRO d   1      27.219  -1.768  40.651  0.00  0.00     0.064 H 
ATOM    104  H50 PRO d   1      28.973  -1.690  41.033  0.00  0.00     0.064 H 
ATOM    105  CB  PRO d   1      28.357   1.231  41.271  0.00  0.00    -0.036 C 
ATOM    106  H47 PRO d   1      28.980   0.104  39.584  0.00  0.00     0.035 H 
ATOM    107  H48 PRO d   1      27.205   0.342  39.726  0.00  0.00     0.035 H 
ATOM    108  H45 PRO d   1      29.431   1.357  41.473  0.00  0.00     0.036 H 
ATOM    109  H46 PRO d   1      27.938   2.182  40.910  0.00  0.00     0.036 H 
ATOM    110  H44 PRO d   1      28.138   1.103  43.436  0.00  0.00     0.087 H 
BRANCH  99 111
ATOM    111  CA  LEU d   1      27.042  -1.018  44.776  0.00  0.00     0.090 C 
ATOM    112  H34 LEU d   1      27.147   0.077  44.770  0.00  0.00     0.087 H 
BRANCH 111 113
ATOM    113  N   LEU d   1      25.630  -1.362  44.958  0.00  0.00    -0.346 N 
ATOM    114  C   LEU d   1      24.728  -0.494  45.413  0.00  0.00     0.241 C 
ATOM    115  O   LEU d   1      24.989   0.677  45.686  0.00  0.00    -0.271 OA
ATOM    116  H33 LEU d   1      25.330  -2.289  44.731  0.00  0.00     0.163 HD
BRANCH 114 117
ATOM    117  CA  LEU d   1      23.327  -1.049  45.630  0.00  0.00     0.089 C 
ATOM    118  H23 LEU d   1      23.366  -2.138  45.478  0.00  0.00     0.087 H 
BRANCH 117 119
ATOM    119  N   LEU d   1      22.906  -0.795  47.004  0.00  0.00    -0.346 N 
ATOM    120  C   GLU d   1      23.146  -1.677  47.967  0.00  0.00     0.241 C 
ATOM    121  O   GLU d   1      23.611  -2.799  47.746  0.00  0.00    -0.271 OA
ATOM    122  H22 LEU d   1      22.430   0.056  47.224  0.00  0.00     0.163 HD
BRANCH 120 123
ATOM    123  CA  GLU d   1      22.799  -1.244  49.384  0.00  0.00     0.090 C 
ATOM    124  H17 GLU d   1      21.864  -0.664  49.369  0.00  0.00     0.087 H 
BRANCH 123 125
ATOM    125  N   GLU d   1      22.629  -2.415  50.224  0.00  0.00    -0.346 N 
ATOM    126  C   ARG d   1      21.587  -2.573  51.033  0.00  0.00     0.248 C 
ATOM    127  O   ARG d   1      20.633  -1.798  51.066  0.00  0.00    -0.271 OA
ATOM    128  H16 GLU d   1      23.325  -3.133  50.193  0.00  0.00     0.163 HD
BRANCH 126 129
ATOM    129  CA  ARG d   1      21.633  -3.805  51.937  0.00  0.00     0.176 C 
ATOM    130  H4  ARG d   1      22.690  -4.048  52.122  0.00  0.00     0.099 H 
BRANCH 129 131
ATOM    131  N   ARG d   1      20.991  -3.529  53.259  0.00  0.00    -0.067 N 
ATOM    132  H1  ARG d   1      21.035  -4.356  53.833  0.00  0.00     0.275 HD
ATOM    133  H2  ARG d   1      20.027  -3.270  53.117  0.00  0.00     0.275 HD
ATOM    134  H3  ARG d   1      21.477  -2.775  53.718  0.00  0.00     0.275 HD
ENDBRANCH 129 131
BRANCH 129 135
ATOM    135  CB  ARG d   1      20.987  -5.014  51.241  0.00  0.00    -0.029 C 
ATOM    136  H5  ARG d   1      19.914  -4.807  51.114  0.00  0.00     0.036 H 
ATOM    137  H6  ARG d   1      21.116  -5.894  51.888  0.00  0.00     0.036 H 
BRANCH 135 138
ATOM    138  CG  ARG d   1      21.582  -5.336  49.865  0.00  0.00    -0.047 C 
ATOM    139  H7  ARG d   1      22.678  -5.360  49.951  0.00  0.00     0.035 H 
ATOM    140  H8  ARG d   1      21.287  -4.546  49.159  0.00  0.00     0.035 H 
BRANCH 138 141
ATOM    141  CD  ARG d   1      21.105  -6.677  49.324  0.00  0.00     0.009 C 
ATOM    142  H9  ARG d   1      20.012  -6.645  49.204  0.00  0.00     0.064 H 
ATOM    143  H10 ARG d   1      21.372  -7.467  50.042  0.00  0.00     0.064 H 
BRANCH 141 144
ATOM    144  NE  ARG d   1      21.716  -6.986  48.028  0.00  0.00    -0.227 N 
ATOM    145  CZ  ARG d   1      21.228  -6.604  46.850  0.00  0.00     0.665 C 
ATOM    146  NH1 ARG d   1      20.116  -5.877  46.788  0.00  0.00    -0.235 N 
ATOM    147  NH2 ARG d   1      21.855  -6.941  45.729  0.00  0.00    -0.235 N 
ATOM    148  H12 ARG d   1      19.743  -5.584  45.874  0.00  0.00     0.174 HD
ATOM    149  H13 ARG d   1      19.628  -5.607  47.654  0.00  0.00     0.174 HD
ATOM    150  H14 ARG d   1      22.717  -7.504  45.770  0.00  0.00     0.174 HD
ATOM    151  H15 ARG d   1      21.480  -6.639  44.818  0.00  0.00     0.174 HD
ATOM    152  H11 ARG d   1      22.585  -7.538  48.029  0.00  0.00     0.177 HD
ENDBRANCH 141 144
ENDBRANCH 138 141
ENDBRANCH 135 138
ENDBRANCH 129 135
ENDBRANCH 126 129
ENDBRANCH 123 125
BRANCH 123 153
ATOM    153  CB  GLU d   1      23.923  -0.382  49.954  0.00  0.00    -0.029 C 
ATOM    154  H18 GLU d   1      24.833  -0.573  49.366  0.00  0.00     0.037 H 
ATOM    155  H19 GLU d   1      24.091  -0.685  50.998  0.00  0.00     0.037 H 
BRANCH 153 156
ATOM    156  CG  GLU d   1      23.655   1.104  49.934  0.00  0.00     0.018 C 
ATOM    157  H20 GLU d   1      22.641   1.287  50.319  0.00  0.00     0.049 H 
ATOM    158  H21 GLU d   1      23.723   1.463  48.896  0.00  0.00     0.049 H 
BRANCH 156 159
ATOM    159  CD  GLU d   1      24.648   1.876  50.785  0.00  0.00     0.172 C 
ATOM    160  OE1 GLU d   1      24.654   1.690  52.019  0.00  0.00    -0.648 OA
ATOM    161  OE2 GLU d   1      25.422   2.674  50.220  0.00  0.00    -0.648 OA
ENDBRANCH 156 159
ENDBRANCH 153 156
ENDBRANCH 123 153
ENDBRANCH 120 123
ENDBRANCH 117 119
BRANCH 117 162
ATOM    162  CB  LEU d   1      22.319  -0.475  44.632  0.00  0.00    -0.035 C 
ATOM    163  H24 LEU d   1      22.730  -0.596  43.619  0.00  0.00     0.037 H 
ATOM    164  H25 LEU d   1      22.189   0.595  44.850  0.00  0.00     0.037 H 
BRANCH 162 165
ATOM    165  CG  LEU d   1      20.940  -1.145  44.674  0.00  0.00    -0.059 C 
ATOM    166  H26 LEU d   1      20.489  -0.940  45.656  0.00  0.00     0.038 H 
BRANCH 165 167
ATOM    167  CD1 LEU d   1      20.016  -0.595  43.609  0.00  0.00    -0.073 C 
ATOM    168  H27 LEU d   1      19.041  -1.100  43.673  0.00  0.00     0.028 H 
ATOM    169  H28 LEU d   1      20.455  -0.771  42.616  0.00  0.00     0.028 H 
ATOM    170  H29 LEU d   1      19.880   0.485  43.764  0.00  0.00     0.028 H 
ENDBRANCH 165 167
BRANCH 165 171
ATOM    171  CD2 LEU d   1      21.092  -2.652  44.519  0.00  0.00    -0.073 C 
ATOM    172  H30 LEU d   1      21.766  -3.035  45.300  0.00  0.00     0.028 H 
ATOM    173  H31 LEU d   1      21.513  -2.878  43.528  0.00  0.00     0.028 H 
ATOM    174  H32 LEU d   1      20.107  -3.132  44.617  0.00  0.00     0.028 H 
ENDBRANCH 165 171
ENDBRANCH 162 165
ENDBRANCH 117 162
ENDBRANCH 114 117
ENDBRANCH 111 113
BRANCH 111 175
ATOM    175  CB  LEU d   1      27.900  -1.590  45.915  0.00  0.00    -0.035 C 
ATOM    176  H35 LEU d   1      28.900  -1.143  45.812  0.00  0.00     0.037 H 
ATOM    177  H36 LEU d   1      27.965  -2.675  45.747  0.00  0.00     0.037 H 
BRANCH 175 178
ATOM    178  CG  LEU d   1      27.479  -1.396  47.380  0.00  0.00    -0.059 C 
ATOM    179  H37 LEU d   1      26.387  -1.515  47.435  0.00  0.00     0.038 H 
BRANCH 178 180
ATOM    180  CD1 LEU d   1      28.122  -2.467  48.263  0.00  0.00    -0.073 C 
ATOM    181  H38 LEU d   1      27.812  -2.316  49.307  0.00  0.00     0.028 H 
ATOM    182  H39 LEU d   1      29.217  -2.393  48.191  0.00  0.00     0.028 H 
ATOM    183  H40 LEU d   1      27.799  -3.463  47.925  0.00  0.00     0.028 H 
ENDBRANCH 178 180
BRANCH 178 184
ATOM    184  CD2 LEU d   1      27.825   0.000  47.902  0.00  0.00    -0.073 C 
ATOM    185  H41 LEU d   1      27.356   0.759  47.258  0.00  0.00     0.028 H 
ATOM    186  H42 LEU d   1      28.917   0.135  47.893  0.00  0.00     0.028 H 
ATOM    187  H43 LEU d   1      27.451   0.110  48.930  0.00  0.00     0.028 H 
ENDBRANCH 178 184
ENDBRANCH 175 178
ENDBRANCH 111 175
ENDBRANCH  99 111
ENDBRANCH   3  97
TORSDOF 42
