REMARK  5 active torsions:
REMARK  status: ('A' for Active; 'I' for Inactive)
REMARK    1  A    between atoms: C17_6  and  C8_9 
REMARK    2  A    between atoms: C8_9  and  O3_10 
REMARK       I    between atoms: N2_12  and  C12_13 
REMARK       I    between atoms: C12_13  and  N3_15 
REMARK    3  A    between atoms: N3_15  and  C2_16 
REMARK    4  A    between atoms: C10_23  and  C1_25 
REMARK       I    between atoms: C1_25  and  N1_27 
REMARK    5  A    between atoms: N1_27  and  C26_28 
ROOT
ATOM      1  C8  L1C d   1       3.900   7.220  23.712  0.00  0.00     0.106 C 
ATOM      2  C11 L1C d   1       5.157   7.571  24.474  0.00  0.00     0.033 C 
ATOM      3  N2  L1C d   1       6.130   7.989  23.474  0.00  0.00    -0.317 N 
ATOM      4  C12 L1C d   1       7.453   8.158  23.688  0.00  0.00     0.323 C 
ATOM      5  O2  L1C d   1       8.181   8.477  22.769  0.00  0.00    -0.247 OA
ATOM      6  N3  L1C d   1       7.955   7.808  24.880  0.00  0.00    -0.309 N 
ATOM      7  C10 L1C d   1       5.461   8.264  22.189  0.00  0.00     0.097 C 
ATOM      8  C9  L1C d   1       3.974   8.007  22.426  0.00  0.00    -0.003 C 
ATOM      9  H5  L1C d   1       5.528   6.694  25.024  0.00  0.00     0.069 H 
ATOM     10  H6  L1C d   1       4.959   8.390  25.181  0.00  0.00     0.069 H 
ATOM     11  H7  L1C d   1       7.296   7.554  25.588  0.00  0.00     0.170 HD
ATOM     12  H12 L1C d   1       5.612   9.320  21.922  0.00  0.00     0.088 H 
ATOM     13  H13 L1C d   1       3.431   8.958  22.526  0.00  0.00     0.041 H 
ATOM     14  H14 L1C d   1       3.547   7.426  21.595  0.00  0.00     0.041 H 
ENDROOT
BRANCH   7  15
ATOM     15  C1  L1C d   1       5.994   7.412  21.057  0.00  0.00     0.246 C 
ATOM     16  O1  L1C d   1       6.170   7.954  19.992  0.00  0.00    -0.271 OA
ATOM     17  N1  L1C d   1       6.273   6.122  21.286  0.00  0.00    -0.310 N 
ATOM     18  H15 L1C d   1       6.089   5.783  22.209  0.00  0.00     0.170 HD
BRANCH  17  19
ATOM     19  C26 L1C d   1       6.784   5.215  20.393  0.00  0.00     0.129 A 
ATOM     20  C27 L1C d   1       7.111   5.523  19.071  0.00  0.00    -0.036 A 
ATOM     21  C28 L1C d   1       7.624   4.549  18.229  0.00  0.00    -0.052 A 
ATOM     22  H16 L1C d   1       6.963   6.531  18.701  0.00  0.00     0.089 H 
ATOM     23  C29 L1C d   1       7.811   3.252  18.683  0.00  0.00     0.059 A 
ATOM     24  H17 L1C d   1       7.881   4.803  17.207  0.00  0.00     0.087 H 
ATOM     25  C30 L1C d   1       7.475   2.973  20.008  0.00  0.00     0.031 A 
ATOM     26  N4  L1C d   1       8.320   2.321  17.843  0.00  0.00    -0.288 N 
ATOM     27  N6  L1C d   1       6.977   3.940  20.813  0.00  0.00    -0.241 NA
ATOM     28  H18 L1C d   1       7.614   1.971  20.397  0.00  0.00     0.118 H 
ATOM     29  C24 L1C d   1       9.459   1.685  18.159  0.00  0.00    -0.011 A 
ATOM     30  C20 L1C d   1       7.691   2.025  16.612  0.00  0.00     0.252 A 
ATOM     31  C23 L1C d   1      10.036   0.733  17.323  0.00  0.00    -0.067 A 
ATOM     32  H19 L1C d   1       9.949   1.922  19.102  0.00  0.00     0.112 H 
ATOM     33  C19 L1C d   1       9.427   0.426  16.111  0.00  0.00    -0.076 A 
ATOM     34  H20 L1C d   1      10.958   0.232  17.616  0.00  0.00     0.085 H 
ATOM     35  C21 L1C d   1       8.249   1.075  15.758  0.00  0.00    -0.017 A 
ATOM     36  H21 L1C d   1       9.868  -0.315  15.445  0.00  0.00     0.083 H 
ATOM     37  H22 L1C d   1       7.761   0.841  14.813  0.00  0.00     0.092 H 
ATOM     38  O4  L1C d   1       6.638   2.607  16.277  0.00  0.00    -0.268 OA
ENDBRANCH  17  19
ENDBRANCH   7  15
BRANCH   1  39
ATOM     39  C17 L1C d   1       2.624   7.477  24.491  0.00  0.00     0.016 A 
ATOM     40  C16 L1C d   1       2.274   8.733  24.998  0.00  0.00     0.128 A 
ATOM     41  C15 L1C d   1       1.084   8.909  25.710  0.00  0.00    -0.008 A 
ATOM     42  F1  L1C d   1       3.058   9.810  24.824  0.00  0.00    -0.205 F 
ATOM     43  C14 L1C d   1       0.226   7.833  25.921  0.00  0.00     0.119 A 
ATOM     44  H1  L1C d   1       0.828   9.888  26.100  0.00  0.00     0.093 H 
ATOM     45  F2  L1C d   1      -0.921   7.984  26.614  0.00  0.00    -0.206 F 
ATOM     46  C13 L1C d   1       0.561   6.584  25.427  0.00  0.00    -0.045 A 
ATOM     47  C18 L1C d   1       1.745   6.409  24.716  0.00  0.00    -0.068 A 
ATOM     48  H3  L1C d   1      -0.100   5.741  25.594  0.00  0.00     0.088 H 
ATOM     49  H2  L1C d   1       1.992   5.427  24.329  0.00  0.00     0.084 H 
ENDBRANCH   1  39
BRANCH   1  50
ATOM     50  O3  L1C d   1       4.034   5.830  23.406  0.00  0.00    -0.383 OA
ATOM     51  H4  L1C d   1       3.292   5.549  22.883  0.00  0.00     0.211 HD
ENDBRANCH   1  50
BRANCH   6  52
ATOM     52  C2  L1C d   1       9.282   7.763  25.228  0.00  0.00     0.036 A 
ATOM     53  C7  L1C d   1       9.612   7.283  26.491  0.00  0.00    -0.056 A 
ATOM     54  C6  L1C d   1      10.939   7.225  26.907  0.00  0.00    -0.060 A 
ATOM     55  H8  L1C d   1       8.826   6.950  27.159  0.00  0.00     0.087 H 
ATOM     56  C5  L1C d   1      11.945   7.666  26.051  0.00  0.00     0.034 A 
ATOM     57  H9  L1C d   1      11.187   6.840  27.889  0.00  0.00     0.086 H 
ATOM     58 CL1  L1C d   1      13.658   7.593  26.533  0.00  0.00    -0.084 Cl
ATOM     59  C4  L1C d   1      11.634   8.156  24.795  0.00  0.00    -0.060 A 
ATOM     60  C3  L1C d   1      10.317   8.208  24.385  0.00  0.00    -0.056 A 
ATOM     61  H10 L1C d   1      12.423   8.498  24.135  0.00  0.00     0.086 H 
ATOM     62  H11 L1C d   1      10.077   8.596  23.402  0.00  0.00     0.087 H 
ENDBRANCH   6  52
TORSDOF 5
