REMARK  8 active torsions:
REMARK  status: ('A' for Active; 'I' for Inactive)
REMARK    1  A    between atoms: CBE_6  and  NBB_7 
REMARK    2  A    between atoms: NBB_7  and  CBD_8 
REMARK       I    between atoms: NBB_7  and  CBA_14 
REMARK    3  A    between atoms: CBA_14  and  CAH_16 
REMARK    4  A    between atoms: CAJ_20  and  CAK_21 
REMARK    5  A    between atoms: NAF_22  and  CAE_23 
REMARK    6  A    between atoms: CAD_28  and  CAL_29 
REMARK       I    between atoms: CAL_29  and  NAM_31 
REMARK    7  A    between atoms: CAO_40  and  CAX_41 
REMARK    8  A    between atoms: CAX_41  and  NAZ_42 
ROOT
ATOM      1  CAE DRO d   1      40.825  29.154 -14.770  0.00  0.00     0.074 A 
ATOM      2  CAA DRO d   1      41.673  30.259 -14.776  0.00  0.00    -0.054 A 
ATOM      3  CAB DRO d   1      41.159  31.540 -14.999  0.00  0.00    -0.081 A 
ATOM      4  CAC DRO d   1      39.799  31.731 -15.188  0.00  0.00    -0.082 A 
ATOM      5  CAY DRO d   1      38.937  30.656 -15.161  0.00  0.00    -0.065 A 
ATOM      6  CAD DRO d   1      39.444  29.372 -14.941  0.00  0.00     0.060 A 
ATOM      7  H14 DRO d   1      42.735  30.125 -14.607  0.00  0.00     0.087 H 
ATOM      8  H15 DRO d   1      41.830  32.391 -15.024  0.00  0.00     0.083 H 
ATOM      9  H16 DRO d   1      39.412  32.729 -15.358  0.00  0.00     0.083 H 
ATOM     10  H17 DRO d   1      37.874  30.805 -15.309  0.00  0.00     0.085 H 
ENDROOT
BRANCH   1  11
ATOM     11  NAF DRO d   1      41.284  27.896 -14.564  0.00  0.00    -0.235 N 
ATOM     12  NAG DRO d   1      40.982  27.238 -13.553  0.00  0.00    -0.160 NA
ATOM     13  CAH DRO d   1      41.573  26.033 -13.552  0.00  0.00     0.169 A 
ATOM     14  CAI DRO d   1      42.262  25.935 -14.749  0.00  0.00     0.094 A 
ATOM     15 CL1  DRO d   1      43.197  24.566 -15.272  0.00  0.00    -0.079 Cl
ATOM     16  CAJ DRO d   1      42.091  27.172 -15.366  0.00  0.00     0.057 A 
BRANCH  13  17
ATOM     17  CBA DRO d   1      41.337  24.923 -12.480  0.00  0.00     0.285 C 
ATOM     18  NBB DRO d   1      41.313  25.209 -11.171  0.00  0.00    -0.277 N 
ATOM     19  OBC DRO d   1      41.100  23.779 -12.880  0.00  0.00    -0.265 OA
BRANCH  18  20
ATOM     20  CBE DRO d   1      41.543  26.452 -10.636  0.00  0.00     0.043 A 
ATOM     21  CBF DRO d   1      42.842  26.978 -10.650  0.00  0.00    -0.057 A 
ATOM     22  CBG DRO d   1      43.078  28.231 -10.089  0.00  0.00    -0.081 A 
ATOM     23  H1  DRO d   1      43.655  26.415 -11.093  0.00  0.00     0.086 H 
ATOM     24  CBH DRO d   1      42.050  28.935  -9.479  0.00  0.00    -0.083 A 
ATOM     25  H2  DRO d   1      44.073  28.659 -10.129  0.00  0.00     0.083 H 
ATOM     26  CBI DRO d   1      40.755  28.432  -9.417  0.00  0.00    -0.081 A 
ATOM     27  H3  DRO d   1      42.262  29.903  -9.039  0.00  0.00     0.083 H 
ATOM     28  CBJ DRO d   1      40.521  27.165  -9.999  0.00  0.00    -0.057 A 
ATOM     29  H4  DRO d   1      39.956  28.989  -8.941  0.00  0.00     0.083 H 
ATOM     30  H5  DRO d   1      39.527  26.736  -9.951  0.00  0.00     0.086 H 
ENDBRANCH  18  20
BRANCH  18  31
ATOM     31  CBD DRO d   1      40.989  24.194 -10.293  0.00  0.00     0.043 A 
ATOM     32  CBK DRO d   1      39.685  23.650 -10.365  0.00  0.00    -0.057 A 
ATOM     33  CBL DRO d   1      39.265  22.633  -9.486  0.00  0.00    -0.081 A 
ATOM     34  H6  DRO d   1      38.995  24.024 -11.113  0.00  0.00     0.086 H 
ATOM     35  CBM DRO d   1      40.134  22.166  -8.487  0.00  0.00    -0.083 A 
ATOM     36  H7  DRO d   1      38.271  22.211  -9.581  0.00  0.00     0.083 H 
ATOM     37  CBN DRO d   1      41.409  22.728  -8.372  0.00  0.00    -0.081 A 
ATOM     38  H8  DRO d   1      39.820  21.378  -7.812  0.00  0.00     0.083 H 
ATOM     39  CBO DRO d   1      41.825  23.736  -9.269  0.00  0.00    -0.057 A 
ATOM     40  H9  DRO d   1      42.081  22.389  -7.592  0.00  0.00     0.083 H 
ATOM     41  H10 DRO d   1      42.815  24.165  -9.162  0.00  0.00     0.086 H 
ENDBRANCH  18  31
ENDBRANCH  13  17
BRANCH  16  42
ATOM     42  CAK DRO d   1      42.695  27.600 -16.718  0.00  0.00    -0.034 C 
ATOM     43  H11 DRO d   1      43.309  26.781 -17.121  0.00  0.00     0.035 H 
ATOM     44  H12 DRO d   1      43.322  28.492 -16.573  0.00  0.00     0.035 H 
ATOM     45  H13 DRO d   1      41.885  27.832 -17.425  0.00  0.00     0.035 H 
ENDBRANCH  16  42
ENDBRANCH   1  11
BRANCH   6  46
ATOM     46  CAL DRO d   1      38.477  28.172 -14.915  0.00  0.00     0.256 C 
ATOM     47  OAN DRO d   1      38.517  27.323 -15.822  0.00  0.00    -0.267 OA
ATOM     48  NAM DRO d   1      37.594  27.995 -13.915  0.00  0.00    -0.337 N 
ATOM     49  CAQ DRO d   1      37.477  28.914 -12.710  0.00  0.00     0.023 C 
ATOM     50  CAO DRO d   1      36.727  26.790 -13.971  0.00  0.00     0.042 C 
ATOM     51  CAR DRO d   1      37.266  28.032 -11.444  0.00  0.00    -0.034 A 
ATOM     52  H18 DRO d   1      36.619  29.591 -12.839  0.00  0.00     0.071 H 
ATOM     53  H19 DRO d   1      38.398  29.506 -12.602  0.00  0.00     0.071 H 
ATOM     54  CAW DRO d   1      37.227  28.651 -10.181  0.00  0.00    -0.075 A 
ATOM     55  CAS DRO d   1      37.081  26.646 -11.501  0.00  0.00    -0.048 A 
ATOM     56  CAV DRO d   1      37.021  27.908  -9.008  0.00  0.00    -0.082 A 
ATOM     57  H20 DRO d   1      37.359  29.725 -10.112  0.00  0.00     0.084 H 
ATOM     58  CAU DRO d   1      36.841  26.542  -9.085  0.00  0.00    -0.082 A 
ATOM     59  H21 DRO d   1      37.003  28.405  -8.045  0.00  0.00     0.083 H 
ATOM     60  CAT DRO d   1      36.883  25.908 -10.321  0.00  0.00    -0.076 A 
ATOM     61  H22 DRO d   1      36.667  25.965  -8.184  0.00  0.00     0.083 H 
ATOM     62  H23 DRO d   1      36.762  24.832 -10.376  0.00  0.00     0.084 H 
ATOM     63  CAP DRO d   1      37.101  25.852 -12.809  0.00  0.00    -0.020 C 
ATOM     64  H24 DRO d   1      36.374  25.028 -12.752  0.00  0.00     0.043 H 
ATOM     65  H25 DRO d   1      38.108  25.442 -12.976  0.00  0.00     0.043 H 
ATOM     66  H26 DRO d   1      36.894  26.270 -14.926  0.00  0.00     0.075 H 
BRANCH  50  67
ATOM     67  CAX DRO d   1      35.246  27.183 -13.869  0.00  0.00     0.099 C 
ATOM     68  H27 DRO d   1      35.165  28.235 -13.557  0.00  0.00     0.078 H 
ATOM     69  H28 DRO d   1      34.745  26.541 -13.129  0.00  0.00     0.078 H 
BRANCH  67  70
ATOM     70  NAZ DRO d   1      34.613  27.010 -15.175  0.00  0.00    -0.077 N 
ATOM     71  H29 DRO d   1      33.640  27.267 -15.114  0.00  0.00     0.274 HD
ATOM     72  H30 DRO d   1      34.689  26.046 -15.460  0.00  0.00     0.274 HD
ATOM     73  H31 DRO d   1      35.074  27.598 -15.852  0.00  0.00     0.274 HD
ENDBRANCH  67  70
ENDBRANCH  50  67
ENDBRANCH   6  46
TORSDOF 8
