REMARK  4 active torsions:
REMARK  status: ('A' for Active; 'I' for Inactive)
REMARK    1  A    between atoms: C2_2  and  N13_13 
REMARK    2  A    between atoms: C3_3  and  C22_22 
REMARK    3  A    between atoms: C4_4  and  C12_12 
REMARK    4  A    between atoms: C15_15  and  O27_27 
ROOT
ATOM      1  N1  VGA d   1      15.962  -1.042   4.704  0.00  0.00    -0.232 NA
ATOM      2  C2  VGA d   1      17.245  -0.828   4.886  0.00  0.00     0.133 C 
ATOM      3  C3  VGA d   1      17.671   0.030   6.061  0.00  0.00     0.121 C 
ATOM      4  C4  VGA d   1      15.973   1.615   5.902  0.00  0.00     0.075 C 
ATOM      5  N5  VGA d   1      17.224   1.399   5.760  0.00  0.00    -0.270 NA
ATOM      6  C6  VGA d   1      14.955   0.595   6.244  0.00  0.00     0.022 A 
ATOM      7  C7  VGA d   1      14.956  -0.619   5.565  0.00  0.00     0.071 A 
ATOM      8  C8  VGA d   1      13.920  -1.492   5.864  0.00  0.00    -0.054 A 
ATOM      9  C9  VGA d   1      12.908  -1.206   6.767  0.00  0.00    -0.081 A 
ATOM     10  C10 VGA d   1      12.879   0.002   7.435  0.00  0.00    -0.082 A 
ATOM     11  C11 VGA d   1      13.909   0.893   7.160  0.00  0.00    -0.069 A 
ATOM     12  H1  VGA d   1      17.128  -0.352   6.938  0.00  0.00     0.096 H 
ATOM     13  H2  VGA d   1      13.901  -2.453   5.363  0.00  0.00     0.087 H 
ATOM     14  H3  VGA d   1      12.131  -1.939   6.951  0.00  0.00     0.083 H 
ATOM     15  H4  VGA d   1      12.091   0.243   8.139  0.00  0.00     0.083 H 
ATOM     16  H5  VGA d   1      13.915   1.853   7.663  0.00  0.00     0.085 H 
ENDROOT
BRANCH   2  17
ATOM     17  N13 VGA d   1      18.173  -1.340   4.002  0.00  0.00    -0.362 N 
ATOM     18  C14 VGA d   1      18.113  -2.244   2.821  0.00  0.00     0.022 C 
ATOM     19  C15 VGA d   1      19.595  -1.954   2.510  0.00  0.00     0.066 C 
ATOM     20  H6  VGA d   1      17.418  -1.910   2.037  0.00  0.00     0.068 H 
ATOM     21  H7  VGA d   1      17.906  -3.295   3.072  0.00  0.00     0.068 H 
ATOM     22  C16 VGA d   1      19.636  -1.231   3.847  0.00  0.00     0.022 C 
ATOM     23  H8  VGA d   1      19.771  -1.330   1.621  0.00  0.00     0.087 H 
ATOM     24  H9  VGA d   1      20.204  -1.767   4.622  0.00  0.00     0.068 H 
ATOM     25  H10 VGA d   1      19.997  -0.194   3.778  0.00  0.00     0.068 H 
BRANCH  19  26
ATOM     26  O27 VGA d   1      20.452  -3.090   2.490  0.00  0.00    -0.392 OA
ATOM     27  H19 VGA d   1      20.397  -3.512   1.641  0.00  0.00     0.210 HD
ENDBRANCH  19  26
ENDBRANCH   2  17
BRANCH   3  28
ATOM     28  C22 VGA d   1      19.104   0.150   6.467  0.00  0.00     0.015 A 
ATOM     29  S23 VGA d   1      19.844   1.735   6.489  0.00  0.00    -0.104 SA
ATOM     30  C24 VGA d   1      21.328   1.035   7.118  0.00  0.00    -0.044 A 
ATOM     31  C25 VGA d   1      21.187  -0.281   7.269  0.00  0.00    -0.076 A 
ATOM     32  H16 VGA d   1      22.232   1.596   7.351  0.00  0.00     0.095 H 
ATOM     33  C26 VGA d   1      19.943  -0.783   6.919  0.00  0.00    -0.067 A 
ATOM     34  H17 VGA d   1      21.990  -0.916   7.640  0.00  0.00     0.084 H 
ATOM     35  H18 VGA d   1      19.677  -1.836   7.005  0.00  0.00     0.085 H 
ENDBRANCH   3  28
BRANCH   4  36
ATOM     36  C12 VGA d   1      15.424   2.933   5.509  0.00  0.00    -0.007 A 
ATOM     37  C17 VGA d   1      16.257   4.023   5.240  0.00  0.00    -0.071 A 
ATOM     38  C18 VGA d   1      15.718   5.234   4.833  0.00  0.00    -0.082 A 
ATOM     39  H11 VGA d   1      17.331   3.921   5.350  0.00  0.00     0.084 H 
ATOM     40  C19 VGA d   1      14.349   5.375   4.681  0.00  0.00    -0.083 A 
ATOM     41  H12 VGA d   1      16.372   6.075   4.633  0.00  0.00     0.083 H 
ATOM     42  C20 VGA d   1      13.509   4.294   4.912  0.00  0.00    -0.082 A 
ATOM     43  H13 VGA d   1      13.933   6.330   4.381  0.00  0.00     0.083 H 
ATOM     44  C21 VGA d   1      14.043   3.074   5.309  0.00  0.00    -0.071 A 
ATOM     45  H14 VGA d   1      12.438   4.402   4.783  0.00  0.00     0.083 H 
ATOM     46  H15 VGA d   1      13.387   2.225   5.465  0.00  0.00     0.084 H 
ENDBRANCH   4  36
TORSDOF 4
