REMARK  3 active torsions:
REMARK  status: ('A' for Active; 'I' for Inactive)
REMARK    1  A    between atoms: C2_5  and  N2_6 
REMARK    2  A    between atoms: C6_12  and  C6A_13 
REMARK    3  A    between atoms: C6A_13  and  O6A_14 
ROOT
ATOM      1  C7  HHR d   1      14.636   8.837  24.892  0.00  0.00     0.030 A 
ATOM      2  N8  HHR d   1      15.285   9.618  24.040  0.00  0.00    -0.237 NA
ATOM      3  C9  HHR d   1      16.550   9.998  24.286  0.00  0.00     0.202 A 
ATOM      4  N1  HHR d   1      17.183  10.794  23.403  0.00  0.00    -0.043 NA
ATOM      5  C2  HHR d   1      18.451  11.197  23.614  0.00  0.00     0.703 A 
ATOM      6  C10 HHR d   1      17.191   9.569  25.459  0.00  0.00     0.174 A 
ATOM      7  C4  HHR d   1      18.505   9.969  25.712  0.00  0.00     0.292 A 
ATOM      8  N3  HHR d   1      19.146  10.796  24.775  0.00  0.00    -0.152 N 
ATOM      9  O4  HHR d   1      19.097   9.609  26.730  0.00  0.00    -0.265 OA
ATOM     10  N5  HHR d   1      16.531   8.776  26.323  0.00  0.00    -0.240 NA
ATOM     11  C6  HHR d   1      15.265   8.403  26.058  0.00  0.00     0.076 A 
ATOM     12  H1  HHR d   1      13.616   8.536  24.682  0.00  0.00     0.118 H 
ATOM     13  H4  HHR d   1      20.087  11.098  24.929  0.00  0.00     0.187 HD
ENDROOT
BRANCH  11  14
ATOM     14  C6A HHR d   1      14.511   7.506  27.038  0.00  0.00     0.058 C 
ATOM     15  H5  HHR d   1      14.780   6.470  26.786  0.00  0.00     0.083 H 
ATOM     16  H6  HHR d   1      13.439   7.663  26.846  0.00  0.00     0.083 H 
BRANCH  14  17
ATOM     17  O6A HHR d   1      14.671   7.624  28.251  0.00  0.00    -0.395 OA
ATOM     18  H7  HHR d   1      14.127   6.990  28.704  0.00  0.00     0.209 HD
ENDBRANCH  14  17
ENDBRANCH  11  14
BRANCH   5  19
ATOM     19  N2  HHR d   1      19.046  11.984  22.723  0.00  0.00    -0.233 N 
ATOM     20  H2  HHR d   1      18.540  12.277  21.875  0.00  0.00     0.174 HD
ATOM     21  H3  HHR d   1      20.013  12.301  22.880  0.00  0.00     0.174 HD
ENDBRANCH   5  19
TORSDOF 3
