REMARK  10 active torsions:
REMARK  status: ('A' for Active; 'I' for Inactive)
REMARK    1  A    between atoms: O3B_8  and  PG_1 
REMARK    2  A    between atoms: PB_5  and  O3B_8 
REMARK    3  A    between atoms: O3A_12  and  PB_5 
REMARK    4  A    between atoms: PA_9  and  O3A_12 
REMARK    5  A    between atoms: PA_9  and  O5'_13 
REMARK    6  A    between atoms: O5'_13  and  C5'_14 
REMARK    7  A    between atoms: C5'_14  and  C4'_15 
REMARK    8  A    between atoms: C3'_17  and  O3'_18 
REMARK    9  A    between atoms: C2'_19  and  O2'_20 
REMARK   10  A    between atoms: C1'_21  and  N9_22 
ROOT
ATOM      1  C4' ATP d   1      37.828  -7.555  19.043  0.00  0.00     0.089 C 
ATOM      2  O4' ATP d   1      36.974  -6.876  18.126  0.00  0.00    -0.353 OA
ATOM      3  C3' ATP d   1      39.163  -7.783  18.317  0.00  0.00     0.091 C 
ATOM      4  C2' ATP d   1      38.917  -7.403  16.858  0.00  0.00     0.105 C 
ATOM      5  C1' ATP d   1      37.419  -7.185  16.788  0.00  0.00     0.139 C 
ATOM      6  H3  ATP d   1      37.398  -8.537  19.287  0.00  0.00     0.090 H 
ATOM      7  H4  ATP d   1      39.956  -7.154  18.749  0.00  0.00     0.091 H 
ATOM      8  H6  ATP d   1      39.501  -6.514  16.577  0.00  0.00     0.093 H 
ATOM      9  H8  ATP d   1      36.947  -8.131  16.486  0.00  0.00     0.122 H 
ENDROOT
BRANCH   1  10
ATOM     10  C5' ATP d   1      37.913  -6.753  20.335  0.00  0.00     0.058 C 
ATOM     11  H1  ATP d   1      36.893  -6.532  20.682  0.00  0.00     0.079 H 
ATOM     12  H2  ATP d   1      38.435  -7.357  21.092  0.00  0.00     0.079 H 
BRANCH  10  13
ATOM     13  O5' ATP d   1      38.616  -5.522  20.165  0.00  0.00    -0.287 OA
BRANCH  13  14
ATOM     14  PA  ATP d   1      39.019  -4.698  21.498  0.00  0.00     0.417 P 
ATOM     15  O1A ATP d   1      39.603  -3.354  21.104  0.00  0.00    -0.624 OA
ATOM     16  O2A ATP d   1      39.771  -5.572  22.489  0.00  0.00    -0.624 OA
BRANCH  14  17
ATOM     17  O3A ATP d   1      37.547  -4.510  22.117  0.00  0.00    -0.180 OA
BRANCH  17  18
ATOM     18  PB  ATP d   1      37.122  -3.225  22.964  0.00  0.00     0.428 P 
ATOM     19  O1B ATP d   1      35.812  -3.521  23.637  0.00  0.00    -0.624 OA
ATOM     20  O2B ATP d   1      37.240  -2.044  22.044  0.00  0.00    -0.624 OA
BRANCH  18  21
ATOM     21  O3B ATP d   1      38.294  -3.114  24.062  0.00  0.00    -0.173 OA
BRANCH  21  22
ATOM     22  PG  ATP d   1      38.752  -1.723  24.763  0.00  0.00     0.431 P 
ATOM     23  O1G ATP d   1      40.090  -2.131  25.346  0.00  0.00    -0.616 OA
ATOM     24  O2G ATP d   1      38.858  -0.689  23.668  0.00  0.00    -0.616 OA
ATOM     25  O3G ATP d   1      37.637  -1.452  25.759  0.00  0.00    -0.616 OA
ENDBRANCH  21  22
ENDBRANCH  18  21
ENDBRANCH  17  18
ENDBRANCH  14  17
ENDBRANCH  13  14
ENDBRANCH  10  13
ENDBRANCH   1  10
BRANCH   3  26
ATOM     26  O3' ATP d   1      39.523  -9.170  18.432  0.00  0.00    -0.390 OA
ATOM     27  H5  ATP d   1      38.846  -9.706  18.036  0.00  0.00     0.210 HD
ENDBRANCH   3  26
BRANCH   5  28
ATOM     28  N9  ATP d   1      37.042  -6.166  15.760  0.00  0.00    -0.294 N 
ATOM     29  C8  ATP d   1      36.189  -6.439  14.762  0.00  0.00     0.071 A 
ATOM     30  N7  ATP d   1      35.982  -5.357  13.993  0.00  0.00    -0.236 NA
ATOM     31  H9  ATP d   1      35.725  -7.410  14.597  0.00  0.00     0.144 H 
ATOM     32  C5  ATP d   1      36.749  -4.381  14.489  0.00  0.00     0.149 A 
ATOM     33  C6  ATP d   1      36.950  -2.998  14.098  0.00  0.00     0.155 A 
ATOM     34  C4  ATP d   1      37.442  -4.887  15.670  0.00  0.00     0.167 A 
ATOM     35  N6  ATP d   1      36.289  -2.563  12.986  0.00  0.00    -0.382 N 
ATOM     36  N1  ATP d   1      37.773  -2.251  14.874  0.00  0.00    -0.222 NA
ATOM     37  H10 ATP d   1      36.400  -1.589  12.669  0.00  0.00     0.157 HD
ATOM     38  H11 ATP d   1      35.679  -3.208  12.464  0.00  0.00     0.157 HD
ATOM     39  C2  ATP d   1      38.425  -2.769  15.957  0.00  0.00     0.091 A 
ATOM     40  N3  ATP d   1      38.274  -4.051  16.371  0.00  0.00    -0.222 NA
ATOM     41  H12 ATP d   1      39.096  -2.123  16.512  0.00  0.00     0.146 H 
ENDBRANCH   5  28
BRANCH   4  42
ATOM     42  O2' ATP d   1      39.126  -8.469  15.938  0.00  0.00    -0.388 OA
ATOM     43  H7  ATP d   1      38.536  -9.184  16.145  0.00  0.00     0.210 HD
ENDBRANCH   4  42
TORSDOF 10
