REMARK  23 active torsions:
REMARK  status: ('A' for Active; 'I' for Inactive)
REMARK    1  A    between atoms: C2_2  and  C1_1 
REMARK    2  A    between atoms: O3_28  and  C2_2 
REMARK    3  A    between atoms: C4_4  and  O4_15 
REMARK    4  A    between atoms: C5_5  and  N5_12 
REMARK    5  A    between atoms: C6_6  and  C7_7 
REMARK    6  A    between atoms: C7_7  and  C8_8 
REMARK    7  A    between atoms: C7_7  and  O7_17 
REMARK    8  A    between atoms: C8_8  and  C9_9 
REMARK    9  A    between atoms: C8_8  and  O8_18 
REMARK   10  A    between atoms: C9_9  and  O9_19 
REMARK   11  A    between atoms: C10_10  and  C11_11 
REMARK       I    between atoms: N5_12  and  C10_10 
REMARK   12  A    between atoms: O4_41  and  C1_21 
REMARK   13  A    between atoms: C2_22  and  O2_27 
REMARK   14  A    between atoms: C3_23  and  O3_28 
REMARK   15  A    between atoms: C4_24  and  O4_29 
REMARK   16  A    between atoms: C5_25  and  C6_26 
REMARK   17  A    between atoms: C6_26  and  O6_31 
REMARK   18  A    between atoms: C2_32  and  O2_39 
REMARK   19  A    between atoms: C3_33  and  O3_40 
REMARK   20  A    between atoms: C4_34  and  O4_41 
REMARK   21  A    between atoms: C5_35  and  C6_36 
REMARK   22  A    between atoms: C6_36  and  O6_43 
REMARK   23  A    between atoms: C1_37  and  O1_38 
ROOT
ATOM      1  H18 SIA d   1      26.935 -33.937  -3.082  0.00  0.00     0.133 H 
ATOM      2  H19 SIA d   1      25.037 -33.056  -5.327  0.00  0.00     0.094 H 
ATOM      3  H20 SIA d   1      25.912 -35.817  -4.328  0.00  0.00     0.091 H 
ATOM      4  H21 SIA d   1      27.208 -35.992  -6.396  0.00  0.00     0.091 H 
ATOM      5  H22 SIA d   1      28.369 -34.999  -4.448  0.00  0.00     0.090 H 
ATOM      6  C1  GAL d   1      26.610 -33.227  -3.857  0.00  0.00     0.159 C 
ATOM      7  C2  GAL d   1      25.356 -33.744  -4.530  0.00  0.00     0.110 C 
ATOM      8  C3  GAL d   1      25.694 -35.103  -5.136  0.00  0.00     0.099 C 
ATOM      9  C4  GAL d   1      26.924 -34.989  -6.044  0.00  0.00     0.090 C 
ATOM     10  C5  GAL d   1      28.088 -34.365  -5.302  0.00  0.00     0.089 C 
ATOM     11  O5  GAL d   1      27.642 -33.090  -4.839  0.00  0.00    -0.348 OA
ENDROOT
BRANCH   8  12
ATOM     12  O3  GAL d   1      24.564 -35.565  -5.883  0.00  0.00    -0.336 OA
BRANCH  12  13
ATOM     13  C2  SIA d   1      24.285 -36.976  -5.817  0.00  0.00     0.259 C 
ATOM     14  C3  SIA d   1      23.043 -37.129  -6.695  0.00  0.00     0.024 C 
ATOM     15  C4  SIA d   1      22.347 -38.459  -6.513  0.00  0.00     0.063 C 
ATOM     16  H1  SIA d   1      23.345 -37.033  -7.748  0.00  0.00     0.045 H 
ATOM     17  H2  SIA d   1      22.335 -36.326  -6.442  0.00  0.00     0.045 H 
ATOM     18  C5  SIA d   1      22.020 -38.605  -5.046  0.00  0.00     0.064 C 
ATOM     19  H3  SIA d   1      23.017 -39.275  -6.821  0.00  0.00     0.086 H 
ATOM     20  C6  SIA d   1      23.361 -38.605  -4.337  0.00  0.00     0.091 C 
ATOM     21  H4  SIA d   1      21.336 -37.832  -4.667  0.00  0.00     0.080 H 
ATOM     22  O6  SIA d   1      24.004 -37.350  -4.471  0.00  0.00    -0.336 OA
ATOM     23  H5  SIA d   1      23.984 -39.364  -4.833  0.00  0.00     0.090 H 
BRANCH  13  24
ATOM     24  C1  SIA d   1      25.445 -37.805  -6.378  0.00  0.00     0.239 C 
ATOM     25  O1A SIA d   1      26.036 -38.636  -5.639  0.00  0.00    -0.644 OA
ATOM     26  O1B SIA d   1      25.799 -37.628  -7.579  0.00  0.00    -0.644 OA
ENDBRANCH  13  24
BRANCH  15  27
ATOM     27  O4  SIA d   1      21.170 -38.497  -7.316  0.00  0.00    -0.393 OA
ATOM     28  H14 SIA d   1      20.727 -39.327  -7.187  0.00  0.00     0.210 HD
ENDBRANCH  15  27
BRANCH  18  29
ATOM     29  N5  SIA d   1      21.475 -39.949  -4.950  0.00  0.00    -0.352 N 
ATOM     30  C10 SIA d   1      20.216 -40.225  -4.590  0.00  0.00     0.214 C 
ATOM     31  O10 SIA d   1      19.388 -39.375  -4.286  0.00  0.00    -0.274 OA
ATOM     32  H13 SIA d   1      22.079 -40.716  -5.167  0.00  0.00     0.163 HD
BRANCH  30  33
ATOM     33  C11 SIA d   1      19.884 -41.691  -4.572  0.00  0.00    -0.003 C 
ATOM     34  H10 SIA d   1      18.836 -41.826  -4.267  0.00  0.00     0.040 H 
ATOM     35  H11 SIA d   1      20.543 -42.207  -3.858  0.00  0.00     0.040 H 
ATOM     36  H12 SIA d   1      20.030 -42.112  -5.577  0.00  0.00     0.040 H 
ENDBRANCH  30  33
ENDBRANCH  18  29
BRANCH  20  37
ATOM     37  C7  SIA d   1      23.307 -38.958  -2.857  0.00  0.00     0.089 C 
ATOM     38  H6  SIA d   1      23.098 -40.035  -2.774  0.00  0.00     0.091 H 
BRANCH  37  39
ATOM     39  C8  SIA d   1      24.664 -38.705  -2.197  0.00  0.00     0.083 C 
ATOM     40  H7  SIA d   1      24.905 -37.633  -2.246  0.00  0.00     0.090 H 
BRANCH  39  41
ATOM     41  C9  SIA d   1      24.699 -39.191  -0.756  0.00  0.00     0.043 C 
ATOM     42  H8  SIA d   1      23.681 -39.203  -0.340  0.00  0.00     0.078 H 
ATOM     43  H9  SIA d   1      25.334 -38.526  -0.152  0.00  0.00     0.078 H 
BRANCH  41  44
ATOM     44  O9  SIA d   1      25.247 -40.530  -0.755  0.00  0.00    -0.398 OA
ATOM     45  H17 SIA d   1      26.124 -40.512  -1.119  0.00  0.00     0.209 HD
ENDBRANCH  41  44
ENDBRANCH  39  41
BRANCH  39  46
ATOM     46  O8  SIA d   1      25.665 -39.496  -2.878  0.00  0.00    -0.391 OA
ATOM     47  H16 SIA d   1      25.698 -39.243  -3.793  0.00  0.00     0.210 HD
ENDBRANCH  39  46
ENDBRANCH  37  39
BRANCH  37  48
ATOM     48  O7  SIA d   1      22.239 -38.268  -2.223  0.00  0.00    -0.390 OA
ATOM     49  H15 SIA d   1      21.426 -38.462  -2.674  0.00  0.00     0.210 HD
ENDBRANCH  37  48
ENDBRANCH  20  37
ENDBRANCH  12  13
ENDBRANCH   8  12
BRANCH   7  50
ATOM     50  O2  GAL d   1      24.332 -33.831  -3.543  0.00  0.00    -0.388 OA
ATOM     51  H25 SIA d   1      24.155 -32.965  -3.195  0.00  0.00     0.210 HD
ENDBRANCH   7  50
BRANCH   9  52
ATOM     52  O4  GAL d   1      26.615 -34.152  -7.165  0.00  0.00    -0.390 OA
ATOM     53  H26 SIA d   1      26.381 -33.285  -6.856  0.00  0.00     0.210 HD
ENDBRANCH   9  52
BRANCH   6  54
ATOM     54  O4  BGC d   1      26.327 -31.971  -3.259  0.00  0.00    -0.348 OA
BRANCH  54  55
ATOM     55  C4  BGC d   1      27.425 -31.581  -2.433  0.00  0.00     0.096 C 
ATOM     56  C3  BGC d   1      27.653 -30.083  -2.641  0.00  0.00     0.092 C 
ATOM     57  C2  BGC d   1      28.527 -29.548  -1.523  0.00  0.00     0.110 C 
ATOM     58  H29 SIA d   1      26.682 -29.567  -2.621  0.00  0.00     0.091 H 
ATOM     59  C1  BGC d   1      27.802 -29.712  -0.175  0.00  0.00     0.156 C 
ATOM     60  H28 SIA d   1      29.469 -30.115  -1.490  0.00  0.00     0.094 H 
ATOM     61  O5  BGC d   1      26.883 -30.839  -0.130  0.00  0.00    -0.349 OA
ATOM     62  H34 SIA d   1      27.227 -28.795   0.020  0.00  0.00     0.133 H 
ATOM     63  C5  BGC d   1      27.184 -31.978  -0.960  0.00  0.00     0.089 C 
ATOM     64  H31 SIA d   1      26.315 -32.652  -0.934  0.00  0.00     0.090 H 
ATOM     65  H30 SIA d   1      28.326 -32.113  -2.773  0.00  0.00     0.091 H 
BRANCH  56  66
ATOM     66  O3  BGC d   1      28.283 -29.838  -3.899  0.00  0.00    -0.390 OA
ATOM     67  H37 SIA d   1      28.416 -28.904  -4.009  0.00  0.00     0.210 HD
ENDBRANCH  56  66
BRANCH  57  68
ATOM     68  O2  BGC d   1      28.816 -28.180  -1.799  0.00  0.00    -0.388 OA
ATOM     69  H36 SIA d   1      29.262 -28.114  -2.635  0.00  0.00     0.210 HD
ENDBRANCH  57  68
BRANCH  59  70
ATOM     70  O1  BGC d   1      28.788 -29.876   0.848  0.00  0.00    -0.369 OA
ATOM     71  H35 SIA d   1      29.392 -29.143   0.825  0.00  0.00     0.212 HD
ENDBRANCH  59  70
BRANCH  63  72
ATOM     72  C6  BGC d   1      28.389 -32.735  -0.398  0.00  0.00     0.043 C 
ATOM     73  H32 SIA d   1      28.596 -32.386   0.625  0.00  0.00     0.078 H 
ATOM     74  H33 SIA d   1      29.267 -32.550  -1.034  0.00  0.00     0.078 H 
BRANCH  72  75
ATOM     75  O6  BGC d   1      28.106 -34.132  -0.375  0.00  0.00    -0.398 OA
ATOM     76  H38 SIA d   1      28.855 -34.600  -0.026  0.00  0.00     0.209 HD
ENDBRANCH  72  75
ENDBRANCH  63  72
ENDBRANCH  54  55
ENDBRANCH   6  54
BRANCH  10  77
ATOM     77  C6  GAL d   1      29.296 -34.193  -6.217  0.00  0.00     0.043 C 
ATOM     78  H23 SIA d   1      29.713 -33.182  -6.095  0.00  0.00     0.078 H 
ATOM     79  H24 SIA d   1      28.992 -34.340  -7.264  0.00  0.00     0.078 H 
BRANCH  77  80
ATOM     80  O6  GAL d   1      30.284 -35.170  -5.859  0.00  0.00    -0.398 OA
ATOM     81  H27 SIA d   1      31.043 -35.073  -6.423  0.00  0.00     0.209 HD
ENDBRANCH  77  80
ENDBRANCH  10  77
TORSDOF 23
