REMARK  14 active torsions:
REMARK  status: ('A' for Active; 'I' for Inactive)
REMARK    1  A    between atoms: OAU_1  and  CAS_2 
REMARK    2  A    between atoms: CAO_7  and  CAC_8 
REMARK    3  A    between atoms: CAC_8  and  CAM_9 
REMARK    4  A    between atoms: CAM_9  and  CAN_10 
REMARK    5  A    between atoms: NAA_16  and  CAH_17 
REMARK    6  A    between atoms: CAH_17  and  CAI_18 
REMARK    7  A    between atoms: CAI_18  and  CAJ_19 
REMARK    8  A    between atoms: CAJ_19  and  CAK_20 
REMARK    9  A    between atoms: CAK_20  and  CAL_21 
REMARK   10  A    between atoms: CAL_21  and  CAV_22 
REMARK   11  A    between atoms: CAV_22  and  CAW_23 
REMARK   12  A    between atoms: CAW_23  and  CAX_24 
REMARK   13  A    between atoms: CAX_24  and  CAY_25 
REMARK   14  A    between atoms: CAY_25  and  NAZ_26 
ROOT
ATOM      1  CAC BM4 d   1       3.554  68.313  63.853  0.00  0.00     0.011 C 
ATOM      2  CAB BM4 d   1       2.996  69.034  65.107  0.00  0.00     0.094 C 
ATOM      3  CAD BM4 d   1       4.913  68.923  63.408  0.00  0.00    -0.052 C 
ATOM      4  CAE BM4 d   1       5.928  69.200  64.527  0.00  0.00    -0.062 C 
ATOM      5  CAF BM4 d   1       5.393  70.240  65.520  0.00  0.00    -0.042 C 
ATOM      6  CAG BM4 d   1       4.783  69.570  66.754  0.00  0.00     0.084 C 
ATOM      7  NAA BM4 d   1       3.720  68.637  66.338  0.00  0.00    -0.070 N 
ATOM      8  H11 BM4 d   1       1.932  68.778  65.221  0.00  0.00     0.077 H 
ATOM      9  H12 BM4 d   1       3.099  70.120  64.968  0.00  0.00     0.077 H 
ATOM     10  H13 BM4 d   1       4.704  69.876  62.901  0.00  0.00     0.034 H 
ATOM     11  H14 BM4 d   1       5.378  68.224  62.697  0.00  0.00     0.034 H 
ATOM     12  H15 BM4 d   1       6.860  69.577  64.080  0.00  0.00     0.033 H 
ATOM     13  H16 BM4 d   1       6.133  68.263  65.065  0.00  0.00     0.033 H 
ATOM     14  H17 BM4 d   1       4.621  70.846  65.023  0.00  0.00     0.035 H 
ATOM     15  H18 BM4 d   1       6.221  70.891  65.838  0.00  0.00     0.035 H 
ATOM     16  H19 BM4 d   1       4.356  70.339  67.415  0.00  0.00     0.076 H 
ATOM     17  H20 BM4 d   1       5.565  69.016  67.294  0.00  0.00     0.076 H 
ATOM     18  H21 BM4 d   1       4.209  67.797  66.072  0.00  0.00     0.279 HD
ENDROOT
BRANCH   7  19
ATOM     19  CAH BM4 d   1       2.868  68.223  67.475  0.00  0.00     0.084 C 
ATOM     20  H22 BM4 d   1       2.036  67.603  67.110  0.00  0.00     0.076 H 
ATOM     21  H23 BM4 d   1       2.467  69.112  67.983  0.00  0.00     0.076 H 
BRANCH  19  22
ATOM     22  CAI BM4 d   1       3.743  67.401  68.466  0.00  0.00    -0.042 C 
ATOM     23  H24 BM4 d   1       3.961  68.027  69.344  0.00  0.00     0.035 H 
ATOM     24  H25 BM4 d   1       4.684  67.133  67.964  0.00  0.00     0.035 H 
BRANCH  22  25
ATOM     25  CAJ BM4 d   1       3.057  66.111  68.942  0.00  0.00    -0.064 C 
ATOM     26  H26 BM4 d   1       2.386  65.757  68.145  0.00  0.00     0.033 H 
ATOM     27  H27 BM4 d   1       2.468  66.340  69.842  0.00  0.00     0.033 H 
BRANCH  25  28
ATOM     28  CAK BM4 d   1       4.051  64.985  69.281  0.00  0.00    -0.065 C 
ATOM     29  H28 BM4 d   1       4.571  65.236  70.217  0.00  0.00     0.033 H 
ATOM     30  H29 BM4 d   1       4.785  64.898  68.466  0.00  0.00     0.033 H 
BRANCH  28  31
ATOM     31  CAL BM4 d   1       3.327  63.626  69.455  0.00  0.00    -0.065 C 
ATOM     32  H30 BM4 d   1       4.055  62.817  69.294  0.00  0.00     0.033 H 
ATOM     33  H31 BM4 d   1       2.527  63.555  68.703  0.00  0.00     0.033 H 
BRANCH  31  34
ATOM     34  CAV BM4 d   1       2.707  63.457  70.847  0.00  0.00    -0.065 C 
ATOM     35  H32 BM4 d   1       2.525  64.455  71.273  0.00  0.00     0.033 H 
ATOM     36  H33 BM4 d   1       3.419  62.911  71.484  0.00  0.00     0.033 H 
BRANCH  34  37
ATOM     37  CAW BM4 d   1       1.382  62.686  70.825  0.00  0.00    -0.064 C 
ATOM     38  H34 BM4 d   1       1.367  62.030  69.942  0.00  0.00     0.033 H 
ATOM     39  H35 BM4 d   1       0.552  63.405  70.762  0.00  0.00     0.033 H 
BRANCH  37  40
ATOM     40  CAX BM4 d   1       1.200  61.824  72.092  0.00  0.00    -0.043 C 
ATOM     41  H36 BM4 d   1       1.927  62.151  72.850  0.00  0.00     0.035 H 
ATOM     42  H37 BM4 d   1       1.387  60.771  71.834  0.00  0.00     0.035 H 
BRANCH  40  43
ATOM     43  CAY BM4 d   1      -0.219  61.946  72.680  0.00  0.00     0.080 C 
ATOM     44  H38 BM4 d   1      -0.925  62.181  71.870  0.00  0.00     0.075 H 
ATOM     45  H39 BM4 d   1      -0.232  62.757  73.424  0.00  0.00     0.075 H 
BRANCH  43  46
ATOM     46  NAZ BM4 d   1      -0.634  60.686  73.332  0.00  0.00    -0.079 N 
ATOM     47  H40 BM4 d   1      -1.563  60.792  73.707  0.00  0.00     0.274 HD
ATOM     48  H41 BM4 d   1       0.007  60.467  74.079  0.00  0.00     0.274 HD
ATOM     49  H42 BM4 d   1      -0.628  59.940  72.655  0.00  0.00     0.274 HD
ENDBRANCH  43  46
ENDBRANCH  40  43
ENDBRANCH  37  40
ENDBRANCH  34  37
ENDBRANCH  31  34
ENDBRANCH  28  31
ENDBRANCH  25  28
ENDBRANCH  22  25
ENDBRANCH  19  22
ENDBRANCH   7  19
BRANCH   1  50
ATOM     50  CAO BM4 d   1       3.672  66.768  64.031  0.00  0.00    -0.045 A 
ATOM     51  CAQ BM4 d   1       4.715  66.062  63.430  0.00  0.00    -0.044 A 
ATOM     52  CAS BM4 d   1       4.844  64.679  63.585  0.00  0.00     0.066 A 
ATOM     53  H2  BM4 d   1       5.441  66.598  62.830  0.00  0.00     0.088 H 
ATOM     54  CAT BM4 d   1       3.902  63.967  64.327  0.00  0.00    -0.051 A 
ATOM     55  CAR BM4 d   1       2.834  64.655  64.896  0.00  0.00    -0.080 A 
ATOM     56  H3  BM4 d   1       4.000  62.895  64.459  0.00  0.00     0.087 H 
ATOM     57  CAP BM4 d   1       2.721  66.040  64.750  0.00  0.00    -0.076 A 
ATOM     58  H4  BM4 d   1       2.083  64.111  65.458  0.00  0.00     0.083 H 
ATOM     59  H5  BM4 d   1       1.882  66.558  65.202  0.00  0.00     0.084 H 
BRANCH  52  60
ATOM     60  OAU BM4 d   1       5.897  64.022  63.009  0.00  0.00    -0.361 OA
ATOM     61  H1  BM4 d   1       6.712  64.370  63.352  0.00  0.00     0.217 HD
ENDBRANCH  52  60
ENDBRANCH   1  50
BRANCH   1  62
ATOM     62  CAM BM4 d   1       2.589  68.552  62.690  0.00  0.00    -0.056 C 
ATOM     63  H6  BM4 d   1       2.160  69.561  62.779  0.00  0.00     0.034 H 
ATOM     64  H7  BM4 d   1       1.782  67.806  62.732  0.00  0.00     0.034 H 
BRANCH  62  65
ATOM     65  CAN BM4 d   1       3.322  68.430  61.334  0.00  0.00    -0.075 C 
ATOM     66  H8  BM4 d   1       2.609  68.606  60.515  0.00  0.00     0.027 H 
ATOM     67  H9  BM4 d   1       3.750  67.421  61.238  0.00  0.00     0.027 H 
ATOM     68  H10 BM4 d   1       4.128  69.177  61.285  0.00  0.00     0.027 H 
ENDBRANCH  62  65
ENDBRANCH   1  62
TORSDOF 14
