REMARK  6 active torsions:
REMARK  status: ('A' for Active; 'I' for Inactive)
REMARK    1  A    between atoms: C1_2  and  C3_3 
REMARK       I    between atoms: C1_2  and  N13_9 
REMARK    2  A    between atoms: C6_5  and  N8_6 
REMARK    3  A    between atoms: N13_9  and  C10_10 
REMARK    4  A    between atoms: N13_9  and  C16_17 
REMARK    5  A    between atoms: C10_10  and  C9_11 
REMARK    6  A    between atoms: C16_17  and  C18_18 
ROOT
ATOM      1  O2  OA2 d   1       4.778 -24.328  23.295  0.00  0.00    -0.265 OA
ATOM      2  C1  OA2 d   1       3.831 -23.674  23.742  0.00  0.00     0.279 C 
ATOM      3  N13 OA2 d   1       3.884 -22.326  23.716  0.00  0.00    -0.338 N 
ENDROOT
BRANCH   3   4
ATOM      4  C10 OA2 d   1       4.951 -21.609  23.011  0.00  0.00     0.022 C 
ATOM      5  H4  OA2 d   1       4.504 -20.934  22.266  0.00  0.00     0.071 H 
ATOM      6  H5  OA2 d   1       5.602 -22.335  22.503  0.00  0.00     0.071 H 
BRANCH   4   7
ATOM      7  C9  OA2 d   1       5.777 -20.796  23.992  0.00  0.00    -0.040 A 
ATOM      8  C11 OA2 d   1       5.904 -19.410  23.825  0.00  0.00    -0.075 A 
ATOM      9  C14 OA2 d   1       6.659 -18.664  24.727  0.00  0.00    -0.082 A 
ATOM     10  H6  OA2 d   1       5.414 -18.918  22.993  0.00  0.00     0.084 H 
ATOM     11  C17 OA2 d   1       7.291 -19.295  25.792  0.00  0.00    -0.083 A 
ATOM     12  H7  OA2 d   1       6.754 -17.592  24.598  0.00  0.00     0.083 H 
ATOM     13  C15 OA2 d   1       7.160 -20.672  25.967  0.00  0.00    -0.082 A 
ATOM     14  H8  OA2 d   1       7.887 -18.715  26.488  0.00  0.00     0.083 H 
ATOM     15  C12 OA2 d   1       6.394 -21.426  25.066  0.00  0.00    -0.075 A 
ATOM     16  H9  OA2 d   1       7.651 -21.161  26.801  0.00  0.00     0.083 H 
ATOM     17  H10 OA2 d   1       6.284 -22.495  25.207  0.00  0.00     0.084 H 
ENDBRANCH   4   7
ENDBRANCH   3   4
BRANCH   3  18
ATOM     18  C16 OA2 d   1       2.935 -21.425  24.354  0.00  0.00     0.022 C 
ATOM     19  H11 OA2 d   1       3.490 -20.630  24.873  0.00  0.00     0.071 H 
ATOM     20  H12 OA2 d   1       2.338 -21.992  25.084  0.00  0.00     0.071 H 
BRANCH  18  21
ATOM     21  C18 OA2 d   1       2.007 -20.797  23.344  0.00  0.00    -0.040 A 
ATOM     22  C19 OA2 d   1       1.735 -21.400  22.122  0.00  0.00    -0.075 A 
ATOM     23  C21 OA2 d   1       0.878 -20.784  21.220  0.00  0.00    -0.082 A 
ATOM     24  H13 OA2 d   1       2.192 -22.351  21.873  0.00  0.00     0.084 H 
ATOM     25  C23 OA2 d   1       0.284 -19.565  21.541  0.00  0.00    -0.083 A 
ATOM     26  H14 OA2 d   1       0.671 -21.252  20.265  0.00  0.00     0.083 H 
ATOM     27  C22 OA2 d   1       0.562 -18.961  22.756  0.00  0.00    -0.082 A 
ATOM     28  H15 OA2 d   1      -0.394 -19.090  20.841  0.00  0.00     0.083 H 
ATOM     29  C20 OA2 d   1       1.425 -19.576  23.657  0.00  0.00    -0.075 A 
ATOM     30  H16 OA2 d   1       0.107 -18.009  23.005  0.00  0.00     0.083 H 
ATOM     31  H17 OA2 d   1       1.644 -19.101  24.606  0.00  0.00     0.084 H 
ENDBRANCH  18  21
ENDBRANCH   3  18
BRANCH   2  32
ATOM     32  C3  OA2 d   1       2.692 -24.492  24.302  0.00  0.00     0.164 A 
ATOM     33  O4  OA2 d   1       2.927 -25.828  24.136  0.00  0.00    -0.271 OA
ATOM     34  C6  OA2 d   1       1.828 -26.389  24.694  0.00  0.00     0.244 A 
ATOM     35  N7  OA2 d   1       0.939 -25.524  25.209  0.00  0.00    -0.218 NA
ATOM     36  C5  OA2 d   1       1.470 -24.295  24.965  0.00  0.00     0.045 A 
ATOM     37  H3  OA2 d   1       1.029 -23.336  25.234  0.00  0.00     0.119 H 
BRANCH  34  38
ATOM     38  N8  OA2 d   1       1.681 -27.734  24.732  0.00  0.00    -0.363 N 
ATOM     39  H1  OA2 d   1       0.840 -28.148  25.159  0.00  0.00     0.159 HD
ATOM     40  H2  OA2 d   1       2.410 -28.343  24.334  0.00  0.00     0.159 HD
ENDBRANCH  34  38
ENDBRANCH   2  32
TORSDOF 6
