REMARK  3 active torsions:
REMARK  status: ('A' for Active; 'I' for Inactive)
REMARK    1  A    between atoms: C11_4  and  C38_5 
REMARK    2  A    between atoms: C11_4  and  C40_6 
REMARK    3  A    between atoms: C4_12  and  N10_14 
ROOT
ATOM      1  O8  OA3 d   1      19.453  10.821   0.556  0.00  0.00    -0.292 OA
ATOM      2  C3  OA3 d   1      18.655  10.279  -0.197  0.00  0.00     0.166 C 
ATOM      3  C7  OA3 d   1      17.611   9.332   0.358  0.00  0.00     0.002 C 
ATOM      4  C11 OA3 d   1      17.612   8.066  -0.488  0.00  0.00    -0.036 C 
ATOM      5  C5  OA3 d   1      17.259   8.409  -1.939  0.00  0.00    -0.017 C 
ATOM      6  C2  OA3 d   1      17.997   9.614  -2.514  0.00  0.00     0.054 A 
ATOM      7  N6  OA3 d   1      18.005   9.829  -3.853  0.00  0.00    -0.245 NA
ATOM      8  C12 OA3 d   1      18.638  10.877  -4.404  0.00  0.00     0.089 A 
ATOM      9  N9  OA3 d   1      19.290  11.751  -3.621  0.00  0.00    -0.224 NA
ATOM     10  C4  OA3 d   1      19.314  11.581  -2.275  0.00  0.00     0.138 A 
ATOM     11  C1  OA3 d   1      18.667  10.508  -1.690  0.00  0.00     0.080 A 
ATOM     12  H1  OA3 d   1      16.619   9.806   0.316  0.00  0.00     0.046 H 
ATOM     13  H2  OA3 d   1      17.854   9.082   1.401  0.00  0.00     0.046 H 
ATOM     14  H9  OA3 d   1      16.180   8.615  -1.988  0.00  0.00     0.043 H 
ATOM     15  H10 OA3 d   1      17.495   7.535  -2.563  0.00  0.00     0.043 H 
ATOM     16  H11 OA3 d   1      18.623  11.017  -5.479  0.00  0.00     0.146 H 
ENDROOT
BRANCH   4  17
ATOM     17  C38 OA3 d   1      16.611   7.054   0.059  0.00  0.00    -0.069 C 
ATOM     18  H3  OA3 d   1      16.627   6.148  -0.565  0.00  0.00     0.028 H 
ATOM     19  H4  OA3 d   1      15.602   7.492   0.044  0.00  0.00     0.028 H 
ATOM     20  H5  OA3 d   1      16.882   6.792   1.092  0.00  0.00     0.028 H 
ENDBRANCH   4  17
BRANCH   4  21
ATOM     21  C40 OA3 d   1      18.997   7.423  -0.402  0.00  0.00    -0.069 C 
ATOM     22  H6  OA3 d   1      19.751   8.124  -0.789  0.00  0.00     0.028 H 
ATOM     23  H7  OA3 d   1      19.011   6.501  -1.002  0.00  0.00     0.028 H 
ATOM     24  H8  OA3 d   1      19.225   7.181   0.647  0.00  0.00     0.028 H 
ENDBRANCH   4  21
BRANCH  10  25
ATOM     25  N10 OA3 d   1      19.968  12.467  -1.501  0.00  0.00    -0.383 N 
ATOM     26  H12 OA3 d   1      19.988  12.341  -0.479  0.00  0.00     0.157 HD
ATOM     27  H13 OA3 d   1      20.448  13.271  -1.931  0.00  0.00     0.157 HD
ENDBRANCH  10  25
TORSDOF 3
