REMARK  4 active torsions:
REMARK  status: ('A' for Active; 'I' for Inactive)
REMARK    1  A    between atoms: C3_3  and  N7_7 
REMARK    2  A    between atoms: C5_5  and  N14_12 
REMARK    3  A    between atoms: CAP_18  and  C12_10 
REMARK    4  A    between atoms: C13_11  and  C10_15 
ROOT
ATOM      1  C1  OA4 d   1       3.898 -24.758  24.463  0.00  0.00     0.090 A 
ATOM      2  C2  OA4 d   1       3.160 -23.848  25.240  0.00  0.00     0.046 A 
ATOM      3  C3  OA4 d   1       1.913 -24.321  25.736  0.00  0.00     0.153 A 
ATOM      4  N4  OA4 d   1       1.513 -25.585  25.471  0.00  0.00    -0.045 NA
ATOM      5  C5  OA4 d   1       2.270 -26.418  24.728  0.00  0.00     0.722 A 
ATOM      6  N6  OA4 d   1       3.448 -26.007  24.223  0.00  0.00    -0.062 NA
ATOM      7  C8  OA4 d   1       5.127 -24.425  23.915  0.00  0.00    -0.053 A 
ATOM      8  C9  OA4 d   1       5.650 -23.165  24.124  0.00  0.00    -0.069 A 
ATOM      9  C12 OA4 d   1       4.951 -22.226  24.882  0.00  0.00    -0.019 A 
ATOM     10  C13 OA4 d   1       3.708 -22.553  25.454  0.00  0.00    -0.035 A 
ATOM     11  H3  OA4 d   1       5.675 -25.151  23.325  0.00  0.00     0.087 H 
ATOM     12  H4  OA4 d   1       6.611 -22.903  23.696  0.00  0.00     0.085 H 
ENDROOT
BRANCH   9  13
ATOM     13  CAP OA4 d   1       5.639 -20.910  25.051  0.00  0.00    -0.025 A 
ATOM     14  C23 OA4 d   1       5.051 -19.694  24.707  0.00  0.00    -0.072 A 
ATOM     15  C22 OA4 d   1       5.763 -18.507  24.882  0.00  0.00    -0.082 A 
ATOM     16  H13 OA4 d   1       4.045 -19.671  24.305  0.00  0.00     0.084 H 
ATOM     17  C27 OA4 d   1       7.059 -18.532  25.387  0.00  0.00    -0.083 A 
ATOM     18  H12 OA4 d   1       5.304 -17.560  24.623  0.00  0.00     0.083 H 
ATOM     19  C26 OA4 d   1       7.654 -19.741  25.726  0.00  0.00    -0.082 A 
ATOM     20  H8  OA4 d   1       7.606 -17.605  25.516  0.00  0.00     0.083 H 
ATOM     21  C25 OA4 d   1       6.944 -20.927  25.553  0.00  0.00    -0.072 A 
ATOM     22  H7  OA4 d   1       8.663 -19.761  26.122  0.00  0.00     0.083 H 
ATOM     23  H14 OA4 d   1       7.408 -21.872  25.810  0.00  0.00     0.084 H 
ENDBRANCH   9  13
BRANCH  10  24
ATOM     24  C10 OA4 d   1       2.991 -21.509  26.279  0.00  0.00    -0.049 C 
ATOM     25  H9  OA4 d   1       2.042 -21.923  26.650  0.00  0.00     0.033 H 
ATOM     26  H10 OA4 d   1       2.787 -20.626  25.656  0.00  0.00     0.033 H 
ATOM     27  H11 OA4 d   1       3.622 -21.218  27.132  0.00  0.00     0.033 H 
ENDBRANCH  10  24
BRANCH   3  28
ATOM     28  N7  OA4 d   1       1.021 -23.641  26.496  0.00  0.00    -0.383 N 
ATOM     29  H1  OA4 d   1       0.146 -24.096  26.795  0.00  0.00     0.157 HD
ATOM     30  H2  OA4 d   1       1.217 -22.669  26.775  0.00  0.00     0.157 HD
ENDBRANCH   3  28
BRANCH   5  31
ATOM     31  N14 OA4 d   1       1.839 -27.670  24.478  0.00  0.00    -0.231 N 
ATOM     32  H5  OA4 d   1       0.939 -27.991  24.861  0.00  0.00     0.174 HD
ATOM     33  H6  OA4 d   1       2.410 -28.306  23.904  0.00  0.00     0.174 HD
ENDBRANCH   5  31
TORSDOF 4
