REMARK WARNING: 32 MAX_TORS EXCEEDED!!!
REMARK  36 active torsions:
REMARK  status: ('A' for Active; 'I' for Inactive)
REMARK    1  A    between atoms: N_1  and  CA_2 
REMARK    2  A    between atoms: CA_2  and  C_3 
REMARK    3  A    between atoms: CA_2  and  CB_5 
REMARK       I    between atoms: C_3  and  N_7 
REMARK    4  A    between atoms: CB_5  and  OG_6 
REMARK    5  A    between atoms: N_7  and  CA_8 
REMARK    6  A    between atoms: CA_8  and  C_9 
REMARK    7  A    between atoms: CA_8  and  CB_11 
REMARK       I    between atoms: C_9  and  N_16 
REMARK    8  A    between atoms: CB_11  and  CG_12 
REMARK    9  A    between atoms: CG_12  and  CD_13 
REMARK   10  A    between atoms: CD_13  and  CE_14 
REMARK   11  A    between atoms: CE_14  and  NZ_15 
REMARK   12  A    between atoms: N_16  and  CA_17 
REMARK   13  A    between atoms: CA_17  and  C_18 
REMARK       I    between atoms: C_18  and  N_20 
REMARK   14  A    between atoms: N_20  and  CA_21 
REMARK   15  A    between atoms: CA_21  and  CB_22 
REMARK   16  A    between atoms: CA_21  and  C_29 
REMARK   17  A    between atoms: CB_22  and  CG_23 
REMARK   18  A    between atoms: CG_23  and  CD_24 
REMARK   19  A    between atoms: CD_24  and  NE_25 
REMARK       I    between atoms: NE_25  and  CZ_27 
REMARK       I    between atoms: C_29  and  N_31 
REMARK   20  A    between atoms: N_31  and  CA_32 
REMARK   21  A    between atoms: CA_32  and  C_33 
REMARK   22  A    between atoms: CA_32  and  CB_35 
REMARK       I    between atoms: C_33  and  N_37 
REMARK   23  A    between atoms: CB_35  and  OG_36 
REMARK   24  A    between atoms: N_37  and  CA_38 
REMARK   25  A    between atoms: CA_38  and  C_39 
REMARK   26  A    between atoms: CA_38  and  CB_41 
REMARK       I    between atoms: C_39  and  N_43 
REMARK   27  A    between atoms: CB_41  and  OG_42 
REMARK   28  A    between atoms: N_43  and  CA_44 
REMARK   29  A    between atoms: CA_44  and  C_45 
REMARK       I    between atoms: C_45  and  N_47 
REMARK   30  A    between atoms: N_47  and  CA_48 
REMARK   31  A    between atoms: CA_56  and  CB_57 
REMARK   32  A    between atoms: CB_57  and  CG_58 
REMARK   33  A    between atoms: CG_58  and  CD_59 
REMARK   34  A    between atoms: CD_59  and  NE_60 
REMARK       I    between atoms: NE_60  and  CZ_62 
REMARK   35  A    between atoms: CA_67  and  CB_70 
REMARK   36  A    between atoms: CB_70  and  OG_71 
ROOT
ATOM      1  CA  NON d   1     -65.508 -44.518  19.296  0.00  0.00     0.109 C 
ATOM      2  H34 NON d   1     -65.413 -45.493  18.796  0.00  0.00     0.090 H 
ENDROOT
BRANCH   1   3
ATOM      3  N   NON d   1     -65.554 -43.523  18.189  0.00  0.00    -0.344 N 
ATOM      4  C   NON d   1     -65.853 -42.250  18.394  0.00  0.00     0.241 C 
ATOM      5  O   NON d   1     -66.156 -41.832  19.486  0.00  0.00    -0.271 OA
ATOM      6  H33 NON d   1     -65.352 -43.827  17.258  0.00  0.00     0.163 HD
BRANCH   4   7
ATOM      7  CA  NON d   1     -65.791 -41.319  17.227  0.00  0.00     0.089 C 
ATOM      8  H25 NON d   1     -65.306 -41.825  16.379  0.00  0.00     0.087 H 
BRANCH   7   9
ATOM      9  N   NON d   1     -67.060 -40.747  16.775  0.00  0.00    -0.346 N 
ATOM     10  C   NON d   1     -67.983 -41.419  16.078  0.00  0.00     0.236 C 
ATOM     11  O   NON d   1     -67.922 -42.639  15.855  0.00  0.00    -0.272 OA
ATOM     12  H24 NON d   1     -67.249 -39.792  17.002  0.00  0.00     0.163 HD
BRANCH  10  13
ATOM     13  CA  NON d   1     -69.160 -40.602  15.568  0.00  0.00     0.069 C 
ATOM     14  H22 NON d   1     -69.131 -40.596  14.468  0.00  0.00     0.078 H 
ATOM     15  H23 NON d   1     -70.091 -41.080  15.907  0.00  0.00     0.078 H 
BRANCH  13  16
ATOM     16  N   NON d   1     -69.149 -39.220  16.041  0.00  0.00    -0.351 N 
ATOM     17  C   NON d   1     -68.480 -38.229  15.443  0.00  0.00     0.240 C 
ATOM     18  O   NON d   1     -67.825 -38.369  14.402  0.00  0.00    -0.271 OA
ATOM     19  H21 NON d   1     -69.675 -39.002  16.863  0.00  0.00     0.163 HD
BRANCH  17  20
ATOM     20  CA  NON d   1     -68.613 -36.852  16.084  0.00  0.00     0.089 C 
ATOM     21  H9  NON d   1     -68.973 -36.183  15.289  0.00  0.00     0.087 H 
BRANCH  20  22
ATOM     22  N   NON d   1     -69.595 -36.795  17.144  0.00  0.00    -0.346 N 
ATOM     23  C   NON d   1     -70.773 -36.226  16.911  0.00  0.00     0.251 C 
ATOM     24  O   NON d   1     -71.072 -35.694  15.827  0.00  0.00    -0.271 OA
ATOM     25  H8  NON d   1     -69.389 -37.180  18.044  0.00  0.00     0.163 HD
BRANCH  23  26
ATOM     26  CA  NON d   1     -71.767 -36.247  18.079  0.00  0.00     0.195 C 
ATOM     27  H4  NON d   1     -72.564 -35.529  17.834  0.00  0.00     0.102 H 
BRANCH  26  28
ATOM     28  N   NON d   1     -71.144 -35.788  19.375  0.00  0.00    -0.064 N 
ATOM     29  H1  NON d   1     -71.834 -35.819  20.109  0.00  0.00     0.275 HD
ATOM     30  H2  NON d   1     -70.808 -34.844  19.270  0.00  0.00     0.275 HD
ATOM     31  H3  NON d   1     -70.374 -36.395  19.611  0.00  0.00     0.275 HD
ENDBRANCH  26  28
BRANCH  26  32
ATOM     32  CB  NON d   1     -72.430 -37.622  18.234  0.00  0.00     0.051 C 
ATOM     33  H5  NON d   1     -73.333 -37.653  17.607  0.00  0.00     0.077 H 
ATOM     34  H6  NON d   1     -72.711 -37.764  19.288  0.00  0.00     0.077 H 
BRANCH  32  35
ATOM     35  OG  NON d   1     -71.571 -38.673  17.847  0.00  0.00    -0.398 OA
ATOM     36  H7  NON d   1     -72.019 -39.504  17.958  0.00  0.00     0.209 HD
ENDBRANCH  32  35
ENDBRANCH  26  32
ENDBRANCH  23  26
ENDBRANCH  20  22
BRANCH  20  37
ATOM     37  CB  NON d   1     -67.275 -36.280  16.564  0.00  0.00    -0.038 C 
ATOM     38  H10 NON d   1     -66.543 -36.385  15.750  0.00  0.00     0.036 H 
ATOM     39  H11 NON d   1     -66.942 -36.865  17.434  0.00  0.00     0.036 H 
BRANCH  37  40
ATOM     40  CG  NON d   1     -67.333 -34.765  16.982  0.00  0.00    -0.061 C 
ATOM     41  H12 NON d   1     -66.307 -34.437  17.206  0.00  0.00     0.033 H 
ATOM     42  H13 NON d   1     -67.949 -34.688  17.890  0.00  0.00     0.033 H 
BRANCH  40  43
ATOM     43  CD  NON d   1     -67.918 -33.805  15.930  0.00  0.00    -0.043 C 
ATOM     44  H14 NON d   1     -68.751 -34.304  15.413  0.00  0.00     0.035 H 
ATOM     45  H15 NON d   1     -67.134 -33.551  15.201  0.00  0.00     0.035 H 
BRANCH  43  46
ATOM     46  CE  NON d   1     -68.432 -32.519  16.578  0.00  0.00     0.080 C 
ATOM     47  H16 NON d   1     -67.605 -32.062  17.141  0.00  0.00     0.075 H 
ATOM     48  H17 NON d   1     -69.245 -32.782  17.270  0.00  0.00     0.075 H 
BRANCH  46  49
ATOM     49  NZ  NON d   1     -68.959 -31.496  15.593  0.00  0.00    -0.079 N 
ATOM     50  H18 NON d   1     -69.278 -30.681  16.093  0.00  0.00     0.274 HD
ATOM     51  H19 NON d   1     -69.727 -31.893  15.074  0.00  0.00     0.274 HD
ATOM     52  H20 NON d   1     -68.224 -31.233  14.956  0.00  0.00     0.274 HD
ENDBRANCH  46  49
ENDBRANCH  43  46
ENDBRANCH  40  43
ENDBRANCH  37  40
ENDBRANCH  20  37
ENDBRANCH  17  20
ENDBRANCH  13  16
ENDBRANCH  10  13
ENDBRANCH   7   9
BRANCH   7  53
ATOM     53  CB  NON d   1     -64.954 -40.168  17.742  0.00  0.00    -0.036 C 
ATOM     54  H26 NON d   1     -64.933 -40.183  18.842  0.00  0.00     0.036 H 
ATOM     55  H27 NON d   1     -65.377 -39.214  17.396  0.00  0.00     0.036 H 
BRANCH  53  56
ATOM     56  CG  NON d   1     -63.554 -40.335  17.200  0.00  0.00    -0.045 C 
ATOM     57  H28 NON d   1     -63.484 -39.734  16.281  0.00  0.00     0.035 H 
ATOM     58  H29 NON d   1     -63.422 -41.399  16.954  0.00  0.00     0.035 H 
BRANCH  56  59
ATOM     59  CD  NON d   1     -62.403 -39.933  18.089  0.00  0.00     0.026 C 
ATOM     60  H30 NON d   1     -61.531 -39.757  17.442  0.00  0.00     0.068 H 
ATOM     61  H31 NON d   1     -62.195 -40.777  18.763  0.00  0.00     0.068 H 
BRANCH  59  62
ATOM     62  NE  NON d   1     -62.584 -38.729  18.928  0.00  0.00    -0.200 N 
ATOM     63  OZ  NON d   1     -63.632 -38.056  19.096  0.00  0.00    -0.084 OA
ATOM     64  CZ  NON d   1     -61.513 -38.425  19.544  0.00  0.00     0.195 C 
ATOM     65  OH  NON d   1     -61.467 -37.481  20.302  0.00  0.00    -0.281 OA
ATOM     66  H32 NON d   1     -60.619 -39.026  19.387  0.00  0.00     0.183 H 
ENDBRANCH  59  62
ENDBRANCH  56  59
ENDBRANCH  53  56
ENDBRANCH   7  53
ENDBRANCH   4   7
ENDBRANCH   1   3
BRANCH   1  67
ATOM     67  C   NON d   1     -66.747 -44.647  20.185  0.00  0.00     0.243 C 
ATOM     68  O   NON d   1     -67.848 -44.817  19.664  0.00  0.00    -0.271 OA
ATOM     69  N   NON d   1     -66.519 -44.585  21.519  0.00  0.00    -0.344 N 
ATOM     70  H38 NON d   1     -65.564 -44.542  21.814  0.00  0.00     0.163 HD
BRANCH  69  71
ATOM     71  CA  NON d   1     -67.563 -44.574  22.596  0.00  0.00     0.109 C 
ATOM     72  H39 NON d   1     -67.060 -44.085  23.443  0.00  0.00     0.090 H 
BRANCH  71  73
ATOM     73  C   NON d   1     -68.832 -43.723  22.372  0.00  0.00     0.242 C 
ATOM     74  O   NON d   1     -69.957 -44.222  22.311  0.00  0.00    -0.271 OA
ATOM     75  N   NON d   1     -68.608 -42.417  22.199  0.00  0.00    -0.350 N 
ATOM     76  H43 NON d   1     -67.718 -42.136  21.839  0.00  0.00     0.163 HD
BRANCH  75  77
ATOM     77  CA  NON d   1     -69.594 -41.366  22.507  0.00  0.00     0.069 C 
ATOM     78  H44 NON d   1     -70.597 -41.698  22.201  0.00  0.00     0.078 H 
ATOM     79  H45 NON d   1     -69.333 -40.443  21.968  0.00  0.00     0.078 H 
BRANCH  77  80
ATOM     80  C   NON d   1     -69.575 -41.103  24.027  0.00  0.00     0.236 C 
ATOM     81  O   NON d   1     -69.985 -40.032  24.468  0.00  0.00    -0.272 OA
ATOM     82  N   NON d   1     -69.093 -42.061  24.827  0.00  0.00    -0.346 N 
ATOM     83  H46 NON d   1     -68.666 -42.870  24.424  0.00  0.00     0.163 HD
BRANCH  82  84
ATOM     84  CA  NON d   1     -69.181 -41.943  26.272  0.00  0.00     0.089 C 
ATOM     85  CB  NON d   1     -69.492 -43.292  26.910  0.00  0.00    -0.036 C 
ATOM     86  CG  NON d   1     -69.932 -43.143  28.368  0.00  0.00    -0.048 C 
ATOM     87  H48 NON d   1     -68.590 -43.920  26.873  0.00  0.00     0.036 H 
ATOM     88  H49 NON d   1     -70.300 -43.777  26.342  0.00  0.00     0.036 H 
ATOM     89  CD  NON d   1     -69.230 -44.056  29.378  0.00  0.00    -0.005 C 
ATOM     90  H50 NON d   1     -71.011 -43.353  28.417  0.00  0.00     0.035 H 
ATOM     91  H51 NON d   1     -69.747 -42.102  28.671  0.00  0.00     0.035 H 
ATOM     92  NE  NON d   1     -67.782 -44.105  29.202  0.00  0.00    -0.359 N 
ATOM     93  H52 NON d   1     -69.630 -45.074  29.265  0.00  0.00     0.064 H 
ATOM     94  H53 NON d   1     -69.446 -43.687  30.392  0.00  0.00     0.064 H 
ATOM     95  C   NON d   1     -66.992 -43.937  30.175  0.00  0.00     0.242 C 
ATOM     96  H54 NON d   1     -67.406 -44.275  28.291  0.00  0.00     0.162 HD
ATOM     97  CA  NON d   1     -65.533 -43.604  29.832  0.00  0.00     0.109 C 
ATOM     98  O   NON d   1     -67.494 -43.477  31.192  0.00  0.00    -0.271 OA
ATOM     99  N   NON d   1     -65.449 -42.288  29.199  0.00  0.00    -0.344 N 
ATOM    100  H65 NON d   1     -65.174 -44.350  29.108  0.00  0.00     0.090 H 
ATOM    101  C   NON d   1     -65.223 -42.243  27.890  0.00  0.00     0.241 C 
ATOM    102  H64 NON d   1     -65.558 -41.450  29.733  0.00  0.00     0.163 HD
ATOM    103  CA  NON d   1     -65.575 -41.013  27.136  0.00  0.00     0.089 C 
ATOM    104  O   NON d   1     -64.765 -43.192  27.273  0.00  0.00    -0.271 OA
ATOM    105  N   NON d   1     -66.773 -41.477  26.423  0.00  0.00    -0.346 N 
ATOM    106  H56 NON d   1     -65.828 -40.187  27.817  0.00  0.00     0.087 H 
ATOM    107  C   NON d   1     -67.967 -41.336  26.977  0.00  0.00     0.241 C 
ATOM    108  H55 NON d   1     -66.686 -41.899  25.520  0.00  0.00     0.163 HD
ATOM    109  O   NON d   1     -68.107 -40.743  28.034  0.00  0.00    -0.271 OA
ATOM    110  H47 NON d   1     -70.030 -41.273  26.474  0.00  0.00     0.087 H 
BRANCH  97 111
ATOM    111  CB  NON d   1     -64.652 -43.694  31.062  0.00  0.00     0.044 C 
ATOM    112  H66 NON d   1     -63.618 -43.439  30.785  0.00  0.00     0.077 H 
ATOM    113  H67 NON d   1     -64.684 -44.721  31.454  0.00  0.00     0.077 H 
BRANCH 111 114
ATOM    114  OG  NON d   1     -65.095 -42.807  32.057  0.00  0.00    -0.398 OA
ATOM    115  H68 NON d   1     -65.987 -43.026  32.301  0.00  0.00     0.209 HD
ENDBRANCH 111 114
ENDBRANCH  97 111
BRANCH 103 116
ATOM    116  CB  NON d   1     -64.417 -40.555  26.230  0.00  0.00    -0.036 C 
ATOM    117  H57 NON d   1     -63.998 -41.452  25.750  0.00  0.00     0.036 H 
ATOM    118  H58 NON d   1     -63.654 -40.094  26.875  0.00  0.00     0.036 H 
BRANCH 116 119
ATOM    119  CG  NON d   1     -64.750 -39.554  25.124  0.00  0.00    -0.045 C 
ATOM    120  H59 NON d   1     -65.017 -38.584  25.568  0.00  0.00     0.035 H 
ATOM    121  H60 NON d   1     -65.593 -39.928  24.525  0.00  0.00     0.035 H 
BRANCH 119 122
ATOM    122  CD  NON d   1     -63.517 -39.394  24.237  0.00  0.00     0.026 C 
ATOM    123  H61 NON d   1     -63.375 -40.335  23.685  0.00  0.00     0.068 H 
ATOM    124  H62 NON d   1     -62.651 -39.219  24.893  0.00  0.00     0.068 H 
BRANCH 122 125
ATOM    125  NE  NON d   1     -63.565 -38.300  23.255  0.00  0.00    -0.200 N 
ATOM    126  OZ  NON d   1     -64.262 -38.424  22.245  0.00  0.00    -0.084 OA
ATOM    127  CZ  NON d   1     -62.848 -37.263  23.431  0.00  0.00     0.195 C 
ATOM    128  OH  NON d   1     -62.866 -36.372  22.597  0.00  0.00    -0.281 OA
ATOM    129  H63 NON d   1     -62.224 -37.172  24.319  0.00  0.00     0.183 H 
ENDBRANCH 122 125
ENDBRANCH 119 122
ENDBRANCH 116 119
ENDBRANCH 103 116
ENDBRANCH  82  84
ENDBRANCH  77  80
ENDBRANCH  75  77
ENDBRANCH  71  73
BRANCH  71 130
ATOM    130  CB  NON d   1     -67.910 -45.959  23.092  0.00  0.00     0.044 C 
ATOM    131  H40 NON d   1     -67.601 -46.705  22.345  0.00  0.00     0.077 H 
ATOM    132  H41 NON d   1     -68.996 -46.030  23.254  0.00  0.00     0.077 H 
BRANCH 130 133
ATOM    133  OG  NON d   1     -67.233 -46.202  24.312  0.00  0.00    -0.398 OA
ATOM    134  H42 NON d   1     -67.450 -47.072  24.625  0.00  0.00     0.209 HD
ENDBRANCH 130 133
ENDBRANCH  71 130
ENDBRANCH  69  71
ENDBRANCH   1  67
BRANCH   1 135
ATOM    135  CB  NON d   1     -64.254 -44.348  20.142  0.00  0.00     0.044 C 
ATOM    136  H35 NON d   1     -64.451 -44.705  21.164  0.00  0.00     0.077 H 
ATOM    137  H36 NON d   1     -63.974 -43.285  20.173  0.00  0.00     0.077 H 
BRANCH 135 138
ATOM    138  OG  NON d   1     -63.195 -45.097  19.577  0.00  0.00    -0.398 OA
ATOM    139  H37 NON d   1     -62.414 -44.989  20.107  0.00  0.00     0.209 HD
ENDBRANCH 135 138
ENDBRANCH   1 135
TORSDOF 36
