REMARK  24 active torsions:
REMARK  status: ('A' for Active; 'I' for Inactive)
REMARK    1  A    between atoms: CA_2  and  N_1 
REMARK    2  A    between atoms: C_3  and  CA_2 
REMARK    3  A    between atoms: CA_2  and  CB_5 
REMARK       I    between atoms: N_7  and  C_3 
REMARK    4  A    between atoms: CB_5  and  OG_6 
REMARK    5  A    between atoms: CA_8  and  N_7 
REMARK    6  A    between atoms: C_9  and  CA_8 
REMARK    7  A    between atoms: CA_8  and  CB_11 
REMARK       I    between atoms: N1_19  and  C_9 
REMARK    8  A    between atoms: C1_12  and  C2_13 
REMARK       I    between atoms: N_24  and  C1_12 
REMARK    9  A    between atoms: C2_13  and  C3_14 
REMARK   10  A    between atoms: C2_13  and  N1_19 
REMARK   11  A    between atoms: C3_14  and  C4_15 
REMARK   12  A    between atoms: C4_15  and  C5_16 
REMARK   13  A    between atoms: C5_16  and  N2_20 
REMARK   14  A    between atoms: C6_17  and  C7_18 
REMARK       I    between atoms: N2_20  and  C6_17 
REMARK   15  A    between atoms: CA_25  and  N_24 
REMARK   16  A    between atoms: CA_33  and  CB_36 
REMARK   17  A    between atoms: CB_36  and  CG_37 
REMARK   18  A    between atoms: C3_42  and  C2_41 
REMARK   19  A    between atoms: C4_43  and  C3_42 
REMARK   20  A    between atoms: C5_44  and  C4_43 
REMARK   21  A    between atoms: N2_48  and  C5_44 
REMARK   22  A    between atoms: C6_45  and  C7_46 
REMARK       I    between atoms: C6_45  and  N2_48 
REMARK   23  A    between atoms: CA_53  and  CB_56 
REMARK   24  A    between atoms: CB_56  and  OG_57 
ROOT
ATOM      1  CA  NON d   1     -65.891 -45.894  20.673  0.00  0.00     0.089 C 
ATOM      2  CB  NON d   1     -64.576 -46.613  21.067  0.00  0.00    -0.036 C 
ATOM      3  CG  NON d   1     -64.777 -47.943  21.820  0.00  0.00    -0.048 C 
ATOM      4  CD  NON d   1     -63.682 -48.352  22.846  0.00  0.00    -0.005 C 
ATOM      5  NE  NON d   1     -63.961 -47.914  24.234  0.00  0.00    -0.359 N 
ATOM      6  C   NON d   1     -66.613 -45.452  21.936  0.00  0.00     0.241 C 
ATOM      7  O   NON d   1     -67.278 -44.396  21.943  0.00  0.00    -0.271 OA
ATOM      8  N   NON d   1     -66.487 -46.249  22.995  0.00  0.00    -0.346 N 
ATOM      9  CA  NON d   1     -67.080 -45.893  24.292  0.00  0.00     0.098 C 
ATOM     10  C   NON d   1     -66.715 -44.483  24.789  0.00  0.00     0.241 C 
ATOM     11  O   NON d   1     -67.553 -43.700  25.267  0.00  0.00    -0.271 OA
ATOM     12  C1  NON d   1     -64.571 -44.877  26.498  0.00  0.00     0.241 C 
ATOM     13  C2  NON d   1     -64.492 -43.680  25.553  0.00  0.00     0.089 C 
ATOM     14  N1  NON d   1     -65.437 -44.172  24.531  0.00  0.00    -0.346 N 
ATOM     15  O1  NON d   1     -64.845 -44.760  27.702  0.00  0.00    -0.271 OA
ATOM     16  N   NON d   1     -64.309 -46.044  25.884  0.00  0.00    -0.344 N 
ATOM     17  CA  NON d   1     -64.784 -47.394  26.286  0.00  0.00     0.109 C 
ATOM     18  C   NON d   1     -64.928 -48.286  25.005  0.00  0.00     0.242 C 
ATOM     19  O   NON d   1     -66.049 -48.562  24.535  0.00  0.00    -0.271 OA
ATOM     20  H25 NON d   1     -66.520 -46.614  20.128  0.00  0.00     0.087 H 
ATOM     21  H26 NON d   1     -63.995 -45.938  21.712  0.00  0.00     0.036 H 
ATOM     22  H27 NON d   1     -64.009 -46.821  20.148  0.00  0.00     0.036 H 
ATOM     23  H28 NON d   1     -64.841 -48.743  21.068  0.00  0.00     0.035 H 
ATOM     24  H29 NON d   1     -65.731 -47.874  22.364  0.00  0.00     0.035 H 
ATOM     25  H30 NON d   1     -62.727 -47.907  22.529  0.00  0.00     0.064 H 
ATOM     26  H31 NON d   1     -63.595 -49.449  22.840  0.00  0.00     0.064 H 
ATOM     27  H32 NON d   1     -63.322 -47.249  24.621  0.00  0.00     0.162 HD
ATOM     28  H33 NON d   1     -65.979 -47.106  22.906  0.00  0.00     0.163 HD
ATOM     29  H34 NON d   1     -66.539 -46.544  24.995  0.00  0.00     0.088 H 
ATOM     30  H37 NON d   1     -63.484 -43.664  25.113  0.00  0.00     0.087 H 
ATOM     31  H47 NON d   1     -65.105 -44.279  23.594  0.00  0.00     0.163 HD
ATOM     32  H48 NON d   1     -63.732 -45.999  25.069  0.00  0.00     0.163 HD
ATOM     33  H49 NON d   1     -64.022 -47.849  26.935  0.00  0.00     0.090 H 
ENDROOT
BRANCH   1  34
ATOM     34  N   NON d   1     -65.707 -44.687  19.807  0.00  0.00    -0.346 N 
ATOM     35  C1  NON d   1     -65.030 -43.614  20.241  0.00  0.00     0.241 C 
ATOM     36  O1  NON d   1     -64.221 -43.667  21.195  0.00  0.00    -0.271 OA
ATOM     37  H24 NON d   1     -66.097 -44.681  18.886  0.00  0.00     0.163 HD
BRANCH  35  38
ATOM     38  C2  NON d   1     -65.261 -42.298  19.503  0.00  0.00     0.089 C 
ATOM     39  H13 NON d   1     -65.379 -42.537  18.436  0.00  0.00     0.087 H 
BRANCH  38  40
ATOM     40  C3  NON d   1     -63.955 -41.474  19.650  0.00  0.00    -0.036 C 
ATOM     41  H14 NON d   1     -63.125 -42.168  19.847  0.00  0.00     0.036 H 
ATOM     42  H15 NON d   1     -64.069 -40.788  20.502  0.00  0.00     0.036 H 
BRANCH  40  43
ATOM     43  C4  NON d   1     -63.616 -40.655  18.412  0.00  0.00    -0.045 C 
ATOM     44  H16 NON d   1     -64.495 -40.045  18.155  0.00  0.00     0.035 H 
ATOM     45  H17 NON d   1     -63.401 -41.353  17.590  0.00  0.00     0.035 H 
BRANCH  43  46
ATOM     46  C5  NON d   1     -62.417 -39.718  18.565  0.00  0.00     0.027 C 
ATOM     47  H18 NON d   1     -62.279 -39.168  17.622  0.00  0.00     0.068 H 
ATOM     48  H19 NON d   1     -61.522 -40.324  18.771  0.00  0.00     0.068 H 
BRANCH  46  49
ATOM     49  N2  NON d   1     -62.586 -38.746  19.654  0.00  0.00    -0.193 N 
ATOM     50  C6  NON d   1     -61.530 -38.377  20.395  0.00  0.00     0.241 C 
ATOM     51  O3  NON d   1     -61.533 -37.574  21.316  0.00  0.00    -0.272 OA
ATOM     52  O2  NON d   1     -63.689 -38.243  19.869  0.00  0.00    -0.083 OA
BRANCH  50  53
ATOM     53  C7  NON d   1     -60.232 -39.038  20.013  0.00  0.00    -0.001 C 
ATOM     54  H20 NON d   1     -59.428 -38.676  20.671  0.00  0.00     0.040 H 
ATOM     55  H21 NON d   1     -59.989 -38.793  18.969  0.00  0.00     0.040 H 
ATOM     56  H22 NON d   1     -60.330 -40.128  20.120  0.00  0.00     0.040 H 
ENDBRANCH  50  53
ENDBRANCH  46  49
ENDBRANCH  43  46
ENDBRANCH  40  43
ENDBRANCH  38  40
BRANCH  38  57
ATOM     57  N1  NON d   1     -66.526 -41.561  19.902  0.00  0.00    -0.346 N 
ATOM     58  C   NON d   1     -66.705 -41.106  21.151  0.00  0.00     0.240 C 
ATOM     59  O   NON d   1     -65.823 -41.244  22.002  0.00  0.00    -0.271 OA
ATOM     60  H23 NON d   1     -67.241 -41.411  19.219  0.00  0.00     0.163 HD
BRANCH  58  61
ATOM     61  CA  NON d   1     -68.028 -40.370  21.583  0.00  0.00     0.086 C 
ATOM     62  H9  NON d   1     -67.635 -39.432  22.002  0.00  0.00     0.086 H 
BRANCH  61  63
ATOM     63  N   NON d   1     -69.070 -39.879  20.666  0.00  0.00    -0.346 N 
ATOM     64  C   NON d   1     -68.847 -38.882  19.810  0.00  0.00     0.251 C 
ATOM     65  O   NON d   1     -67.749 -38.688  19.272  0.00  0.00    -0.271 OA
ATOM     66  H8  NON d   1     -69.974 -40.307  20.686  0.00  0.00     0.163 HD
BRANCH  64  67
ATOM     67  CA  NON d   1     -70.021 -37.977  19.454  0.00  0.00     0.195 C 
ATOM     68  H4  NON d   1     -70.105 -37.900  18.360  0.00  0.00     0.102 H 
BRANCH  67  69
ATOM     69  N   NON d   1     -69.648 -36.659  20.039  0.00  0.00    -0.064 N 
ATOM     70  H1  NON d   1     -70.377 -35.989  19.850  0.00  0.00     0.275 HD
ATOM     71  H2  NON d   1     -68.784 -36.341  19.628  0.00  0.00     0.275 HD
ATOM     72  H3  NON d   1     -69.530 -36.755  21.035  0.00  0.00     0.275 HD
ENDBRANCH  67  69
BRANCH  67  73
ATOM     73  CB  NON d   1     -71.386 -38.444  20.013  0.00  0.00     0.051 C 
ATOM     74  H5  NON d   1     -72.139 -38.345  19.218  0.00  0.00     0.077 H 
ATOM     75  H6  NON d   1     -71.657 -37.793  20.857  0.00  0.00     0.077 H 
BRANCH  73  76
ATOM     76  OG  NON d   1     -71.386 -39.786  20.465  0.00  0.00    -0.398 OA
ATOM     77  H7  NON d   1     -72.249 -40.008  20.794  0.00  0.00     0.209 HD
ENDBRANCH  73  76
ENDBRANCH  67  73
ENDBRANCH  64  67
ENDBRANCH  61  63
BRANCH  61  78
ATOM     78  CB  NON d   1     -68.686 -41.087  22.772  0.00  0.00    -0.049 C 
ATOM     79  H10 NON d   1     -67.906 -41.453  23.456  0.00  0.00     0.030 H 
ATOM     80  H11 NON d   1     -69.280 -41.937  22.405  0.00  0.00     0.030 H 
ATOM     81  H12 NON d   1     -69.342 -40.384  23.306  0.00  0.00     0.030 H 
ENDBRANCH  61  78
ENDBRANCH  58  61
ENDBRANCH  38  57
ENDBRANCH  35  38
ENDBRANCH   1  34
BRANCH   9  82
ATOM     82  CB  NON d   1     -68.571 -46.339  24.497  0.00  0.00     0.043 C 
ATOM     83  H35 NON d   1     -68.880 -46.061  25.515  0.00  0.00     0.052 H 
ATOM     84  H36 NON d   1     -68.626 -47.431  24.382  0.00  0.00     0.052 H 
BRANCH  82  85
ATOM     85  CG  NON d   1     -69.544 -45.697  23.503  0.00  0.00     0.175 C 
ATOM     86  OD1 NON d   1     -69.559 -44.441  23.479  0.00  0.00    -0.648 OA
ATOM     87  OD2 NON d   1     -70.291 -46.431  22.782  0.00  0.00    -0.648 OA
ENDBRANCH  82  85
ENDBRANCH   9  82
BRANCH  17  88
ATOM     88  CB  NON d   1     -66.109 -47.307  27.104  0.00  0.00     0.044 C 
ATOM     89  H50 NON d   1     -66.747 -46.529  26.660  0.00  0.00     0.077 H 
ATOM     90  H51 NON d   1     -65.866 -47.034  28.142  0.00  0.00     0.077 H 
BRANCH  88  91
ATOM     91  OG  NON d   1     -66.822 -48.530  27.111  0.00  0.00    -0.398 OA
ATOM     92  H52 NON d   1     -67.043 -48.772  26.219  0.00  0.00     0.209 HD
ENDBRANCH  88  91
ENDBRANCH  17  88
BRANCH  13  93
ATOM     93  C3  NON d   1     -64.690 -42.250  26.089  0.00  0.00    -0.036 C 
ATOM     94  H38 NON d   1     -63.865 -42.014  26.777  0.00  0.00     0.036 H 
ATOM     95  H39 NON d   1     -65.645 -42.206  26.633  0.00  0.00     0.036 H 
BRANCH  93  96
ATOM     96  C4  NON d   1     -64.712 -41.202  24.969  0.00  0.00    -0.045 C 
ATOM     97  H40 NON d   1     -65.352 -40.368  25.292  0.00  0.00     0.035 H 
ATOM     98  H41 NON d   1     -65.143 -41.669  24.071  0.00  0.00     0.035 H 
BRANCH  96  99
ATOM     99  C5  NON d   1     -63.345 -40.638  24.603  0.00  0.00     0.027 C 
ATOM    100  H42 NON d   1     -62.826 -41.363  23.959  0.00  0.00     0.068 H 
ATOM    101  H43 NON d   1     -62.767 -40.488  25.527  0.00  0.00     0.068 H 
BRANCH  99 102
ATOM    102  N2  NON d   1     -63.434 -39.350  23.887  0.00  0.00    -0.193 N 
ATOM    103  C6  NON d   1     -62.975 -38.208  24.348  0.00  0.00     0.241 C 
ATOM    104  O3  NON d   1     -63.062 -37.160  23.696  0.00  0.00    -0.272 OA
ATOM    105  O2  NON d   1     -63.905 -39.234  22.764  0.00  0.00    -0.083 OA
BRANCH 103 106
ATOM    106  C7  NON d   1     -62.384 -38.309  25.726  0.00  0.00    -0.001 C 
ATOM    107  H44 NON d   1     -62.023 -37.320  26.043  0.00  0.00     0.040 H 
ATOM    108  H45 NON d   1     -61.544 -39.019  25.714  0.00  0.00     0.040 H 
ATOM    109  H46 NON d   1     -63.152 -38.662  26.430  0.00  0.00     0.040 H 
ENDBRANCH 103 106
ENDBRANCH  99 102
ENDBRANCH  96  99
ENDBRANCH  93  96
ENDBRANCH  13  93
TORSDOF 24
