REMARK  4 active torsions:
REMARK  status: ('A' for Active; 'I' for Inactive)
REMARK    1  A    between atoms: C13_2  and  C14_1 
REMARK    2  A    between atoms: C13_2  and  C12_4 
REMARK    3  A    between atoms: C80_12  and  C15_3 
REMARK    4  A    between atoms: C80_12  and  N3_13 
ROOT
ATOM      1  N10 L21 d   1       2.158 -27.797  24.654  0.00  0.00    -0.382 N 
ATOM      2  C6  L21 d   1       2.283 -26.459  24.693  0.00  0.00     0.155 A 
ATOM      3  C5  L21 d   1       3.465 -25.820  24.080  0.00  0.00     0.147 A 
ATOM      4  N9  L21 d   1       4.584 -26.189  23.425  0.00  0.00    -0.236 NA
ATOM      5  C4  L21 d   1       3.508 -24.371  24.181  0.00  0.00     0.142 A 
ATOM      6  N7  L21 d   1       4.636 -23.956  23.586  0.00  0.00    -0.335 N 
ATOM      7  C8  L21 d   1       5.285 -25.063  23.132  0.00  0.00     0.066 A 
ATOM      8  N3  L21 d   1       2.544 -23.663  24.789  0.00  0.00    -0.322 N 
ATOM      9  C2  L21 d   1       1.480 -24.307  25.316  0.00  0.00     0.070 A 
ATOM     10  N1  L21 d   1       1.351 -25.653  25.279  0.00  0.00    -0.224 NA
ATOM     11  H8  L21 d   1       1.337 -28.250  25.079  0.00  0.00     0.157 HD
ATOM     12  H9  L21 d   1       2.884 -28.369  24.199  0.00  0.00     0.157 HD
ATOM     13  H10 L21 d   1       6.238 -25.048  22.605  0.00  0.00     0.143 H 
ATOM     14  H13 L21 d   1       0.699 -23.722  25.787  0.00  0.00     0.144 H 
ATOM     15  H14 L21 d   1       4.952 -22.980  23.490  0.00  0.00     0.168 HD
ENDROOT
BRANCH   8  16
ATOM     16  C80 L21 d   1       2.624 -22.202  24.807  0.00  0.00     0.017 C 
ATOM     17  H11 L21 d   1       1.910 -21.782  25.531  0.00  0.00     0.071 H 
ATOM     18  H12 L21 d   1       3.642 -21.871  25.062  0.00  0.00     0.071 H 
BRANCH  16  19
ATOM     19  C15 L21 d   1       2.260 -21.784  23.384  0.00  0.00    -0.084 C 
ATOM     20  C13 L21 d   1       1.600 -20.669  23.018  0.00  0.00    -0.090 C 
ATOM     21  H4  L21 d   1       2.565 -22.456  22.584  0.00  0.00     0.079 H 
BRANCH  20  22
ATOM     22  C14 L21 d   1       1.326 -20.430  21.561  0.00  0.00    -0.055 C 
ATOM     23  H1  L21 d   1       0.783 -19.481  21.441  0.00  0.00     0.033 H 
ATOM     24  H2  L21 d   1       0.717 -21.254  21.163  0.00  0.00     0.033 H 
ATOM     25  H3  L21 d   1       2.278 -20.379  21.012  0.00  0.00     0.033 H 
ENDBRANCH  20  22
BRANCH  20  26
ATOM     26  C12 L21 d   1       1.119 -19.625  23.982  0.00  0.00    -0.055 C 
ATOM     27  H5  L21 d   1       1.383 -19.923  25.007  0.00  0.00     0.033 H 
ATOM     28  H6  L21 d   1       0.027 -19.525  23.899  0.00  0.00     0.033 H 
ATOM     29  H7  L21 d   1       1.594 -18.661  23.746  0.00  0.00     0.033 H 
ENDBRANCH  20  26
ENDBRANCH  16  19
ENDBRANCH   8  16
TORSDOF 4
