REMARK  3 active torsions:
REMARK  status: ('A' for Active; 'I' for Inactive)
REMARK    1  A    between atoms: N13_1  and  C10_2 
REMARK    2  A    between atoms: C2_6  and  C1_7 
REMARK    3  A    between atoms: C7_11  and  N12_13 
ROOT
ATOM      1  C1  L22 d   1       3.226 -24.473  24.592  0.00  0.00     0.106 A 
ATOM      2  C4  L22 d   1       2.248 -23.772  25.296  0.00  0.00    -0.035 A 
ATOM      3  C8  L22 d   1       1.166 -24.471  25.804  0.00  0.00     0.023 A 
ATOM      4  N11 L22 d   1       1.085 -25.792  25.629  0.00  0.00    -0.075 NA
ATOM      5  C7  L22 d   1       2.043 -26.463  24.950  0.00  0.00     0.720 A 
ATOM      6  N3  L22 d   1       3.108 -25.808  24.432  0.00  0.00    -0.061 NA
ATOM      7  H4  L22 d   1       2.333 -22.701  25.443  0.00  0.00     0.089 H 
ATOM      8  H5  L22 d   1       0.386 -23.946  26.343  0.00  0.00     0.115 H 
ENDROOT
BRANCH   1   9
ATOM      9  C2  L22 d   1       4.416 -23.786  24.022  0.00  0.00     0.095 A 
ATOM     10  C5  L22 d   1       4.602 -22.408  24.068  0.00  0.00    -0.011 A 
ATOM     11  S9  L22 d   1       6.104 -22.004  23.308  0.00  0.00    -0.062 SA
ATOM     12  H3  L22 d   1       3.910 -21.694  24.513  0.00  0.00     0.098 H 
ATOM     13  C10 L22 d   1       6.408 -23.675  22.971  0.00  0.00     0.164 A 
ATOM     14  N6  L22 d   1       5.419 -24.486  23.414  0.00  0.00    -0.222 NA
BRANCH  13  15
ATOM     15  N13 L22 d   1       7.515 -24.101  22.332  0.00  0.00    -0.378 N 
ATOM     16  H1  L22 d   1       7.652 -25.106  22.154  0.00  0.00     0.158 HD
ATOM     17  H2  L22 d   1       8.224 -23.422  22.022  0.00  0.00     0.158 HD
ENDBRANCH  13  15
ENDBRANCH   1   9
BRANCH   5  18
ATOM     18  N12 L22 d   1       1.939 -27.792  24.789  0.00  0.00    -0.231 N 
ATOM     19  H6  L22 d   1       1.131 -28.297  25.181  0.00  0.00     0.174 HD
ATOM     20  H7  L22 d   1       2.667 -28.307  24.274  0.00  0.00     0.174 HD
ENDBRANCH   5  18
TORSDOF 3
