REMARK  5 active torsions:
REMARK  status: ('A' for Active; 'I' for Inactive)
REMARK    1  A    between atoms: C15_8  and  C11_9 
REMARK    2  A    between atoms: C11_9  and  N7_10 
REMARK    3  A    between atoms: C8_12  and  C12_13 
REMARK    4  A    between atoms: C1_15  and  C2_16 
REMARK    5  A    between atoms: C9_20  and  N14_22 
ROOT
ATOM      1  N7  L23 d   1      34.956  22.875  22.084  0.00  0.00    -0.339 N 
ATOM      2  C3  L23 d   1      36.110  22.985  22.754  0.00  0.00     0.011 A 
ATOM      3  C8  L23 d   1      34.506  24.110  21.791  0.00  0.00     0.103 A 
ATOM      4  N4  L23 d   1      35.375  25.006  22.288  0.00  0.00    -0.232 NA
ATOM      5  C1  L23 d   1      36.375  24.338  22.886  0.00  0.00     0.103 A 
ATOM      6  H6  L23 d   1      36.724  22.166  23.125  0.00  0.00     0.115 H 
ENDROOT
BRANCH   1   7
ATOM      7  C11 L23 d   1      34.305  21.617  21.711  0.00  0.00     0.028 C 
ATOM      8  H4  L23 d   1      33.282  21.842  21.374  0.00  0.00     0.072 H 
ATOM      9  H5  L23 d   1      34.873  21.164  20.885  0.00  0.00     0.072 H 
BRANCH   7  10
ATOM     10  C15 L23 d   1      34.226  20.615  22.844  0.00  0.00     0.004 A 
ATOM     11  C17 L23 d   1      33.372  20.815  23.921  0.00  0.00     0.043 A 
ATOM     12 CL21 L23 d   1      32.351  22.282  24.011  0.00  0.00    -0.084 Cl
ATOM     13  C20 L23 d   1      33.308  19.879  24.952  0.00  0.00    -0.061 A 
ATOM     14  C22 L23 d   1      34.098  18.730  24.894  0.00  0.00    -0.080 A 
ATOM     15  H1  L23 d   1      32.647  20.043  25.796  0.00  0.00     0.086 H 
ATOM     16  C18 L23 d   1      34.950  18.525  23.816  0.00  0.00    -0.061 A 
ATOM     17  H2  L23 d   1      34.047  17.997  25.691  0.00  0.00     0.083 H 
ATOM     18  C16 L23 d   1      35.010  19.471  22.794  0.00  0.00     0.043 A 
ATOM     19  H3  L23 d   1      35.565  17.634  23.770  0.00  0.00     0.086 H 
ATOM     20 CL19 L23 d   1      36.116  19.215  21.408  0.00  0.00    -0.084 Cl
ENDBRANCH   7  10
ENDBRANCH   1   7
BRANCH   3  21
ATOM     21  C12 L23 d   1      33.253  24.487  21.044  0.00  0.00    -0.021 C 
ATOM     22  H7  L23 d   1      33.182  25.583  20.977  0.00  0.00     0.037 H 
ATOM     23  H8  L23 d   1      32.375  24.094  21.578  0.00  0.00     0.037 H 
ATOM     24  H9  L23 d   1      33.287  24.059  20.031  0.00  0.00     0.037 H 
ENDBRANCH   3  21
BRANCH   5  25
ATOM     25  C2  L23 d   1      37.534  24.986  23.562  0.00  0.00     0.107 A 
ATOM     26  C6  L23 d   1      38.464  24.241  24.290  0.00  0.00    -0.035 A 
ATOM     27  C10 L23 d   1      39.516  24.917  24.906  0.00  0.00     0.023 A 
ATOM     28  H10 L23 d   1      38.370  23.164  24.374  0.00  0.00     0.089 H 
ATOM     29  N13 L23 d   1      39.616  26.250  24.786  0.00  0.00    -0.075 NA
ATOM     30  H11 L23 d   1      40.252  24.367  25.481  0.00  0.00     0.115 H 
ATOM     31  C9  L23 d   1      38.700  26.963  24.078  0.00  0.00     0.720 A 
ATOM     32  N5  L23 d   1      37.667  26.331  23.470  0.00  0.00    -0.061 NA
BRANCH  31  33
ATOM     33  N14 L23 d   1      38.807  28.309  23.970  0.00  0.00    -0.231 N 
ATOM     34  H12 L23 d   1      39.587  28.802  24.427  0.00  0.00     0.174 HD
ATOM     35  H13 L23 d   1      38.108  28.840  23.431  0.00  0.00     0.174 HD
ENDBRANCH  31  33
ENDBRANCH   5  25
TORSDOF 5
